MODEL 1
REMARK VINA RESULT:      -7.4      0.000      0.000
REMARK  15 active torsions:
REMARK  status: ('A' for Active; 'I' for Inactive)
REMARK    1  A    between atoms: N_4  and  C_12 
REMARK       I    between atoms: N_5  and  C_7 
REMARK       I    between atoms: N_6  and  C_7 
REMARK    2  A    between atoms: N_8  and  C_9 
REMARK    3  A    between atoms: C_9  and  C_10 
REMARK    4  A    between atoms: C_10  and  C_11 
REMARK    5  A    between atoms: C_11  and  C_12 
REMARK    6  A    between atoms: C_12  and  C_13 
REMARK       I    between atoms: C_13  and  N_14 
REMARK    7  A    between atoms: N_14  and  C_18 
REMARK    8  A    between atoms: C_17  and  C_18 
REMARK    9  A    between atoms: C_18  and  C_19 
REMARK   10  A    between atoms: C_19  and  C_20 
REMARK   11  A    between atoms: C_20  and  N_21 
REMARK   12  A    between atoms: N_21  and  C_25 
REMARK   13  A    between atoms: C_24  and  C_25 
REMARK   14  A    between atoms: C_25  and  C_26 
REMARK   15  A    between atoms: C_26  and  C_28 
REMARK       I    between atoms: N_27  and  C_28 
ROOT
HETATM    1  O           1     -21.538  -7.747  -4.617  0.00  0.00    -0.271 OA
HETATM    2  C           1     -21.373  -6.683  -4.069  0.00  0.00     0.249 C 
HETATM    3  N           1     -21.239  -5.543  -4.815  0.00  0.00    -0.345 N 
HETATM    4  H           1     -21.102  -4.651  -4.355  0.00  0.00     0.163 HD
ENDROOT
BRANCH   3   5
HETATM    5  C           1     -21.295  -5.611  -6.261  0.00  0.00     0.187 C 
BRANCH   5   6
HETATM    6  C           1     -19.894  -5.718  -6.813  0.00  0.00     0.196 C 
HETATM    7  O           1     -19.209  -4.686  -6.982  0.00  0.00    -0.646 OA
HETATM    8  O           1     -19.420  -6.838  -7.101  0.00  0.00    -0.646 OA
ENDBRANCH   5   6
BRANCH   5   9
HETATM    9  C           1     -21.962  -4.354  -6.804  0.00  0.00     0.066 C 
BRANCH   9  10
HETATM   10  C           1     -22.374  -4.582  -8.252  0.00  0.00     0.273 C 
BRANCH  10  11
HETATM   11  N           1     -23.409  -3.648  -8.610  0.00  0.00     0.099 N 
HETATM   12  H           1     -23.274  -2.778  -8.094  0.00  0.00     0.317 HD
BRANCH  11  13
HETATM   13  C           1     -23.298  -3.392 -10.020  0.00  0.00     0.328 C 
BRANCH  13  14
HETATM   14  C           1     -24.678  -3.238 -10.612  0.00  0.00     0.207 C 
HETATM   15  O           1     -24.818  -3.126 -11.849  0.00  0.00    -0.646 OA
HETATM   16  O           1     -25.680  -3.222  -9.865  0.00  0.00    -0.646 OA
ENDBRANCH  13  14
BRANCH  13  17
HETATM   17  C           1     -22.584  -4.557 -10.692  0.00  0.00     0.149 C 
BRANCH  17  18
HETATM   18  C           1     -21.530  -4.026 -11.633  0.00  0.00     0.217 C 
HETATM   19  N           1     -21.880  -3.626 -12.896  0.00  0.00    -0.370 N 
HETATM   20  H           1     -21.174  -3.270 -13.527  0.00  0.00     0.159 HD
HETATM   21  H           1     -22.844  -3.686 -13.197  0.00  0.00     0.159 HD
HETATM   22  O           1     -20.379  -3.955 -11.274  0.00  0.00    -0.274 OA
ENDBRANCH  17  18
ENDBRANCH  13  17
ENDBRANCH  11  13
ENDBRANCH  10  11
ENDBRANCH   9  10
ENDBRANCH   5   9
ENDBRANCH   3   5
BRANCH   2  23
HETATM   23  C           1     -21.315  -6.610  -2.563  0.00  0.00     0.274 C 
BRANCH  23  24
HETATM   24  N           1     -22.381  -5.680  -2.065  0.00  0.00    -0.067 N 
HETATM   25  H           1     -22.384  -5.679  -1.021  0.00  0.00     0.275 HD
HETATM   26  H           1     -22.189  -4.713  -2.415  0.00  0.00     0.275 HD
HETATM   27  H           1     -23.313  -5.999  -2.416  0.00  0.00     0.275 HD
ENDBRANCH  23  24
BRANCH  23  28
HETATM   28  C           1     -21.542  -7.999  -1.978  0.00  0.00     0.044 C 
BRANCH  28  29
HETATM   29  C           1     -22.157  -7.873  -0.591  0.00  0.00     0.023 C 
BRANCH  29  30
HETATM   30  C           1     -21.433  -8.804   0.372  0.00  0.00     0.138 C 
BRANCH  30  31
HETATM   31  N           1     -22.035 -10.144   0.306  0.00  0.00    -0.227 N 
HETATM   32  C           1     -21.295 -11.168   0.244  0.00  0.00     0.665 C 
HETATM   33  N           1     -20.002 -11.036   0.238  0.00  0.00    -0.235 N 
HETATM   34  N           1     -21.814 -12.321   0.188  0.00  0.00    -0.235 N 
HETATM   35  H           1     -19.390 -11.882   0.187  0.00  0.00     0.174 HD
HETATM   36  H           1     -19.573 -10.084   0.285  0.00  0.00     0.174 HD
HETATM   37  H           1     -21.200 -13.172   0.136  0.00  0.00     0.174 HD
HETATM   38  H           1     -22.858 -12.429   0.192  0.00  0.00     0.174 HD
HETATM   39  H           1     -23.080 -10.250   0.312  0.00  0.00     0.177 HD
ENDBRANCH  30  31
ENDBRANCH  29  30
ENDBRANCH  28  29
ENDBRANCH  23  28
ENDBRANCH   2  23
TORSDOF 15
ENDMDL
MODEL 2
REMARK VINA RESULT:      -7.3      3.027     10.091
REMARK  15 active torsions:
REMARK  status: ('A' for Active; 'I' for Inactive)
REMARK    1  A    between atoms: N_4  and  C_12 
REMARK       I    between atoms: N_5  and  C_7 
REMARK       I    between atoms: N_6  and  C_7 
REMARK    2  A    between atoms: N_8  and  C_9 
REMARK    3  A    between atoms: C_9  and  C_10 
REMARK    4  A    between atoms: C_10  and  C_11 
REMARK    5  A    between atoms: C_11  and  C_12 
REMARK    6  A    between atoms: C_12  and  C_13 
REMARK       I    between atoms: C_13  and  N_14 
REMARK    7  A    between atoms: N_14  and  C_18 
REMARK    8  A    between atoms: C_17  and  C_18 
REMARK    9  A    between atoms: C_18  and  C_19 
REMARK   10  A    between atoms: C_19  and  C_20 
REMARK   11  A    between atoms: C_20  and  N_21 
REMARK   12  A    between atoms: N_21  and  C_25 
REMARK   13  A    between atoms: C_24  and  C_25 
REMARK   14  A    between atoms: C_25  and  C_26 
REMARK   15  A    between atoms: C_26  and  C_28 
REMARK       I    between atoms: N_27  and  C_28 
ROOT
HETATM    1  O           1     -23.403  -3.367  -8.271  0.00  0.00    -0.271 OA
HETATM    2  C           1     -23.262  -4.322  -8.998  0.00  0.00     0.249 C 
HETATM    3  N           1     -22.175  -5.140  -8.848  0.00  0.00    -0.345 N 
HETATM    4  H           1     -22.057  -5.940  -9.458  0.00  0.00     0.163 HD
ENDROOT
BRANCH   3   5
HETATM    5  C           1     -21.194  -4.863  -7.819  0.00  0.00     0.187 C 
BRANCH   5   6
HETATM    6  C           1     -19.871  -4.528  -8.463  0.00  0.00     0.196 C 
HETATM    7  O           1     -18.870  -4.297  -7.751  0.00  0.00    -0.646 OA
HETATM    8  O           1     -19.776  -4.482  -9.709  0.00  0.00    -0.646 OA
ENDBRANCH   5   6
BRANCH   5   9
HETATM    9  C           1     -21.031  -6.089  -6.929  0.00  0.00     0.066 C 
BRANCH   9  10
HETATM   10  C           1     -21.132  -5.673  -5.467  0.00  0.00     0.273 C 
BRANCH  10  11
HETATM   11  N           1     -20.423  -6.620  -4.649  0.00  0.00     0.099 N 
HETATM   12  H           1     -19.862  -6.120  -3.959  0.00  0.00     0.317 HD
BRANCH  11  13
HETATM   13  C           1     -21.399  -7.432  -3.975  0.00  0.00     0.328 C 
BRANCH  13  14
HETATM   14  C           1     -21.672  -6.858  -2.606  0.00  0.00     0.207 C 
HETATM   15  O           1     -22.514  -5.945  -2.469  0.00  0.00    -0.646 OA
HETATM   16  O           1     -21.056  -7.297  -1.611  0.00  0.00    -0.646 OA
ENDBRANCH  13  14
BRANCH  13  17
HETATM   17  C           1     -20.867  -8.852  -3.834  0.00  0.00     0.149 C 
BRANCH  17  18
HETATM   18  C           1     -20.337  -9.326  -5.165  0.00  0.00     0.217 C 
HETATM   19  N           1     -21.106 -10.134  -5.960  0.00  0.00    -0.370 N 
HETATM   20  H           1     -20.750 -10.451  -6.852  0.00  0.00     0.159 HD
HETATM   21  H           1     -22.029 -10.413  -5.655  0.00  0.00     0.159 HD
HETATM   22  O           1     -19.234  -8.993  -5.530  0.00  0.00    -0.274 OA
ENDBRANCH  17  18
ENDBRANCH  13  17
ENDBRANCH  11  13
ENDBRANCH  10  11
ENDBRANCH   9  10
ENDBRANCH   5   9
ENDBRANCH   3   5
BRANCH   2  23
HETATM   23  C           1     -24.283  -4.611 -10.071  0.00  0.00     0.274 C 
BRANCH  23  24
HETATM   24  N           1     -25.380  -3.588 -10.005  0.00  0.00    -0.067 N 
HETATM   25  H           1     -24.992  -2.684  -9.656  0.00  0.00     0.275 HD
HETATM   26  H           1     -25.783  -3.450 -10.960  0.00  0.00     0.275 HD
HETATM   27  H           1     -26.128  -3.921  -9.355  0.00  0.00     0.275 HD
ENDBRANCH  23  24
BRANCH  23  28
HETATM   28  C           1     -23.614  -4.549 -11.438  0.00  0.00     0.044 C 
BRANCH  28  29
HETATM   29  C           1     -23.204  -3.113 -11.739  0.00  0.00     0.023 C 
BRANCH  29  30
HETATM   30  C           1     -23.117  -2.916 -13.247  0.00  0.00     0.138 C 
BRANCH  30  31
HETATM   31  N           1     -23.957  -1.776 -13.642  0.00  0.00    -0.227 N 
HETATM   32  C           1     -23.778  -1.215 -14.762  0.00  0.00     0.665 C 
HETATM   33  N           1     -22.851  -1.648 -15.564  0.00  0.00    -0.235 N 
HETATM   34  N           1     -24.502  -0.234 -15.102  0.00  0.00    -0.235 N 
HETATM   35  H           1     -22.702  -1.185 -16.489  0.00  0.00     0.174 HD
HETATM   36  H           1     -22.253  -2.458 -15.284  0.00  0.00     0.174 HD
HETATM   37  H           1     -24.354   0.231 -16.032  0.00  0.00     0.174 HD
HETATM   38  H           1     -25.251   0.115 -14.455  0.00  0.00     0.174 HD
HETATM   39  H           1     -24.707  -1.427 -12.994  0.00  0.00     0.177 HD
ENDBRANCH  30  31
ENDBRANCH  29  30
ENDBRANCH  28  29
ENDBRANCH  23  28
ENDBRANCH   2  23
TORSDOF 15
ENDMDL
MODEL 3
REMARK VINA RESULT:      -7.2      1.992      2.746
REMARK  15 active torsions:
REMARK  status: ('A' for Active; 'I' for Inactive)
REMARK    1  A    between atoms: N_4  and  C_12 
REMARK       I    between atoms: N_5  and  C_7 
REMARK       I    between atoms: N_6  and  C_7 
REMARK    2  A    between atoms: N_8  and  C_9 
REMARK    3  A    between atoms: C_9  and  C_10 
REMARK    4  A    between atoms: C_10  and  C_11 
REMARK    5  A    between atoms: C_11  and  C_12 
REMARK    6  A    between atoms: C_12  and  C_13 
REMARK       I    between atoms: C_13  and  N_14 
REMARK    7  A    between atoms: N_14  and  C_18 
REMARK    8  A    between atoms: C_17  and  C_18 
REMARK    9  A    between atoms: C_18  and  C_19 
REMARK   10  A    between atoms: C_19  and  C_20 
REMARK   11  A    between atoms: C_20  and  N_21 
REMARK   12  A    between atoms: N_21  and  C_25 
REMARK   13  A    between atoms: C_24  and  C_25 
REMARK   14  A    between atoms: C_25  and  C_26 
REMARK   15  A    between atoms: C_26  and  C_28 
REMARK       I    between atoms: N_27  and  C_28 
ROOT
HETATM    1  O           1     -22.043  -7.383  -4.765  0.00  0.00    -0.271 OA
HETATM    2  C           1     -21.458  -6.507  -4.175  0.00  0.00     0.249 C 
HETATM    3  N           1     -20.954  -5.436  -4.863  0.00  0.00    -0.345 N 
HETATM    4  H           1     -20.464  -4.702  -4.367  0.00  0.00     0.163 HD
ENDROOT
BRANCH   3   5
HETATM    5  C           1     -21.123  -5.352  -6.299  0.00  0.00     0.187 C 
BRANCH   5   6
HETATM    6  C           1     -19.795  -5.593  -6.976  0.00  0.00     0.196 C 
HETATM    7  O           1     -19.008  -4.641  -7.164  0.00  0.00    -0.646 OA
HETATM    8  O           1     -19.483  -6.745  -7.347  0.00  0.00    -0.646 OA
ENDBRANCH   5   6
BRANCH   5   9
HETATM    9  C           1     -21.639  -3.968  -6.670  0.00  0.00     0.066 C 
BRANCH   9  10
HETATM   10  C           1     -21.740  -3.852  -8.186  0.00  0.00     0.273 C 
BRANCH  10  11
HETATM   11  N           1     -23.123  -3.748  -8.568  0.00  0.00     0.099 N 
HETATM   12  H           1     -23.566  -2.995  -8.041  0.00  0.00     0.317 HD
BRANCH  11  13
HETATM   13  C           1     -23.166  -3.441  -9.972  0.00  0.00     0.328 C 
BRANCH  13  14
HETATM   14  C           1     -24.599  -3.234 -10.397  0.00  0.00     0.207 C 
HETATM   15  O           1     -25.502  -3.159  -9.536  0.00  0.00    -0.646 OA
HETATM   16  O           1     -24.883  -3.139 -11.611  0.00  0.00    -0.646 OA
ENDBRANCH  13  14
BRANCH  13  17
HETATM   17  C           1     -22.562  -4.594 -10.762  0.00  0.00     0.149 C 
BRANCH  17  18
HETATM   18  C           1     -21.510  -4.062 -11.705  0.00  0.00     0.217 C 
HETATM   19  N           1     -21.872  -3.587 -12.937  0.00  0.00    -0.370 N 
HETATM   20  H           1     -21.167  -3.230 -13.569  0.00  0.00     0.159 HD
HETATM   21  H           1     -22.845  -3.592 -13.215  0.00  0.00     0.159 HD
HETATM   22  O           1     -20.349  -4.055 -11.372  0.00  0.00    -0.274 OA
ENDBRANCH  17  18
ENDBRANCH  13  17
ENDBRANCH  11  13
ENDBRANCH  10  11
ENDBRANCH   9  10
ENDBRANCH   5   9
ENDBRANCH   3   5
BRANCH   2  23
HETATM   23  C           1     -21.281  -6.594  -2.678  0.00  0.00     0.274 C 
BRANCH  23  24
HETATM   24  N           1     -22.373  -5.820  -2.001  0.00  0.00    -0.067 N 
HETATM   25  H           1     -23.012  -5.416  -2.722  0.00  0.00     0.275 HD
HETATM   26  H           1     -22.913  -6.458  -1.374  0.00  0.00     0.275 HD
HETATM   27  H           1     -21.953  -5.047  -1.435  0.00  0.00     0.275 HD
ENDBRANCH  23  24
BRANCH  23  28
HETATM   28  C           1     -21.349  -8.052  -2.243  0.00  0.00     0.044 C 
BRANCH  28  29
HETATM   29  C           1     -19.946  -8.646  -2.230  0.00  0.00     0.023 C 
BRANCH  29  30
HETATM   30  C           1     -19.870  -9.792  -3.230  0.00  0.00     0.138 C 
BRANCH  30  31
HETATM   31  N           1     -18.495  -9.910  -3.737  0.00  0.00    -0.227 N 
HETATM   32  C           1     -18.247  -9.674  -4.955  0.00  0.00     0.665 C 
HETATM   33  N           1     -19.208  -9.327  -5.758  0.00  0.00    -0.235 N 
HETATM   34  N           1     -17.063  -9.775  -5.391  0.00  0.00    -0.235 N 
HETATM   35  H           1     -19.004  -9.132  -6.765  0.00  0.00     0.174 HD
HETATM   36  H           1     -20.186  -9.242  -5.398  0.00  0.00     0.174 HD
HETATM   37  H           1     -16.857  -9.579  -6.402  0.00  0.00     0.174 HD
HETATM   38  H           1     -16.286 -10.056  -4.743  0.00  0.00     0.174 HD
HETATM   39  H           1     -17.718 -10.190  -3.087  0.00  0.00     0.177 HD
ENDBRANCH  30  31
ENDBRANCH  29  30
ENDBRANCH  28  29
ENDBRANCH  23  28
ENDBRANCH   2  23
TORSDOF 15
ENDMDL
MODEL 4
REMARK VINA RESULT:      -7.1     12.513     15.266
REMARK  15 active torsions:
REMARK  status: ('A' for Active; 'I' for Inactive)
REMARK    1  A    between atoms: N_4  and  C_12 
REMARK       I    between atoms: N_5  and  C_7 
REMARK       I    between atoms: N_6  and  C_7 
REMARK    2  A    between atoms: N_8  and  C_9 
REMARK    3  A    between atoms: C_9  and  C_10 
REMARK    4  A    between atoms: C_10  and  C_11 
REMARK    5  A    between atoms: C_11  and  C_12 
REMARK    6  A    between atoms: C_12  and  C_13 
REMARK       I    between atoms: C_13  and  N_14 
REMARK    7  A    between atoms: N_14  and  C_18 
REMARK    8  A    between atoms: C_17  and  C_18 
REMARK    9  A    between atoms: C_18  and  C_19 
REMARK   10  A    between atoms: C_19  and  C_20 
REMARK   11  A    between atoms: C_20  and  N_21 
REMARK   12  A    between atoms: N_21  and  C_25 
REMARK   13  A    between atoms: C_24  and  C_25 
REMARK   14  A    between atoms: C_25  and  C_26 
REMARK   15  A    between atoms: C_26  and  C_28 
REMARK       I    between atoms: N_27  and  C_28 
ROOT
HETATM    1  O           1     -31.996  -7.221 -17.909  0.00  0.00    -0.271 OA
HETATM    2  C           1     -31.012  -6.803 -17.347  0.00  0.00     0.249 C 
HETATM    3  N           1     -31.059  -5.605 -16.686  0.00  0.00    -0.345 N 
HETATM    4  H           1     -30.234  -5.255 -16.215  0.00  0.00     0.163 HD
ENDROOT
BRANCH   3   5
HETATM    5  C           1     -32.288  -4.838 -16.659  0.00  0.00     0.187 C 
BRANCH   5   6
HETATM    6  C           1     -32.115  -3.584 -17.482  0.00  0.00     0.196 C 
HETATM    7  O           1     -33.094  -2.834 -17.689  0.00  0.00    -0.646 OA
HETATM    8  O           1     -30.995  -3.296 -17.954  0.00  0.00    -0.646 OA
ENDBRANCH   5   6
BRANCH   5   9
HETATM    9  C           1     -32.622  -4.463 -15.221  0.00  0.00     0.066 C 
BRANCH   9  10
HETATM   10  C           1     -34.134  -4.413 -15.046  0.00  0.00     0.273 C 
BRANCH  10  11
HETATM   11  N           1     -34.470  -4.730 -13.684  0.00  0.00     0.099 N 
HETATM   12  H           1     -34.105  -5.654 -13.450  0.00  0.00     0.317 HD
BRANCH  11  13
HETATM   13  C           1     -33.855  -3.743 -12.841  0.00  0.00     0.328 C 
BRANCH  13  14
HETATM   14  C           1     -33.029  -4.431 -11.781  0.00  0.00     0.207 C 
HETATM   15  O           1     -31.869  -4.813 -12.043  0.00  0.00    -0.646 OA
HETATM   16  O           1     -33.507  -4.619 -10.641  0.00  0.00    -0.646 OA
ENDBRANCH  13  14
BRANCH  13  17
HETATM   17  C           1     -34.935  -2.899 -12.176  0.00  0.00     0.149 C 
BRANCH  17  18
HETATM   18  C           1     -34.990  -1.542 -12.834  0.00  0.00     0.217 C 
HETATM   19  N           1     -35.025  -0.410 -12.064  0.00  0.00    -0.370 N 
HETATM   20  H           1     -35.062   0.500 -12.505  0.00  0.00     0.159 HD
HETATM   21  H           1     -35.014  -0.483 -11.055  0.00  0.00     0.159 HD
HETATM   22  O           1     -35.003  -1.455 -14.039  0.00  0.00    -0.274 OA
ENDBRANCH  17  18
ENDBRANCH  13  17
ENDBRANCH  11  13
ENDBRANCH  10  11
ENDBRANCH   9  10
ENDBRANCH   5   9
ENDBRANCH   3   5
BRANCH   2  23
HETATM   23  C           1     -29.731  -7.600 -17.374  0.00  0.00     0.274 C 
BRANCH  23  24
HETATM   24  N           1     -29.571  -8.241 -18.722  0.00  0.00    -0.067 N 
HETATM   25  H           1     -30.512  -8.469 -19.113  0.00  0.00     0.275 HD
HETATM   26  H           1     -29.077  -7.580 -19.364  0.00  0.00     0.275 HD
HETATM   27  H           1     -29.010  -9.118 -18.627  0.00  0.00     0.275 HD
ENDBRANCH  23  24
BRANCH  23  28
HETATM   28  C           1     -28.551  -6.675 -17.110  0.00  0.00     0.044 C 
BRANCH  28  29
HETATM   29  C           1     -27.864  -7.083 -15.814  0.00  0.00     0.023 C 
BRANCH  29  30
HETATM   30  C           1     -26.399  -6.671 -15.863  0.00  0.00     0.138 C 
BRANCH  30  31
HETATM   31  N           1     -25.922  -6.718 -17.253  0.00  0.00    -0.227 N 
HETATM   32  C           1     -24.820  -7.277 -17.526  0.00  0.00     0.665 C 
HETATM   33  N           1     -24.109  -7.809 -16.576  0.00  0.00    -0.235 N 
HETATM   34  N           1     -24.411  -7.318 -18.722  0.00  0.00    -0.235 N 
HETATM   35  H           1     -23.199  -8.271 -16.801  0.00  0.00     0.174 HD
HETATM   36  H           1     -24.447  -7.776 -15.588  0.00  0.00     0.174 HD
HETATM   37  H           1     -23.496  -7.782 -18.949  0.00  0.00     0.174 HD
HETATM   38  H           1     -24.984  -6.888 -19.490  0.00  0.00     0.174 HD
HETATM   39  H           1     -26.497  -6.289 -18.020  0.00  0.00     0.177 HD
ENDBRANCH  30  31
ENDBRANCH  29  30
ENDBRANCH  28  29
ENDBRANCH  23  28
ENDBRANCH   2  23
TORSDOF 15
ENDMDL
MODEL 5
REMARK VINA RESULT:      -7.1      2.846      9.925
REMARK  15 active torsions:
REMARK  status: ('A' for Active; 'I' for Inactive)
REMARK    1  A    between atoms: N_4  and  C_12 
REMARK       I    between atoms: N_5  and  C_7 
REMARK       I    between atoms: N_6  and  C_7 
REMARK    2  A    between atoms: N_8  and  C_9 
REMARK    3  A    between atoms: C_9  and  C_10 
REMARK    4  A    between atoms: C_10  and  C_11 
REMARK    5  A    between atoms: C_11  and  C_12 
REMARK    6  A    between atoms: C_12  and  C_13 
REMARK       I    between atoms: C_13  and  N_14 
REMARK    7  A    between atoms: N_14  and  C_18 
REMARK    8  A    between atoms: C_17  and  C_18 
REMARK    9  A    between atoms: C_18  and  C_19 
REMARK   10  A    between atoms: C_19  and  C_20 
REMARK   11  A    between atoms: C_20  and  N_21 
REMARK   12  A    between atoms: N_21  and  C_25 
REMARK   13  A    between atoms: C_24  and  C_25 
REMARK   14  A    between atoms: C_25  and  C_26 
REMARK   15  A    between atoms: C_26  and  C_28 
REMARK       I    between atoms: N_27  and  C_28 
ROOT
HETATM    1  O           1     -20.332  -4.362  -6.081  0.00  0.00    -0.271 OA
HETATM    2  C           1     -21.046  -5.062  -6.758  0.00  0.00     0.249 C 
HETATM    3  N           1     -21.415  -6.301  -6.308  0.00  0.00    -0.345 N 
HETATM    4  H           1     -22.014  -6.888  -6.876  0.00  0.00     0.163 HD
ENDROOT
BRANCH   3   5
HETATM    5  C           1     -20.950  -6.773  -5.019  0.00  0.00     0.187 C 
BRANCH   5   6
HETATM    6  C           1     -20.611  -8.241  -5.114  0.00  0.00     0.196 C 
HETATM    7  O           1     -21.456  -9.100  -4.780  0.00  0.00    -0.646 OA
HETATM    8  O           1     -19.487  -8.597  -5.528  0.00  0.00    -0.646 OA
ENDBRANCH   5   6
BRANCH   5   9
HETATM    9  C           1     -22.043  -6.570  -3.978  0.00  0.00     0.066 C 
BRANCH   9  10
HETATM   10  C           1     -21.411  -6.220  -2.638  0.00  0.00     0.273 C 
BRANCH  10  11
HETATM   11  N           1     -22.308  -6.583  -1.574  0.00  0.00     0.099 N 
HETATM   12  H           1     -23.271  -6.514  -1.903  0.00  0.00     0.317 HD
BRANCH  11  13
HETATM   13  C           1     -22.022  -7.943  -1.206  0.00  0.00     0.328 C 
BRANCH  13  14
HETATM   14  C           1     -22.585  -8.221   0.166  0.00  0.00     0.207 C 
HETATM   15  O           1     -21.988  -7.803   1.182  0.00  0.00    -0.646 OA
HETATM   16  O           1     -23.647  -8.869   0.287  0.00  0.00    -0.646 OA
ENDBRANCH  13  14
BRANCH  13  17
HETATM   17  C           1     -20.515  -8.158  -1.191  0.00  0.00     0.149 C 
BRANCH  17  18
HETATM   18  C           1     -20.210  -9.607  -1.484  0.00  0.00     0.217 C 
HETATM   19  N           1     -19.502  -9.944  -2.606  0.00  0.00    -0.370 N 
HETATM   20  H           1     -19.298 -10.915  -2.802  0.00  0.00     0.159 HD
HETATM   21  H           1     -19.183  -9.222  -3.240  0.00  0.00     0.159 HD
HETATM   22  O           1     -20.590 -10.469  -0.727  0.00  0.00    -0.274 OA
ENDBRANCH  17  18
ENDBRANCH  13  17
ENDBRANCH  11  13
ENDBRANCH  10  11
ENDBRANCH   9  10
ENDBRANCH   5   9
ENDBRANCH   3   5
BRANCH   2  23
HETATM   23  C           1     -21.530  -4.572  -8.101  0.00  0.00     0.274 C 
BRANCH  23  24
HETATM   24  N           1     -22.466  -3.416  -7.902  0.00  0.00    -0.067 N 
HETATM   25  H           1     -23.199  -3.430  -8.647  0.00  0.00     0.275 HD
HETATM   26  H           1     -22.920  -3.494  -6.964  0.00  0.00     0.275 HD
HETATM   27  H           1     -21.930  -2.520  -7.957  0.00  0.00     0.275 HD
ENDBRANCH  23  24
BRANCH  23  28
HETATM   28  C           1     -20.339  -4.122  -8.937  0.00  0.00     0.044 C 
BRANCH  28  29
HETATM   29  C           1     -20.549  -4.536 -10.387  0.00  0.00     0.023 C 
BRANCH  29  30
HETATM   30  C           1     -20.660  -3.293 -11.260  0.00  0.00     0.138 C 
BRANCH  30  31
HETATM   31  N           1     -22.062  -2.855 -11.314  0.00  0.00    -0.227 N 
HETATM   32  C           1     -22.705  -2.922 -12.403  0.00  0.00     0.665 C 
HETATM   33  N           1     -22.125  -3.379 -13.472  0.00  0.00    -0.235 N 
HETATM   34  N           1     -23.912  -2.544 -12.449  0.00  0.00    -0.235 N 
HETATM   35  H           1     -22.655  -3.434 -14.372  0.00  0.00     0.174 HD
HETATM   36  H           1     -21.128  -3.691 -13.435  0.00  0.00     0.174 HD
HETATM   37  H           1     -24.445  -2.600 -13.352  0.00  0.00     0.174 HD
HETATM   38  H           1     -24.381  -2.176 -11.585  0.00  0.00     0.174 HD
HETATM   39  H           1     -22.531  -2.486 -10.450  0.00  0.00     0.177 HD
ENDBRANCH  30  31
ENDBRANCH  29  30
ENDBRANCH  28  29
ENDBRANCH  23  28
ENDBRANCH   2  23
TORSDOF 15
ENDMDL
MODEL 6
REMARK VINA RESULT:      -7.0     13.665     16.936
REMARK  15 active torsions:
REMARK  status: ('A' for Active; 'I' for Inactive)
REMARK    1  A    between atoms: N_4  and  C_12 
REMARK       I    between atoms: N_5  and  C_7 
REMARK       I    between atoms: N_6  and  C_7 
REMARK    2  A    between atoms: N_8  and  C_9 
REMARK    3  A    between atoms: C_9  and  C_10 
REMARK    4  A    between atoms: C_10  and  C_11 
REMARK    5  A    between atoms: C_11  and  C_12 
REMARK    6  A    between atoms: C_12  and  C_13 
REMARK       I    between atoms: C_13  and  N_14 
REMARK    7  A    between atoms: N_14  and  C_18 
REMARK    8  A    between atoms: C_17  and  C_18 
REMARK    9  A    between atoms: C_18  and  C_19 
REMARK   10  A    between atoms: C_19  and  C_20 
REMARK   11  A    between atoms: C_20  and  N_21 
REMARK   12  A    between atoms: N_21  and  C_25 
REMARK   13  A    between atoms: C_24  and  C_25 
REMARK   14  A    between atoms: C_25  and  C_26 
REMARK   15  A    between atoms: C_26  and  C_28 
REMARK       I    between atoms: N_27  and  C_28 
ROOT
HETATM    1  O           1     -34.600  -3.478 -14.855  0.00  0.00    -0.271 OA
HETATM    2  C           1     -34.372  -3.019 -15.949  0.00  0.00     0.249 C 
HETATM    3  N           1     -34.896  -1.805 -16.304  0.00  0.00    -0.345 N 
HETATM    4  H           1     -34.705  -1.421 -17.222  0.00  0.00     0.163 HD
ENDROOT
BRANCH   3   5
HETATM    5  C           1     -35.723  -1.069 -15.369  0.00  0.00     0.187 C 
BRANCH   5   6
HETATM    6  C           1     -36.754  -0.271 -16.131  0.00  0.00     0.196 C 
HETATM    7  O           1     -37.652  -0.861 -16.769  0.00  0.00    -0.646 OA
HETATM    8  O           1     -36.708   0.977 -16.123  0.00  0.00    -0.646 OA
ENDBRANCH   5   6
BRANCH   5   9
HETATM    9  C           1     -34.850  -0.125 -14.552  0.00  0.00     0.066 C 
BRANCH   9  10
HETATM   10  C           1     -35.377  -0.053 -13.125  0.00  0.00     0.273 C 
BRANCH  10  11
HETATM   11  N           1     -34.329  -0.413 -12.208  0.00  0.00     0.099 N 
HETATM   12  H           1     -34.267   0.289 -11.470  0.00  0.00     0.317 HD
BRANCH  11  13
HETATM   13  C           1     -34.670  -1.685 -11.632  0.00  0.00     0.328 C 
BRANCH  13  14
HETATM   14  C           1     -35.813  -1.507 -10.662  0.00  0.00     0.207 C 
HETATM   15  O           1     -35.697  -0.720  -9.698  0.00  0.00    -0.646 OA
HETATM   16  O           1     -36.875  -2.147 -10.823  0.00  0.00    -0.646 OA
ENDBRANCH  13  14
BRANCH  13  17
HETATM   17  C           1     -33.462  -2.250 -10.897  0.00  0.00     0.149 C 
BRANCH  17  18
HETATM   18  C           1     -33.315  -3.716 -11.222  0.00  0.00     0.217 C 
HETATM   19  N           1     -33.948  -4.655 -10.452  0.00  0.00    -0.370 N 
HETATM   20  H           1     -33.850  -5.638 -10.670  0.00  0.00     0.159 HD
HETATM   21  H           1     -34.515  -4.366  -9.665  0.00  0.00     0.159 HD
HETATM   22  O           1     -32.638  -4.062 -12.161  0.00  0.00    -0.274 OA
ENDBRANCH  17  18
ENDBRANCH  13  17
ENDBRANCH  11  13
ENDBRANCH  10  11
ENDBRANCH   9  10
ENDBRANCH   5   9
ENDBRANCH   3   5
BRANCH   2  23
HETATM   23  C           1     -33.512  -3.785 -16.924  0.00  0.00     0.274 C 
BRANCH  23  24
HETATM   24  N           1     -32.495  -2.860 -17.525  0.00  0.00    -0.067 N 
HETATM   25  H           1     -32.891  -2.418 -18.385  0.00  0.00     0.275 HD
HETATM   26  H           1     -32.249  -2.117 -16.833  0.00  0.00     0.275 HD
HETATM   27  H           1     -31.636  -3.402 -17.776  0.00  0.00     0.275 HD
ENDBRANCH  23  24
BRANCH  23  28
HETATM   28  C           1     -32.799  -4.915 -16.193  0.00  0.00     0.044 C 
BRANCH  28  29
HETATM   29  C           1     -31.328  -4.928 -16.587  0.00  0.00     0.023 C 
BRANCH  29  30
HETATM   30  C           1     -31.007  -6.231 -17.308  0.00  0.00     0.138 C 
BRANCH  30  31
HETATM   31  N           1     -29.759  -6.076 -18.069  0.00  0.00    -0.227 N 
HETATM   32  C           1     -29.046  -7.088 -18.329  0.00  0.00     0.665 C 
HETATM   33  N           1     -29.417  -8.266 -17.923  0.00  0.00    -0.235 N 
HETATM   34  N           1     -27.972  -6.954 -18.985  0.00  0.00    -0.235 N 
HETATM   35  H           1     -28.828  -9.103 -18.137  0.00  0.00     0.174 HD
HETATM   36  H           1     -30.304  -8.377 -17.381  0.00  0.00     0.174 HD
HETATM   37  H           1     -27.380  -7.795 -19.201  0.00  0.00     0.174 HD
HETATM   38  H           1     -27.672  -6.003 -19.314  0.00  0.00     0.174 HD
HETATM   39  H           1     -29.460  -5.124 -18.399  0.00  0.00     0.177 HD
ENDBRANCH  30  31
ENDBRANCH  29  30
ENDBRANCH  28  29
ENDBRANCH  23  28
ENDBRANCH   2  23
TORSDOF 15
ENDMDL
MODEL 7
REMARK VINA RESULT:      -7.0      2.383     10.050
REMARK  15 active torsions:
REMARK  status: ('A' for Active; 'I' for Inactive)
REMARK    1  A    between atoms: N_4  and  C_12 
REMARK       I    between atoms: N_5  and  C_7 
REMARK       I    between atoms: N_6  and  C_7 
REMARK    2  A    between atoms: N_8  and  C_9 
REMARK    3  A    between atoms: C_9  and  C_10 
REMARK    4  A    between atoms: C_10  and  C_11 
REMARK    5  A    between atoms: C_11  and  C_12 
REMARK    6  A    between atoms: C_12  and  C_13 
REMARK       I    between atoms: C_13  and  N_14 
REMARK    7  A    between atoms: N_14  and  C_18 
REMARK    8  A    between atoms: C_17  and  C_18 
REMARK    9  A    between atoms: C_18  and  C_19 
REMARK   10  A    between atoms: C_19  and  C_20 
REMARK   11  A    between atoms: C_20  and  N_21 
REMARK   12  A    between atoms: N_21  and  C_25 
REMARK   13  A    between atoms: C_24  and  C_25 
REMARK   14  A    between atoms: C_25  and  C_26 
REMARK   15  A    between atoms: C_26  and  C_28 
REMARK       I    between atoms: N_27  and  C_28 
ROOT
HETATM    1  O           1     -21.848  -3.155  -8.366  0.00  0.00    -0.271 OA
HETATM    2  C           1     -22.494  -4.156  -8.171  0.00  0.00     0.249 C 
HETATM    3  N           1     -22.104  -5.044  -7.204  0.00  0.00    -0.345 N 
HETATM    4  H           1     -22.646  -5.883  -7.040  0.00  0.00     0.163 HD
ENDROOT
BRANCH   3   5
HETATM    5  C           1     -20.918  -4.782  -6.414  0.00  0.00     0.187 C 
BRANCH   5   6
HETATM    6  C           1     -19.704  -5.307  -7.142  0.00  0.00     0.196 C 
HETATM    7  O           1     -19.585  -6.533  -7.353  0.00  0.00    -0.646 OA
HETATM    8  O           1     -18.819  -4.516  -7.534  0.00  0.00    -0.646 OA
ENDBRANCH   5   6
BRANCH   5   9
HETATM    9  C           1     -21.042  -5.477  -5.064  0.00  0.00     0.066 C 
BRANCH   9  10
HETATM   10  C           1     -22.058  -6.606  -5.165  0.00  0.00     0.273 C 
BRANCH  10  11
HETATM   11  N           1     -21.369  -7.863  -5.291  0.00  0.00     0.099 N 
HETATM   12  H           1     -20.677  -7.798  -6.039  0.00  0.00     0.317 HD
BRANCH  11  13
HETATM   13  C           1     -20.704  -8.123  -4.044  0.00  0.00     0.328 C 
BRANCH  13  14
HETATM   14  C           1     -19.670  -9.204  -4.242  0.00  0.00     0.207 C 
HETATM   15  O           1     -18.509  -9.047  -3.806  0.00  0.00    -0.646 OA
HETATM   16  O           1     -19.975 -10.258  -4.843  0.00  0.00    -0.646 OA
ENDBRANCH  13  14
BRANCH  13  17
HETATM   17  C           1     -21.725  -8.579  -3.011  0.00  0.00     0.149 C 
BRANCH  17  18
HETATM   18  C           1     -21.566  -7.763  -1.751  0.00  0.00     0.217 C 
HETATM   19  N           1     -20.725  -8.194  -0.758  0.00  0.00    -0.370 N 
HETATM   20  H           1     -20.619  -7.647   0.086  0.00  0.00     0.159 HD
HETATM   21  H           1     -20.211  -9.058  -0.870  0.00  0.00     0.159 HD
HETATM   22  O           1     -22.179  -6.731  -1.618  0.00  0.00    -0.274 OA
ENDBRANCH  17  18
ENDBRANCH  13  17
ENDBRANCH  11  13
ENDBRANCH  10  11
ENDBRANCH   9  10
ENDBRANCH   5   9
ENDBRANCH   3   5
BRANCH   2  23
HETATM   23  C           1     -23.729  -4.431  -8.993  0.00  0.00     0.274 C 
BRANCH  23  24
HETATM   24  N           1     -24.596  -3.205  -9.016  0.00  0.00    -0.067 N 
HETATM   25  H           1     -24.605  -2.768  -8.067  0.00  0.00     0.275 HD
HETATM   26  H           1     -24.215  -2.524  -9.711  0.00  0.00     0.275 HD
HETATM   27  H           1     -25.570  -3.473  -9.286  0.00  0.00     0.275 HD
ENDBRANCH  23  24
BRANCH  23  28
HETATM   28  C           1     -23.323  -4.790 -10.416  0.00  0.00     0.044 C 
BRANCH  28  29
HETATM   29  C           1     -23.978  -3.823 -11.392  0.00  0.00     0.023 C 
BRANCH  29  30
HETATM   30  C           1     -22.902  -3.097 -12.189  0.00  0.00     0.138 C 
BRANCH  30  31
HETATM   31  N           1     -23.533  -2.123 -13.091  0.00  0.00    -0.227 N 
HETATM   32  C           1     -23.276  -2.149 -14.330  0.00  0.00     0.665 C 
HETATM   33  N           1     -22.456  -3.038 -14.805  0.00  0.00    -0.235 N 
HETATM   34  N           1     -23.820  -1.310 -15.107  0.00  0.00    -0.235 N 
HETATM   35  H           1     -22.243  -3.061 -15.828  0.00  0.00     0.174 HD
HETATM   36  H           1     -22.007  -3.731 -14.164  0.00  0.00     0.174 HD
HETATM   37  H           1     -23.607  -1.333 -16.135  0.00  0.00     0.174 HD
HETATM   38  H           1     -24.483  -0.592 -14.724  0.00  0.00     0.174 HD
HETATM   39  H           1     -24.197  -1.405 -12.708  0.00  0.00     0.177 HD
ENDBRANCH  30  31
ENDBRANCH  29  30
ENDBRANCH  28  29
ENDBRANCH  23  28
ENDBRANCH   2  23
TORSDOF 15
ENDMDL
MODEL 8
REMARK VINA RESULT:      -7.0      2.966      9.207
REMARK  15 active torsions:
REMARK  status: ('A' for Active; 'I' for Inactive)
REMARK    1  A    between atoms: N_4  and  C_12 
REMARK       I    between atoms: N_5  and  C_7 
REMARK       I    between atoms: N_6  and  C_7 
REMARK    2  A    between atoms: N_8  and  C_9 
REMARK    3  A    between atoms: C_9  and  C_10 
REMARK    4  A    between atoms: C_10  and  C_11 
REMARK    5  A    between atoms: C_11  and  C_12 
REMARK    6  A    between atoms: C_12  and  C_13 
REMARK       I    between atoms: C_13  and  N_14 
REMARK    7  A    between atoms: N_14  and  C_18 
REMARK    8  A    between atoms: C_17  and  C_18 
REMARK    9  A    between atoms: C_18  and  C_19 
REMARK   10  A    between atoms: C_19  and  C_20 
REMARK   11  A    between atoms: C_20  and  N_21 
REMARK   12  A    between atoms: N_21  and  C_25 
REMARK   13  A    between atoms: C_24  and  C_25 
REMARK   14  A    between atoms: C_25  and  C_26 
REMARK   15  A    between atoms: C_26  and  C_28 
REMARK       I    between atoms: N_27  and  C_28 
ROOT
HETATM    1  O           1     -19.348  -6.922  -6.844  0.00  0.00    -0.271 OA
HETATM    2  C           1     -20.288  -6.947  -6.087  0.00  0.00     0.249 C 
HETATM    3  N           1     -20.361  -7.913  -5.120  0.00  0.00    -0.345 N 
HETATM    4  H           1     -21.149  -7.934  -4.484  0.00  0.00     0.163 HD
ENDROOT
BRANCH   3   5
HETATM    5  C           1     -19.311  -8.905  -5.003  0.00  0.00     0.187 C 
BRANCH   5   6
HETATM    6  C           1     -19.806 -10.226  -5.542  0.00  0.00     0.196 C 
HETATM    7  O           1     -20.957 -10.311  -6.023  0.00  0.00    -0.646 OA
HETATM    8  O           1     -19.066 -11.232  -5.507  0.00  0.00    -0.646 OA
ENDBRANCH   5   6
BRANCH   5   9
HETATM    9  C           1     -18.923  -9.066  -3.539  0.00  0.00     0.066 C 
BRANCH   9  10
HETATM   10  C           1     -20.060  -9.741  -2.783  0.00  0.00     0.273 C 
BRANCH  10  11
HETATM   11  N           1     -20.358  -8.990  -1.593  0.00  0.00     0.099 N 
HETATM   12  H           1     -19.788  -8.144  -1.573  0.00  0.00     0.317 HD
BRANCH  11  13
HETATM   13  C           1     -21.748  -8.629  -1.641  0.00  0.00     0.328 C 
BRANCH  13  14
HETATM   14  C           1     -21.877  -7.126  -1.659  0.00  0.00     0.207 C 
HETATM   15  O           1     -21.164  -6.447  -2.430  0.00  0.00    -0.646 OA
HETATM   16  O           1     -22.697  -6.559  -0.904  0.00  0.00    -0.646 OA
ENDBRANCH  13  14
BRANCH  13  17
HETATM   17  C           1     -22.458  -9.185  -0.413  0.00  0.00     0.149 C 
BRANCH  17  18
HETATM   18  C           1     -21.439  -9.533   0.644  0.00  0.00     0.217 C 
HETATM   19  N           1     -21.072 -10.839   0.837  0.00  0.00    -0.370 N 
HETATM   20  H           1     -20.389 -11.072   1.546  0.00  0.00     0.159 HD
HETATM   21  H           1     -21.485 -11.569   0.272  0.00  0.00     0.159 HD
HETATM   22  O           1     -20.946  -8.661   1.318  0.00  0.00    -0.274 OA
ENDBRANCH  17  18
ENDBRANCH  13  17
ENDBRANCH  11  13
ENDBRANCH  10  11
ENDBRANCH   9  10
ENDBRANCH   5   9
ENDBRANCH   3   5
BRANCH   2  23
HETATM   23  C           1     -21.382  -5.915  -6.207  0.00  0.00     0.274 C 
BRANCH  23  24
HETATM   24  N           1     -22.278  -5.995  -5.006  0.00  0.00    -0.067 N 
HETATM   25  H           1     -22.869  -5.136  -4.955  0.00  0.00     0.275 HD
HETATM   26  H           1     -22.893  -6.837  -5.087  0.00  0.00     0.275 HD
HETATM   27  H           1     -21.696  -6.071  -4.141  0.00  0.00     0.275 HD
ENDBRANCH  23  24
BRANCH  23  28
HETATM   28  C           1     -20.763  -4.525  -6.285  0.00  0.00     0.044 C 
BRANCH  28  29
HETATM   29  C           1     -21.621  -3.635  -7.174  0.00  0.00     0.023 C 
BRANCH  29  30
HETATM   30  C           1     -22.394  -4.497  -8.162  0.00  0.00     0.138 C 
BRANCH  30  31
HETATM   31  N           1     -23.717  -3.903  -8.403  0.00  0.00    -0.227 N 
HETATM   32  C           1     -24.311  -4.102  -9.502  0.00  0.00     0.665 C 
HETATM   33  N           1     -23.751  -4.834 -10.419  0.00  0.00    -0.235 N 
HETATM   34  N           1     -25.450  -3.590  -9.708  0.00  0.00    -0.235 N 
HETATM   35  H           1     -24.240  -4.999 -11.328  0.00  0.00     0.174 HD
HETATM   36  H           1     -22.810  -5.257 -10.249  0.00  0.00     0.174 HD
HETATM   37  H           1     -25.943  -3.756 -10.621  0.00  0.00     0.174 HD
HETATM   38  H           1     -25.903  -3.000  -8.968  0.00  0.00     0.174 HD
HETATM   39  H           1     -24.170  -3.312  -7.661  0.00  0.00     0.177 HD
ENDBRANCH  30  31
ENDBRANCH  29  30
ENDBRANCH  28  29
ENDBRANCH  23  28
ENDBRANCH   2  23
TORSDOF 15
ENDMDL
MODEL 9
REMARK VINA RESULT:      -6.9      2.208      3.240
REMARK  15 active torsions:
REMARK  status: ('A' for Active; 'I' for Inactive)
REMARK    1  A    between atoms: N_4  and  C_12 
REMARK       I    between atoms: N_5  and  C_7 
REMARK       I    between atoms: N_6  and  C_7 
REMARK    2  A    between atoms: N_8  and  C_9 
REMARK    3  A    between atoms: C_9  and  C_10 
REMARK    4  A    between atoms: C_10  and  C_11 
REMARK    5  A    between atoms: C_11  and  C_12 
REMARK    6  A    between atoms: C_12  and  C_13 
REMARK       I    between atoms: C_13  and  N_14 
REMARK    7  A    between atoms: N_14  and  C_18 
REMARK    8  A    between atoms: C_17  and  C_18 
REMARK    9  A    between atoms: C_18  and  C_19 
REMARK   10  A    between atoms: C_19  and  C_20 
REMARK   11  A    between atoms: C_20  and  N_21 
REMARK   12  A    between atoms: N_21  and  C_25 
REMARK   13  A    between atoms: C_24  and  C_25 
REMARK   14  A    between atoms: C_25  and  C_26 
REMARK   15  A    between atoms: C_26  and  C_28 
REMARK       I    between atoms: N_27  and  C_28 
ROOT
HETATM    1  O           1     -22.049  -7.624  -4.725  0.00  0.00    -0.271 OA
HETATM    2  C           1     -21.520  -6.697  -4.158  0.00  0.00     0.249 C 
HETATM    3  N           1     -21.123  -5.597  -4.869  0.00  0.00    -0.345 N 
HETATM    4  H           1     -20.679  -4.821  -4.394  0.00  0.00     0.163 HD
ENDROOT
BRANCH   3   5
HETATM    5  C           1     -21.337  -5.542  -6.301  0.00  0.00     0.187 C 
BRANCH   5   6
HETATM    6  C           1     -20.013  -5.684  -7.013  0.00  0.00     0.196 C 
HETATM    7  O           1     -19.451  -4.675  -7.490  0.00  0.00    -0.646 OA
HETATM    8  O           1     -19.481  -6.809  -7.124  0.00  0.00    -0.646 OA
ENDBRANCH   5   6
BRANCH   5   9
HETATM    9  C           1     -21.973  -4.208  -6.669  0.00  0.00     0.066 C 
BRANCH   9  10
HETATM   10  C           1     -22.680  -4.334  -8.012  0.00  0.00     0.273 C 
BRANCH  10  11
HETATM   11  N           1     -22.145  -3.364  -8.930  0.00  0.00     0.099 N 
HETATM   12  H           1     -21.193  -3.122  -8.652  0.00  0.00     0.317 HD
BRANCH  11  13
HETATM   13  C           1     -22.126  -3.963 -10.236  0.00  0.00     0.328 C 
BRANCH  13  14
HETATM   14  C           1     -20.733  -3.874 -10.810  0.00  0.00     0.207 C 
HETATM   15  O           1     -20.347  -2.817 -11.354  0.00  0.00    -0.646 OA
HETATM   16  O           1     -19.964  -4.858 -10.739  0.00  0.00    -0.646 OA
ENDBRANCH  13  14
BRANCH  13  17
HETATM   17  C           1     -23.098  -3.224 -11.146  0.00  0.00     0.149 C 
BRANCH  17  18
HETATM   18  C           1     -23.488  -4.118 -12.299  0.00  0.00     0.217 C 
HETATM   19  N           1     -23.457  -3.635 -13.580  0.00  0.00    -0.370 N 
HETATM   20  H           1     -23.718  -4.234 -14.352  0.00  0.00     0.159 HD
HETATM   21  H           1     -23.174  -2.679 -13.754  0.00  0.00     0.159 HD
HETATM   22  O           1     -23.826  -5.259 -12.091  0.00  0.00    -0.274 OA
ENDBRANCH  17  18
ENDBRANCH  13  17
ENDBRANCH  11  13
ENDBRANCH  10  11
ENDBRANCH   9  10
ENDBRANCH   5   9
ENDBRANCH   3   5
BRANCH   2  23
HETATM   23  C           1     -21.295  -6.754  -2.667  0.00  0.00     0.274 C 
BRANCH  23  24
HETATM   24  N           1     -22.327  -5.912  -1.975  0.00  0.00    -0.067 N 
HETATM   25  H           1     -23.274  -6.323  -2.132  0.00  0.00     0.275 HD
HETATM   26  H           1     -22.123  -5.887  -0.950  0.00  0.00     0.275 HD
HETATM   27  H           1     -22.299  -4.940  -2.360  0.00  0.00     0.275 HD
ENDBRANCH  23  24
BRANCH  23  28
HETATM   28  C           1     -21.415  -8.195  -2.190  0.00  0.00     0.044 C 
BRANCH  28  29
HETATM   29  C           1     -20.024  -8.783  -1.990  0.00  0.00     0.023 C 
BRANCH  29  30
HETATM   30  C           1     -19.830  -9.961  -2.936  0.00  0.00     0.138 C 
BRANCH  30  31
HETATM   31  N           1     -18.831  -9.612  -3.956  0.00  0.00    -0.227 N 
HETATM   32  C           1     -19.148  -9.621  -5.182  0.00  0.00     0.665 C 
HETATM   33  N           1     -20.357  -9.939  -5.537  0.00  0.00    -0.235 N 
HETATM   34  N           1     -18.288  -9.319  -6.060  0.00  0.00    -0.235 N 
HETATM   35  H           1     -20.619  -9.947  -6.549  0.00  0.00     0.174 HD
HETATM   36  H           1     -21.068 -10.187  -4.813  0.00  0.00     0.174 HD
HETATM   37  H           1     -18.551  -9.327  -7.077  0.00  0.00     0.174 HD
HETATM   38  H           1     -17.311  -9.062  -5.773  0.00  0.00     0.174 HD
HETATM   39  H           1     -17.855  -9.353  -3.668  0.00  0.00     0.177 HD
ENDBRANCH  30  31
ENDBRANCH  29  30
ENDBRANCH  28  29
ENDBRANCH  23  28
ENDBRANCH   2  23
TORSDOF 15
ENDMDL
