MODEL 1
REMARK VINA RESULT:      -6.7      0.000      0.000
REMARK  9 active torsions:
REMARK  status: ('A' for Active; 'I' for Inactive)
REMARK       I    between atoms: N_1  and  C_13 
REMARK    1  A    between atoms: N_3  and  C_22 
REMARK    2  A    between atoms: C_5  and  C_16 
REMARK    3  A    between atoms: C_5  and  C_6 
REMARK    4  A    between atoms: C_5  and  N_24 
REMARK    5  A    between atoms: C_13  and  C_18 
REMARK    6  A    between atoms: C_16  and  C_20 
REMARK    7  A    between atoms: C_18  and  C_19 
REMARK    8  A    between atoms: C_19  and  C_22 
REMARK    9  A    between atoms: C_22  and  C_23 
REMARK       I    between atoms: C_23  and  N_24 
ROOT
HETATM    1  C           1     -34.247  -4.044 -12.467  0.00  0.00     0.275 C 
ENDROOT
BRANCH   1   2
HETATM    2  N           1     -33.588  -4.121 -13.812  0.00  0.00    -0.066 N 
HETATM    3  H           1     -33.930  -4.968 -14.321  0.00  0.00     0.275 HD
HETATM    4  H           1     -33.823  -3.266 -14.364  0.00  0.00     0.275 HD
HETATM    5  H           1     -32.552  -4.185 -13.689  0.00  0.00     0.275 HD
ENDBRANCH   1   2
BRANCH   1   6
HETATM    6  C           1     -33.404  -4.795 -11.445  0.00  0.00     0.052 C 
BRANCH   6   7
HETATM    7  C           1     -34.297  -5.292 -10.316  0.00  0.00     0.105 C 
BRANCH   7   8
HETATM    8  C           1     -34.676  -6.731 -10.568  0.00  0.00     0.215 C 
HETATM    9  N           1     -35.072  -7.125 -11.817  0.00  0.00    -0.370 N 
HETATM   10  H           1     -35.326  -8.090 -11.986  0.00  0.00     0.159 HD
HETATM   11  H           1     -35.112  -6.452 -12.571  0.00  0.00     0.159 HD
HETATM   12  O           1     -34.629  -7.534  -9.667  0.00  0.00    -0.274 OA
ENDBRANCH   7   8
ENDBRANCH   6   7
ENDBRANCH   1   6
BRANCH   1  13
HETATM   13  C           1     -34.372  -2.599 -12.052  0.00  0.00     0.249 C 
HETATM   14  O           1     -33.576  -2.121 -11.280  0.00  0.00    -0.271 OA
HETATM   15  N           1     -35.389  -1.829 -12.550  0.00  0.00    -0.344 N 
HETATM   16  H           1     -36.056  -2.229 -13.197  0.00  0.00     0.163 HD
BRANCH  15  17
HETATM   17  C           1     -35.509  -0.440 -12.151  0.00  0.00     0.189 C 
BRANCH  17  18
HETATM   18  C           1     -35.795   0.417 -13.378  0.00  0.00     0.014 C 
HETATM   19  C           1     -34.526   1.152 -13.788  0.00  0.00     0.012 C 
BRANCH  18  20
HETATM   20  C           1     -36.258  -0.475 -14.522  0.00  0.00     0.002 C 
HETATM   21  C           1     -37.368   0.225 -15.295  0.00  0.00     0.005 C 
ENDBRANCH  18  20
ENDBRANCH  17  18
BRANCH  17  22
HETATM   22  C           1     -36.642  -0.298 -11.164  0.00  0.00     0.197 C 
HETATM   23  O           1     -37.652  -1.027 -11.263  0.00  0.00    -0.646 OA
HETATM   24  O           1     -36.570   0.549 -10.247  0.00  0.00    -0.646 OA
ENDBRANCH  17  22
ENDBRANCH  15  17
ENDBRANCH   1  13
TORSDOF 9
ENDMDL
MODEL 2
REMARK VINA RESULT:      -6.6     12.548     14.207
REMARK  9 active torsions:
REMARK  status: ('A' for Active; 'I' for Inactive)
REMARK       I    between atoms: N_1  and  C_13 
REMARK    1  A    between atoms: N_3  and  C_22 
REMARK    2  A    between atoms: C_5  and  C_16 
REMARK    3  A    between atoms: C_5  and  C_6 
REMARK    4  A    between atoms: C_5  and  N_24 
REMARK    5  A    between atoms: C_13  and  C_18 
REMARK    6  A    between atoms: C_16  and  C_20 
REMARK    7  A    between atoms: C_18  and  C_19 
REMARK    8  A    between atoms: C_19  and  C_22 
REMARK    9  A    between atoms: C_22  and  C_23 
REMARK       I    between atoms: C_23  and  N_24 
ROOT
HETATM    1  C           1     -21.263  -5.863  -6.976  0.00  0.00     0.275 C 
ENDROOT
BRANCH   1   2
HETATM    2  N           1     -19.839  -6.123  -7.366  0.00  0.00    -0.066 N 
HETATM    3  H           1     -19.285  -5.241  -7.277  0.00  0.00     0.275 HD
HETATM    4  H           1     -19.433  -6.852  -6.737  0.00  0.00     0.275 HD
HETATM    5  H           1     -19.803  -6.457  -8.356  0.00  0.00     0.275 HD
ENDBRANCH   1   2
BRANCH   1   6
HETATM    6  C           1     -21.327  -5.518  -5.494  0.00  0.00     0.052 C 
BRANCH   6   7
HETATM    7  C           1     -22.162  -6.561  -4.764  0.00  0.00     0.105 C 
BRANCH   7   8
HETATM    8  C           1     -21.731  -6.633  -3.320  0.00  0.00     0.215 C 
HETATM    9  N           1     -22.359  -5.864  -2.379  0.00  0.00    -0.370 N 
HETATM   10  H           1     -22.070  -5.912  -1.411  0.00  0.00     0.159 HD
HETATM   11  H           1     -23.112  -5.246  -2.651  0.00  0.00     0.159 HD
HETATM   12  O           1     -20.831  -7.370  -2.995  0.00  0.00    -0.274 OA
ENDBRANCH   7   8
ENDBRANCH   6   7
ENDBRANCH   1   6
BRANCH   1  13
HETATM   13  C           1     -21.803  -4.710  -7.785  0.00  0.00     0.249 C 
HETATM   14  O           1     -21.728  -3.583  -7.356  0.00  0.00    -0.271 OA
HETATM   15  N           1     -22.377  -4.940  -9.006  0.00  0.00    -0.344 N 
HETATM   16  H           1     -22.439  -5.884  -9.366  0.00  0.00     0.163 HD
BRANCH  15  17
HETATM   17  C           1     -22.895  -3.832  -9.785  0.00  0.00     0.189 C 
BRANCH  17  18
HETATM   18  C           1     -22.488  -4.001 -11.243  0.00  0.00     0.014 C 
HETATM   19  C           1     -22.807  -2.725 -12.009  0.00  0.00     0.012 C 
BRANCH  18  20
HETATM   20  C           1     -20.994  -4.282 -11.322  0.00  0.00     0.002 C 
HETATM   21  C           1     -20.221  -2.987 -11.109  0.00  0.00     0.005 C 
ENDBRANCH  18  20
ENDBRANCH  17  18
BRANCH  17  22
HETATM   22  C           1     -24.401  -3.808  -9.682  0.00  0.00     0.197 C 
HETATM   23  O           1     -25.055  -4.861  -9.843  0.00  0.00    -0.646 OA
HETATM   24  O           1     -24.994  -2.735  -9.437  0.00  0.00    -0.646 OA
ENDBRANCH  17  22
ENDBRANCH  15  17
ENDBRANCH   1  13
TORSDOF 9
ENDMDL
MODEL 3
REMARK VINA RESULT:      -6.6      3.954      5.714
REMARK  9 active torsions:
REMARK  status: ('A' for Active; 'I' for Inactive)
REMARK       I    between atoms: N_1  and  C_13 
REMARK    1  A    between atoms: N_3  and  C_22 
REMARK    2  A    between atoms: C_5  and  C_16 
REMARK    3  A    between atoms: C_5  and  C_6 
REMARK    4  A    between atoms: C_5  and  N_24 
REMARK    5  A    between atoms: C_13  and  C_18 
REMARK    6  A    between atoms: C_16  and  C_20 
REMARK    7  A    between atoms: C_18  and  C_19 
REMARK    8  A    between atoms: C_19  and  C_22 
REMARK    9  A    between atoms: C_22  and  C_23 
REMARK       I    between atoms: C_23  and  N_24 
ROOT
HETATM    1  C           1     -33.072  -4.492 -16.655  0.00  0.00     0.275 C 
ENDROOT
BRANCH   1   2
HETATM    2  N           1     -33.170  -3.140 -17.295  0.00  0.00    -0.066 N 
HETATM    3  H           1     -34.016  -2.643 -16.934  0.00  0.00     0.275 HD
HETATM    4  H           1     -32.316  -2.583 -17.065  0.00  0.00     0.275 HD
HETATM    5  H           1     -33.248  -3.249 -18.331  0.00  0.00     0.275 HD
ENDBRANCH   1   2
BRANCH   1   6
HETATM    6  C           1     -31.623  -4.768 -16.274  0.00  0.00     0.052 C 
BRANCH   6   7
HETATM    7  C           1     -31.047  -5.830 -17.200  0.00  0.00     0.105 C 
BRANCH   7   8
HETATM    8  C           1     -29.774  -6.382 -16.605  0.00  0.00     0.215 C 
HETATM    9  N           1     -29.208  -7.512 -17.129  0.00  0.00    -0.370 N 
HETATM   10  H           1     -28.355  -7.882 -16.730  0.00  0.00     0.159 HD
HETATM   11  H           1     -29.642  -7.979 -17.914  0.00  0.00     0.159 HD
HETATM   12  O           1     -29.256  -5.825 -15.667  0.00  0.00    -0.274 OA
ENDBRANCH   7   8
ENDBRANCH   6   7
ENDBRANCH   1   6
BRANCH   1  13
HETATM   13  C           1     -33.933  -4.526 -15.417  0.00  0.00     0.249 C 
HETATM   14  O           1     -35.036  -5.015 -15.462  0.00  0.00    -0.271 OA
HETATM   15  N           1     -33.464  -4.003 -14.242  0.00  0.00    -0.344 N 
HETATM   16  H           1     -32.539  -3.595 -14.204  0.00  0.00     0.163 HD
BRANCH  15  17
HETATM   17  C           1     -34.291  -4.036 -13.051  0.00  0.00     0.189 C 
BRANCH  17  18
HETATM   18  C           1     -33.418  -4.316 -11.835  0.00  0.00     0.014 C 
HETATM   19  C           1     -32.846  -3.005 -11.310  0.00  0.00     0.012 C 
BRANCH  18  20
HETATM   20  C           1     -34.258  -4.974 -10.749  0.00  0.00     0.002 C 
HETATM   21  C           1     -34.046  -6.482 -10.786  0.00  0.00     0.005 C 
ENDBRANCH  18  20
ENDBRANCH  17  18
BRANCH  17  22
HETATM   22  C           1     -34.979  -2.704 -12.881  0.00  0.00     0.197 C 
HETATM   23  O           1     -35.778  -2.529 -11.935  0.00  0.00    -0.646 OA
HETATM   24  O           1     -34.751  -1.775 -13.686  0.00  0.00    -0.646 OA
ENDBRANCH  17  22
ENDBRANCH  15  17
ENDBRANCH   1  13
TORSDOF 9
ENDMDL
MODEL 4
REMARK VINA RESULT:      -6.1     14.196     16.925
REMARK  9 active torsions:
REMARK  status: ('A' for Active; 'I' for Inactive)
REMARK       I    between atoms: N_1  and  C_13 
REMARK    1  A    between atoms: N_3  and  C_22 
REMARK    2  A    between atoms: C_5  and  C_16 
REMARK    3  A    between atoms: C_5  and  C_6 
REMARK    4  A    between atoms: C_5  and  N_24 
REMARK    5  A    between atoms: C_13  and  C_18 
REMARK    6  A    between atoms: C_16  and  C_20 
REMARK    7  A    between atoms: C_18  and  C_19 
REMARK    8  A    between atoms: C_19  and  C_22 
REMARK    9  A    between atoms: C_22  and  C_23 
REMARK       I    between atoms: C_23  and  N_24 
ROOT
HETATM    1  C           1     -20.425  -5.069  -6.427  0.00  0.00     0.275 C 
ENDROOT
BRANCH   1   2
HETATM    2  N           1     -19.966  -5.906  -7.583  0.00  0.00    -0.066 N 
HETATM    3  H           1     -19.376  -6.694  -7.231  0.00  0.00     0.275 HD
HETATM    4  H           1     -20.798  -6.293  -8.084  0.00  0.00     0.275 HD
HETATM    5  H           1     -19.405  -5.318  -8.239  0.00  0.00     0.275 HD
ENDBRANCH   1   2
BRANCH   1   6
HETATM    6  C           1     -21.225  -3.881  -6.947  0.00  0.00     0.052 C 
BRANCH   6   7
HETATM    7  C           1     -21.398  -4.006  -8.455  0.00  0.00     0.105 C 
BRANCH   7   8
HETATM    8  C           1     -22.863  -3.913  -8.804  0.00  0.00     0.215 C 
HETATM    9  N           1     -23.812  -4.136  -7.842  0.00  0.00    -0.370 N 
HETATM   10  H           1     -24.794  -4.074  -8.077  0.00  0.00     0.159 HD
HETATM   11  H           1     -23.531  -4.364  -6.898  0.00  0.00     0.159 HD
HETATM   12  O           1     -23.199  -3.641  -9.932  0.00  0.00    -0.274 OA
ENDBRANCH   7   8
ENDBRANCH   6   7
ENDBRANCH   1   6
BRANCH   1  13
HETATM   13  C           1     -21.294  -5.901  -5.517  0.00  0.00     0.249 C 
HETATM   14  O           1     -22.497  -5.811  -5.582  0.00  0.00    -0.271 OA
HETATM   15  N           1     -20.720  -6.758  -4.617  0.00  0.00    -0.344 N 
HETATM   16  H           1     -19.712  -6.833  -4.563  0.00  0.00     0.163 HD
BRANCH  15  17
HETATM   17  C           1     -21.555  -7.559  -3.743  0.00  0.00     0.189 C 
BRANCH  17  18
HETATM   18  C           1     -20.927  -8.934  -3.562  0.00  0.00     0.014 C 
HETATM   19  C           1     -21.779  -9.977  -4.272  0.00  0.00     0.012 C 
BRANCH  18  20
HETATM   20  C           1     -19.525  -8.933  -4.156  0.00  0.00     0.002 C 
HETATM   21  C           1     -18.523  -9.375  -3.098  0.00  0.00     0.005 C 
ENDBRANCH  18  20
ENDBRANCH  17  18
BRANCH  17  22
HETATM   22  C           1     -21.673  -6.879  -2.401  0.00  0.00     0.197 C 
HETATM   23  O           1     -21.043  -7.325  -1.417  0.00  0.00    -0.646 OA
HETATM   24  O           1     -22.399  -5.870  -2.272  0.00  0.00    -0.646 OA
ENDBRANCH  17  22
ENDBRANCH  15  17
ENDBRANCH   1  13
TORSDOF 9
ENDMDL
MODEL 5
REMARK VINA RESULT:      -6.1     13.637     16.437
REMARK  9 active torsions:
REMARK  status: ('A' for Active; 'I' for Inactive)
REMARK       I    between atoms: N_1  and  C_13 
REMARK    1  A    between atoms: N_3  and  C_22 
REMARK    2  A    between atoms: C_5  and  C_16 
REMARK    3  A    between atoms: C_5  and  C_6 
REMARK    4  A    between atoms: C_5  and  N_24 
REMARK    5  A    between atoms: C_13  and  C_18 
REMARK    6  A    between atoms: C_16  and  C_20 
REMARK    7  A    between atoms: C_18  and  C_19 
REMARK    8  A    between atoms: C_19  and  C_22 
REMARK    9  A    between atoms: C_22  and  C_23 
REMARK       I    between atoms: C_23  and  N_24 
ROOT
HETATM    1  C           1     -21.979  -4.483  -7.047  0.00  0.00     0.275 C 
ENDROOT
BRANCH   1   2
HETATM    2  N           1     -21.544  -3.048  -7.012  0.00  0.00    -0.066 N 
HETATM    3  H           1     -20.643  -2.969  -6.487  0.00  0.00     0.275 HD
HETATM    4  H           1     -21.408  -2.701  -7.988  0.00  0.00     0.275 HD
HETATM    5  H           1     -22.275  -2.473  -6.535  0.00  0.00     0.275 HD
ENDBRANCH   1   2
BRANCH   1   6
HETATM    6  C           1     -21.933  -4.990  -8.483  0.00  0.00     0.052 C 
BRANCH   6   7
HETATM    7  C           1     -22.265  -3.851  -9.436  0.00  0.00     0.105 C 
BRANCH   7   8
HETATM    8  C           1     -23.718  -3.936  -9.838  0.00  0.00     0.215 C 
HETATM    9  N           1     -24.671  -3.287  -9.102  0.00  0.00    -0.370 N 
HETATM   10  H           1     -25.644  -3.345  -9.371  0.00  0.00     0.159 HD
HETATM   11  H           1     -24.403  -2.751  -8.287  0.00  0.00     0.159 HD
HETATM   12  O           1     -24.038  -4.578 -10.811  0.00  0.00    -0.274 OA
ENDBRANCH   7   8
ENDBRANCH   6   7
ENDBRANCH   1   6
BRANCH   1  13
HETATM   13  C           1     -21.052  -5.310  -6.192  0.00  0.00     0.249 C 
HETATM   14  O           1     -19.874  -5.048  -6.148  0.00  0.00    -0.271 OA
HETATM   15  N           1     -21.547  -6.358  -5.463  0.00  0.00    -0.344 N 
HETATM   16  H           1     -22.534  -6.577  -5.499  0.00  0.00     0.163 HD
BRANCH  15  17
HETATM   17  C           1     -20.657  -7.153  -4.639  0.00  0.00     0.189 C 
BRANCH  17  18
HETATM   18  C           1     -21.364  -7.529  -3.344  0.00  0.00     0.014 C 
HETATM   19  C           1     -20.381  -8.229  -2.415  0.00  0.00     0.012 C 
BRANCH  18  20
HETATM   20  C           1     -21.891  -6.269  -2.671  0.00  0.00     0.002 C 
HETATM   21  C           1     -22.313  -6.592  -1.244  0.00  0.00     0.005 C 
ENDBRANCH  18  20
ENDBRANCH  17  18
BRANCH  17  22
HETATM   22  C           1     -20.272  -8.408  -5.384  0.00  0.00     0.197 C 
HETATM   23  O           1     -19.074  -8.619  -5.675  0.00  0.00    -0.646 OA
HETATM   24  O           1     -21.149  -9.236  -5.710  0.00  0.00    -0.646 OA
ENDBRANCH  17  22
ENDBRANCH  15  17
ENDBRANCH   1  13
TORSDOF 9
ENDMDL
MODEL 6
REMARK VINA RESULT:      -5.6      8.494     10.791
REMARK  9 active torsions:
REMARK  status: ('A' for Active; 'I' for Inactive)
REMARK       I    between atoms: N_1  and  C_13 
REMARK    1  A    between atoms: N_3  and  C_22 
REMARK    2  A    between atoms: C_5  and  C_16 
REMARK    3  A    between atoms: C_5  and  C_6 
REMARK    4  A    between atoms: C_5  and  N_24 
REMARK    5  A    between atoms: C_13  and  C_18 
REMARK    6  A    between atoms: C_16  and  C_20 
REMARK    7  A    between atoms: C_18  and  C_19 
REMARK    8  A    between atoms: C_19  and  C_22 
REMARK    9  A    between atoms: C_22  and  C_23 
REMARK       I    between atoms: C_23  and  N_24 
ROOT
HETATM    1  C           1     -30.173  -6.391 -16.281  0.00  0.00     0.275 C 
ENDROOT
BRANCH   1   2
HETATM    2  N           1     -29.880  -5.553 -15.072  0.00  0.00    -0.066 N 
HETATM    3  H           1     -30.554  -4.755 -15.028  0.00  0.00     0.275 HD
HETATM    4  H           1     -29.978  -6.138 -14.212  0.00  0.00     0.275 HD
HETATM    5  H           1     -28.905  -5.181 -15.133  0.00  0.00     0.275 HD
ENDBRANCH   1   2
BRANCH   1   6
HETATM    6  C           1     -30.729  -5.505 -17.388  0.00  0.00     0.052 C 
BRANCH   6   7
HETATM    7  C           1     -32.128  -5.036 -17.010  0.00  0.00     0.105 C 
BRANCH   7   8
HETATM    8  C           1     -32.286  -3.579 -17.371  0.00  0.00     0.215 C 
HETATM    9  N           1     -33.534  -3.019 -17.423  0.00  0.00    -0.370 N 
HETATM   10  H           1     -33.639  -2.042 -17.665  0.00  0.00     0.159 HD
HETATM   11  H           1     -34.350  -3.581 -17.221  0.00  0.00     0.159 HD
HETATM   12  O           1     -31.311  -2.908 -17.612  0.00  0.00    -0.274 OA
ENDBRANCH   7   8
ENDBRANCH   6   7
ENDBRANCH   1   6
BRANCH   1  13
HETATM   13  C           1     -28.902  -7.050 -16.755  0.00  0.00     0.249 C 
HETATM   14  O           1     -28.892  -8.231 -17.008  0.00  0.00    -0.271 OA
HETATM   15  N           1     -27.759  -6.310 -16.899  0.00  0.00    -0.344 N 
HETATM   16  H           1     -27.768  -5.320 -16.687  0.00  0.00     0.163 HD
BRANCH  15  17
HETATM   17  C           1     -26.537  -6.943 -17.356  0.00  0.00     0.189 C 
BRANCH  17  18
HETATM   18  C           1     -26.076  -6.283 -18.649  0.00  0.00     0.014 C 
HETATM   19  C           1     -24.762  -6.910 -19.096  0.00  0.00     0.012 C 
BRANCH  18  20
HETATM   20  C           1     -27.131  -6.490 -19.727  0.00  0.00     0.002 C 
HETATM   21  C           1     -26.672  -7.581 -20.685  0.00  0.00     0.005 C 
ENDBRANCH  18  20
ENDBRANCH  17  18
BRANCH  17  22
HETATM   22  C           1     -25.467  -6.787 -16.302  0.00  0.00     0.197 C 
HETATM   23  O           1     -24.862  -7.794 -15.872  0.00  0.00    -0.646 OA
HETATM   24  O           1     -25.187  -5.653 -15.859  0.00  0.00    -0.646 OA
ENDBRANCH  17  22
ENDBRANCH  15  17
ENDBRANCH   1  13
TORSDOF 9
ENDMDL
MODEL 7
REMARK VINA RESULT:      -5.4     15.469     18.030
REMARK  9 active torsions:
REMARK  status: ('A' for Active; 'I' for Inactive)
REMARK       I    between atoms: N_1  and  C_13 
REMARK    1  A    between atoms: N_3  and  C_22 
REMARK    2  A    between atoms: C_5  and  C_16 
REMARK    3  A    between atoms: C_5  and  C_6 
REMARK    4  A    between atoms: C_5  and  N_24 
REMARK    5  A    between atoms: C_13  and  C_18 
REMARK    6  A    between atoms: C_16  and  C_20 
REMARK    7  A    between atoms: C_18  and  C_19 
REMARK    8  A    between atoms: C_19  and  C_22 
REMARK    9  A    between atoms: C_22  and  C_23 
REMARK       I    between atoms: C_23  and  N_24 
ROOT
HETATM    1  C           1     -21.292  -7.117  -5.627  0.00  0.00     0.275 C 
ENDROOT
BRANCH   1   2
HETATM    2  N           1     -22.332  -6.134  -5.180  0.00  0.00    -0.066 N 
HETATM    3  H           1     -21.899  -5.438  -4.531  0.00  0.00     0.275 HD
HETATM    4  H           1     -22.720  -5.636  -6.013  0.00  0.00     0.275 HD
HETATM    5  H           1     -23.100  -6.640  -4.685  0.00  0.00     0.275 HD
ENDBRANCH   1   2
BRANCH   1   6
HETATM    6  C           1     -20.197  -6.384  -6.392  0.00  0.00     0.052 C 
BRANCH   6   7
HETATM    7  C           1     -20.206  -4.911  -6.006  0.00  0.00     0.105 C 
BRANCH   7   8
HETATM    8  C           1     -20.618  -4.080  -7.197  0.00  0.00     0.215 C 
HETATM    9  N           1     -19.719  -3.821  -8.195  0.00  0.00    -0.370 N 
HETATM   10  H           1     -19.995  -3.264  -8.993  0.00  0.00     0.159 HD
HETATM   11  H           1     -18.777  -4.185  -8.134  0.00  0.00     0.159 HD
HETATM   12  O           1     -21.743  -3.645  -7.269  0.00  0.00    -0.274 OA
ENDBRANCH   7   8
ENDBRANCH   6   7
ENDBRANCH   1   6
BRANCH   1  13
HETATM   13  C           1     -20.693  -7.799  -4.422  0.00  0.00     0.249 C 
HETATM   14  O           1     -19.580  -8.263  -4.481  0.00  0.00    -0.271 OA
HETATM   15  N           1     -21.412  -7.891  -3.261  0.00  0.00    -0.344 N 
HETATM   16  H           1     -22.345  -7.502  -3.211  0.00  0.00     0.163 HD
BRANCH  15  17
HETATM   17  C           1     -20.837  -8.546  -2.101  0.00  0.00     0.189 C 
BRANCH  17  18
HETATM   18  C           1     -21.264  -7.808  -0.839  0.00  0.00     0.014 C 
HETATM   19  C           1     -22.266  -6.721  -1.202  0.00  0.00     0.012 C 
BRANCH  18  20
HETATM   20  C           1     -21.910  -8.792   0.128  0.00  0.00     0.002 C 
HETATM   21  C           1     -23.230  -8.220   0.630  0.00  0.00     0.005 C 
ENDBRANCH  18  20
ENDBRANCH  17  18
BRANCH  17  22
HETATM   22  C           1     -21.323  -9.973  -2.039  0.00  0.00     0.197 C 
HETATM   23  O           1     -22.466 -10.263  -2.456  0.00  0.00    -0.646 OA
HETATM   24  O           1     -20.584 -10.866  -1.571  0.00  0.00    -0.646 OA
ENDBRANCH  17  22
ENDBRANCH  15  17
ENDBRANCH   1  13
TORSDOF 9
ENDMDL
MODEL 8
REMARK VINA RESULT:      -5.4     16.455     18.718
REMARK  9 active torsions:
REMARK  status: ('A' for Active; 'I' for Inactive)
REMARK       I    between atoms: N_1  and  C_13 
REMARK    1  A    between atoms: N_3  and  C_22 
REMARK    2  A    between atoms: C_5  and  C_16 
REMARK    3  A    between atoms: C_5  and  C_6 
REMARK    4  A    between atoms: C_5  and  N_24 
REMARK    5  A    between atoms: C_13  and  C_18 
REMARK    6  A    between atoms: C_16  and  C_20 
REMARK    7  A    between atoms: C_18  and  C_19 
REMARK    8  A    between atoms: C_19  and  C_22 
REMARK    9  A    between atoms: C_22  and  C_23 
REMARK       I    between atoms: C_23  and  N_24 
ROOT
HETATM    1  C           1     -21.969  -6.665  -3.001  0.00  0.00     0.275 C 
ENDROOT
BRANCH   1   2
HETATM    2  N           1     -22.274  -5.765  -1.842  0.00  0.00    -0.066 N 
HETATM    3  H           1     -21.958  -6.218  -0.954  0.00  0.00     0.275 HD
HETATM    4  H           1     -21.772  -4.856  -1.966  0.00  0.00     0.275 HD
HETATM    5  H           1     -23.304  -5.592  -1.796  0.00  0.00     0.275 HD
ENDBRANCH   1   2
BRANCH   1   6
HETATM    6  C           1     -21.107  -5.918  -4.010  0.00  0.00     0.052 C 
BRANCH   6   7
HETATM    7  C           1     -21.522  -6.309  -5.422  0.00  0.00     0.105 C 
BRANCH   7   8
HETATM    8  C           1     -20.335  -6.885  -6.156  0.00  0.00     0.215 C 
HETATM    9  N           1     -19.727  -8.019  -5.691  0.00  0.00    -0.370 N 
HETATM   10  H           1     -18.931  -8.404  -6.183  0.00  0.00     0.159 HD
HETATM   11  H           1     -20.072  -8.471  -4.854  0.00  0.00     0.159 HD
HETATM   12  O           1     -19.923  -6.344  -7.154  0.00  0.00    -0.274 OA
ENDBRANCH   7   8
ENDBRANCH   6   7
ENDBRANCH   1   6
BRANCH   1  13
HETATM   13  C           1     -21.228  -7.883  -2.509  0.00  0.00     0.249 C 
HETATM   14  O           1     -20.020  -7.902  -2.522  0.00  0.00    -0.271 OA
HETATM   15  N           1     -21.924  -8.969  -2.048  0.00  0.00    -0.344 N 
HETATM   16  H           1     -22.935  -8.953  -2.037  0.00  0.00     0.163 HD
BRANCH  15  17
HETATM   17  C           1     -21.211 -10.140  -1.575  0.00  0.00     0.189 C 
BRANCH  17  18
HETATM   18  C           1     -21.771 -10.561  -0.222  0.00  0.00     0.014 C 
HETATM   19  C           1     -20.905  -9.979   0.887  0.00  0.00     0.012 C 
BRANCH  18  20
HETATM   20  C           1     -23.196 -10.043  -0.080  0.00  0.00     0.002 C 
HETATM   21  C           1     -24.172 -11.209  -0.167  0.00  0.00     0.005 C 
ENDBRANCH  18  20
ENDBRANCH  17  18
BRANCH  17  22
HETATM   22  C           1     -21.384 -11.266  -2.564  0.00  0.00     0.197 C 
HETATM   23  O           1     -20.720 -12.318  -2.436  0.00  0.00    -0.646 OA
HETATM   24  O           1     -22.190 -11.148  -3.512  0.00  0.00    -0.646 OA
ENDBRANCH  17  22
ENDBRANCH  15  17
ENDBRANCH   1  13
TORSDOF 9
ENDMDL
MODEL 9
REMARK VINA RESULT:      -5.4     14.831     17.096
REMARK  9 active torsions:
REMARK  status: ('A' for Active; 'I' for Inactive)
REMARK       I    between atoms: N_1  and  C_13 
REMARK    1  A    between atoms: N_3  and  C_22 
REMARK    2  A    between atoms: C_5  and  C_16 
REMARK    3  A    between atoms: C_5  and  C_6 
REMARK    4  A    between atoms: C_5  and  N_24 
REMARK    5  A    between atoms: C_13  and  C_18 
REMARK    6  A    between atoms: C_16  and  C_20 
REMARK    7  A    between atoms: C_18  and  C_19 
REMARK    8  A    between atoms: C_19  and  C_22 
REMARK    9  A    between atoms: C_22  and  C_23 
REMARK       I    between atoms: C_23  and  N_24 
ROOT
HETATM    1  C           1     -21.682  -5.621  -6.798  0.00  0.00     0.275 C 
ENDROOT
BRANCH   1   2
HETATM    2  N           1     -22.923  -5.248  -6.044  0.00  0.00    -0.066 N 
HETATM    3  H           1     -23.707  -5.089  -6.717  0.00  0.00     0.275 HD
HETATM    4  H           1     -23.179  -6.023  -5.391  0.00  0.00     0.275 HD
HETATM    5  H           1     -22.750  -4.374  -5.498  0.00  0.00     0.275 HD
ENDBRANCH   1   2
BRANCH   1   6
HETATM    6  C           1     -20.788  -4.396  -6.941  0.00  0.00     0.052 C 
BRANCH   6   7
HETATM    7  C           1     -21.283  -3.537  -8.096  0.00  0.00     0.105 C 
BRANCH   7   8
HETATM    8  C           1     -21.108  -4.288  -9.394  0.00  0.00     0.215 C 
HETATM    9  N           1     -22.182  -4.491 -10.217  0.00  0.00    -0.370 N 
HETATM   10  H           1     -22.065  -4.994 -11.087  0.00  0.00     0.159 HD
HETATM   11  H           1     -23.094  -4.138  -9.956  0.00  0.00     0.159 HD
HETATM   12  O           1     -20.020  -4.709  -9.705  0.00  0.00    -0.274 OA
ENDBRANCH   7   8
ENDBRANCH   6   7
ENDBRANCH   1   6
BRANCH   1  13
HETATM   13  C           1     -20.941  -6.699  -6.046  0.00  0.00     0.249 C 
HETATM   14  O           1     -19.818  -7.001  -6.372  0.00  0.00    -0.271 OA
HETATM   15  N           1     -21.542  -7.335  -4.993  0.00  0.00    -0.344 N 
HETATM   16  H           1     -22.483  -7.082  -4.720  0.00  0.00     0.163 HD
BRANCH  15  17
HETATM   17  C           1     -20.831  -8.371  -4.270  0.00  0.00     0.189 C 
BRANCH  17  18
HETATM   18  C           1     -21.102  -8.225  -2.778  0.00  0.00     0.014 C 
HETATM   19  C           1     -19.858  -8.626  -1.996  0.00  0.00     0.012 C 
BRANCH  18  20
HETATM   20  C           1     -21.454  -6.777  -2.466  0.00  0.00     0.002 C 
HETATM   21  C           1     -22.311  -6.721  -1.208  0.00  0.00     0.005 C 
ENDBRANCH  18  20
ENDBRANCH  17  18
BRANCH  17  22
HETATM   22  C           1     -21.304  -9.725  -4.737  0.00  0.00     0.197 C 
HETATM   23  O           1     -22.140 -10.363  -4.060  0.00  0.00    -0.646 OA
HETATM   24  O           1     -20.862 -10.210  -5.801  0.00  0.00    -0.646 OA
ENDBRANCH  17  22
ENDBRANCH  15  17
ENDBRANCH   1  13
TORSDOF 9
ENDMDL
