MODEL 1
REMARK VINA RESULT:      -7.6      0.000      0.000
REMARK  10 active torsions:
REMARK  status: ('A' for Active; 'I' for Inactive)
REMARK    1  A    between atoms: C_2  and  C_9 
REMARK    2  A    between atoms: C_9  and  C_10 
REMARK    3  A    between atoms: C_9  and  N_17 
REMARK    4  A    between atoms: C_10  and  C_11 
REMARK       I    between atoms: N_17  and  C_18 
REMARK    5  A    between atoms: C_18  and  C_19 
REMARK    6  A    between atoms: C_19  and  C_20 
REMARK    7  A    between atoms: C_19  and  N_26 
REMARK    8  A    between atoms: C_20  and  O_21 
REMARK    9  A    between atoms: O_21  and  P_22 
REMARK   10  A    between atoms: P_22  and  O_23 
ROOT
HETATM    1  H           1     -33.795  -1.089 -13.406  0.00  0.00     0.163 HD
HETATM    2  N           1     -34.782  -0.886 -13.313  0.00  0.00    -0.344 N 
HETATM    3  C           1     -35.418  -0.129 -14.261  0.00  0.00     0.251 C 
HETATM    4  O           1     -35.470   1.072 -14.139  0.00  0.00    -0.271 OA
ENDROOT
BRANCH   3   5
HETATM    5  C           1     -36.054  -0.796 -15.456  0.00  0.00     0.298 C 
BRANCH   5   6
HETATM    6  C           1     -34.975  -1.474 -16.292  0.00  0.00     0.224 C 
BRANCH   6   7
HETATM    7  O           1     -35.315  -2.819 -16.492  0.00  0.00    -0.287 OA
BRANCH   7   8
HETATM    8  P           1     -34.324  -3.906 -15.827  0.00  0.00     0.406 P 
HETATM    9  O           1     -33.034  -3.906 -16.552  0.00  0.00    -0.624 OA
HETATM   10  O           1     -34.093  -3.560 -14.407  0.00  0.00    -0.624 OA
BRANCH   8  11
HETATM   11  O           1     -34.993  -5.373 -15.921  0.00  0.00    -0.300 OA
HETATM   12  H           1     -34.814  -5.777 -15.089  0.00  0.00     0.223 HD
ENDBRANCH   8  11
ENDBRANCH   7   8
ENDBRANCH   6   7
ENDBRANCH   5   6
BRANCH   5  13
HETATM   13  N           1     -36.754   0.236 -16.289  0.00  0.00    -0.064 N 
HETATM   14  H           1     -36.082   0.643 -16.978  0.00  0.00     0.275 HD
HETATM   15  H           1     -37.549  -0.211 -16.801  0.00  0.00     0.275 HD
HETATM   16  H           1     -37.120   0.994 -15.669  0.00  0.00     0.275 HD
ENDBRANCH   5  13
ENDBRANCH   3   5
BRANCH   2  17
HETATM   17  C           1     -35.525  -1.397 -12.177  0.00  0.00     0.189 C 
BRANCH  17  18
HETATM   18  C           1     -36.524  -0.361 -11.724  0.00  0.00     0.197 C 
HETATM   19  O           1     -36.165   0.560 -10.956  0.00  0.00    -0.646 OA
HETATM   20  O           1     -37.709  -0.421 -12.114  0.00  0.00    -0.646 OA
ENDBRANCH  17  18
BRANCH  17  21
HETATM   21  C           1     -34.561  -1.705 -11.039  0.00  0.00     0.074 C 
BRANCH  21  22
HETATM   22  C           1     -34.191  -3.156 -11.078  0.00  0.00    -0.056 A 
HETATM   23  C           1     -32.924  -3.539 -11.516  0.00  0.00     0.007 A 
HETATM   24  C           1     -32.577  -4.891 -11.551  0.00  0.00     0.001 A 
HETATM   25  C           1     -33.499  -5.857 -11.148  0.00  0.00     0.000 A 
HETATM   26  C           1     -34.765  -5.473 -10.709  0.00  0.00     0.001 A 
HETATM   27  C           1     -35.112  -4.122 -10.673  0.00  0.00     0.007 A 
ENDBRANCH  21  22
ENDBRANCH  17  21
ENDBRANCH   2  17
TORSDOF 10
ENDMDL
MODEL 2
REMARK VINA RESULT:      -7.4      3.358      5.271
REMARK  10 active torsions:
REMARK  status: ('A' for Active; 'I' for Inactive)
REMARK    1  A    between atoms: C_2  and  C_9 
REMARK    2  A    between atoms: C_9  and  C_10 
REMARK    3  A    between atoms: C_9  and  N_17 
REMARK    4  A    between atoms: C_10  and  C_11 
REMARK       I    between atoms: N_17  and  C_18 
REMARK    5  A    between atoms: C_18  and  C_19 
REMARK    6  A    between atoms: C_19  and  C_20 
REMARK    7  A    between atoms: C_19  and  N_26 
REMARK    8  A    between atoms: C_20  and  O_21 
REMARK    9  A    between atoms: O_21  and  P_22 
REMARK   10  A    between atoms: P_22  and  O_23 
ROOT
HETATM    1  H           1     -36.437  -2.078  -9.725  0.00  0.00     0.163 HD
HETATM    2  N           1     -35.797  -1.490 -10.244  0.00  0.00    -0.344 N 
HETATM    3  C           1     -34.508  -1.901 -10.456  0.00  0.00     0.251 C 
HETATM    4  O           1     -33.646  -1.616  -9.659  0.00  0.00    -0.271 OA
ENDROOT
BRANCH   3   5
HETATM    5  C           1     -34.166  -2.708 -11.684  0.00  0.00     0.298 C 
BRANCH   5   6
HETATM    6  C           1     -35.133  -3.879 -11.808  0.00  0.00     0.224 C 
BRANCH   6   7
HETATM    7  O           1     -35.028  -4.694 -10.674  0.00  0.00    -0.287 OA
BRANCH   7   8
HETATM    8  P           1     -34.520  -6.205 -10.932  0.00  0.00     0.406 P 
HETATM    9  O           1     -33.041  -6.225 -10.985  0.00  0.00    -0.624 OA
HETATM   10  O           1     -34.988  -7.078  -9.832  0.00  0.00    -0.624 OA
BRANCH   8  11
HETATM   11  O           1     -35.114  -6.741 -12.335  0.00  0.00    -0.300 OA
HETATM   12  H           1     -36.014  -6.462 -12.342  0.00  0.00     0.223 HD
ENDBRANCH   8  11
ENDBRANCH   7   8
ENDBRANCH   6   7
ENDBRANCH   5   6
BRANCH   5  13
HETATM   13  N           1     -32.765  -3.229 -11.565  0.00  0.00    -0.064 N 
HETATM   14  H           1     -32.560  -3.451 -10.564  0.00  0.00     0.275 HD
HETATM   15  H           1     -32.666  -4.096 -12.140  0.00  0.00     0.275 HD
HETATM   16  H           1     -32.094  -2.505 -11.906  0.00  0.00     0.275 HD
ENDBRANCH   5  13
ENDBRANCH   3   5
BRANCH   2  17
HETATM   17  C           1     -36.245  -0.213 -10.764  0.00  0.00     0.189 C 
BRANCH  17  18
HETATM   18  C           1     -36.851   0.599  -9.646  0.00  0.00     0.197 C 
HETATM   19  O           1     -37.921   1.220  -9.833  0.00  0.00    -0.646 OA
HETATM   20  O           1     -36.286   0.651  -8.532  0.00  0.00    -0.646 OA
ENDBRANCH  17  18
BRANCH  17  21
HETATM   21  C           1     -37.289  -0.444 -11.847  0.00  0.00     0.074 C 
BRANCH  21  22
HETATM   22  C           1     -36.745   0.003 -13.169  0.00  0.00    -0.056 A 
HETATM   23  C           1     -35.432   0.461 -13.263  0.00  0.00     0.007 A 
HETATM   24  C           1     -34.924   0.877 -14.495  0.00  0.00     0.001 A 
HETATM   25  C           1     -35.731   0.833 -15.632  0.00  0.00     0.000 A 
HETATM   26  C           1     -37.044   0.374 -15.537  0.00  0.00     0.001 A 
HETATM   27  C           1     -37.552  -0.042 -14.306  0.00  0.00     0.007 A 
ENDBRANCH  21  22
ENDBRANCH  17  21
ENDBRANCH   2  17
TORSDOF 10
ENDMDL
MODEL 3
REMARK VINA RESULT:      -7.0     14.354     16.494
REMARK  10 active torsions:
REMARK  status: ('A' for Active; 'I' for Inactive)
REMARK    1  A    between atoms: C_2  and  C_9 
REMARK    2  A    between atoms: C_9  and  C_10 
REMARK    3  A    between atoms: C_9  and  N_17 
REMARK    4  A    between atoms: C_10  and  C_11 
REMARK       I    between atoms: N_17  and  C_18 
REMARK    5  A    between atoms: C_18  and  C_19 
REMARK    6  A    between atoms: C_19  and  C_20 
REMARK    7  A    between atoms: C_19  and  N_26 
REMARK    8  A    between atoms: C_20  and  O_21 
REMARK    9  A    between atoms: O_21  and  P_22 
REMARK   10  A    between atoms: P_22  and  O_23 
ROOT
HETATM    1  H           1     -19.392  -7.659  -7.330  0.00  0.00     0.163 HD
HETATM    2  N           1     -19.785  -7.086  -6.594  0.00  0.00    -0.344 N 
HETATM    3  C           1     -20.206  -5.813  -6.868  0.00  0.00     0.251 C 
HETATM    4  O           1     -19.436  -4.887  -6.764  0.00  0.00    -0.271 OA
ENDROOT
BRANCH   3   5
HETATM    5  C           1     -21.630  -5.566  -7.302  0.00  0.00     0.298 C 
BRANCH   5   6
HETATM    6  C           1     -21.636  -4.705  -8.559  0.00  0.00     0.224 C 
BRANCH   6   7
HETATM    7  O           1     -22.671  -3.765  -8.477  0.00  0.00    -0.287 OA
BRANCH   7   8
HETATM    8  P           1     -23.710  -3.746  -9.713  0.00  0.00     0.406 P 
HETATM    9  O           1     -23.069  -3.112 -10.887  0.00  0.00    -0.624 OA
HETATM   10  O           1     -24.100  -5.133 -10.051  0.00  0.00    -0.624 OA
BRANCH   8  11
HETATM   11  O           1     -25.025  -2.903  -9.300  0.00  0.00    -0.300 OA
HETATM   12  H           1     -25.747  -3.381  -9.669  0.00  0.00     0.223 HD
ENDBRANCH   8  11
ENDBRANCH   7   8
ENDBRANCH   6   7
ENDBRANCH   5   6
BRANCH   5  13
HETATM   13  N           1     -22.369  -4.856  -6.208  0.00  0.00    -0.064 N 
HETATM   14  H           1     -23.118  -4.258  -6.624  0.00  0.00     0.275 HD
HETATM   15  H           1     -22.802  -5.560  -5.567  0.00  0.00     0.275 HD
HETATM   16  H           1     -21.703  -4.257  -5.669  0.00  0.00     0.275 HD
ENDBRANCH   5  13
ENDBRANCH   3   5
BRANCH   2  17
HETATM   17  C           1     -19.902  -7.613  -5.248  0.00  0.00     0.189 C 
BRANCH  17  18
HETATM   18  C           1     -19.083  -8.875  -5.130  0.00  0.00     0.197 C 
HETATM   19  O           1     -19.117  -9.730  -6.042  0.00  0.00    -0.646 OA
HETATM   20  O           1     -18.370  -9.067  -4.121  0.00  0.00    -0.646 OA
ENDBRANCH  17  18
BRANCH  17  21
HETATM   21  C           1     -21.362  -7.927  -4.952  0.00  0.00     0.074 C 
BRANCH  21  22
HETATM   22  C           1     -21.640  -7.689  -3.499  0.00  0.00    -0.056 A 
HETATM   23  C           1     -21.613  -8.756  -2.602  0.00  0.00     0.007 A 
HETATM   24  C           1     -21.871  -8.534  -1.248  0.00  0.00     0.001 A 
HETATM   25  C           1     -22.154  -7.246  -0.794  0.00  0.00     0.000 A 
HETATM   26  C           1     -22.180  -6.180  -1.692  0.00  0.00     0.001 A 
HETATM   27  C           1     -21.922  -6.401  -3.045  0.00  0.00     0.007 A 
ENDBRANCH  21  22
ENDBRANCH  17  21
ENDBRANCH   2  17
TORSDOF 10
ENDMDL
MODEL 4
REMARK VINA RESULT:      -6.7     11.564     13.449
REMARK  10 active torsions:
REMARK  status: ('A' for Active; 'I' for Inactive)
REMARK    1  A    between atoms: C_2  and  C_9 
REMARK    2  A    between atoms: C_9  and  C_10 
REMARK    3  A    between atoms: C_9  and  N_17 
REMARK    4  A    between atoms: C_10  and  C_11 
REMARK       I    between atoms: N_17  and  C_18 
REMARK    5  A    between atoms: C_18  and  C_19 
REMARK    6  A    between atoms: C_19  and  C_20 
REMARK    7  A    between atoms: C_19  and  N_26 
REMARK    8  A    between atoms: C_20  and  O_21 
REMARK    9  A    between atoms: O_21  and  P_22 
REMARK   10  A    between atoms: P_22  and  O_23 
ROOT
HETATM    1  H           1     -22.641  -5.664 -10.709  0.00  0.00     0.163 HD
HETATM    2  N           1     -22.351  -4.940 -10.064  0.00  0.00    -0.344 N 
HETATM    3  C           1     -21.179  -4.264 -10.276  0.00  0.00     0.251 C 
HETATM    4  O           1     -20.148  -4.679  -9.800  0.00  0.00    -0.271 OA
ENDROOT
BRANCH   3   5
HETATM    5  C           1     -21.175  -3.002 -11.103  0.00  0.00     0.298 C 
BRANCH   5   6
HETATM    6  C           1     -22.009  -3.216 -12.360  0.00  0.00     0.224 C 
BRANCH   6   7
HETATM    7  O           1     -23.214  -2.510 -12.248  0.00  0.00    -0.287 OA
BRANCH   7   8
HETATM    8  P           1     -24.300  -2.774 -13.413  0.00  0.00     0.406 P 
HETATM    9  O           1     -25.660  -2.787 -12.826  0.00  0.00    -0.624 OA
HETATM   10  O           1     -24.209  -1.698 -14.425  0.00  0.00    -0.624 OA
BRANCH   8  11
HETATM   11  O           1     -24.005  -4.199 -14.113  0.00  0.00    -0.300 OA
HETATM   12  H           1     -24.341  -4.841 -13.511  0.00  0.00     0.223 HD
ENDBRANCH   8  11
ENDBRANCH   7   8
ENDBRANCH   6   7
ENDBRANCH   5   6
BRANCH   5  13
HETATM   13  N           1     -19.767  -2.663 -11.490  0.00  0.00    -0.064 N 
HETATM   14  H           1     -19.560  -1.673 -11.226  0.00  0.00     0.275 HD
HETATM   15  H           1     -19.106  -3.301 -10.991  0.00  0.00     0.275 HD
HETATM   16  H           1     -19.652  -2.779 -12.522  0.00  0.00     0.275 HD
ENDBRANCH   5  13
ENDBRANCH   3   5
BRANCH   2  17
HETATM   17  C           1     -23.175  -4.618  -8.916  0.00  0.00     0.189 C 
BRANCH  17  18
HETATM   18  C           1     -24.416  -3.892  -9.377  0.00  0.00     0.197 C 
HETATM   19  O           1     -24.493  -2.649  -9.259  0.00  0.00    -0.646 OA
HETATM   20  O           1     -25.366  -4.532  -9.877  0.00  0.00    -0.646 OA
ENDBRANCH  17  18
BRANCH  17  21
HETATM   21  C           1     -22.391  -3.727  -7.963  0.00  0.00     0.074 C 
BRANCH  21  22
HETATM   22  C           1     -21.880  -4.547  -6.819  0.00  0.00    -0.056 A 
HETATM   23  C           1     -22.679  -5.549  -6.269  0.00  0.00     0.007 A 
HETATM   24  C           1     -22.203  -6.314  -5.202  0.00  0.00     0.001 A 
HETATM   25  C           1     -20.928  -6.075  -4.688  0.00  0.00     0.000 A 
HETATM   26  C           1     -20.130  -5.074  -5.239  0.00  0.00     0.001 A 
HETATM   27  C           1     -20.606  -4.309  -6.305  0.00  0.00     0.007 A 
ENDBRANCH  21  22
ENDBRANCH  17  21
ENDBRANCH   2  17
TORSDOF 10
ENDMDL
MODEL 5
REMARK VINA RESULT:      -6.6     14.355     16.549
REMARK  10 active torsions:
REMARK  status: ('A' for Active; 'I' for Inactive)
REMARK    1  A    between atoms: C_2  and  C_9 
REMARK    2  A    between atoms: C_9  and  C_10 
REMARK    3  A    between atoms: C_9  and  N_17 
REMARK    4  A    between atoms: C_10  and  C_11 
REMARK       I    between atoms: N_17  and  C_18 
REMARK    5  A    between atoms: C_18  and  C_19 
REMARK    6  A    between atoms: C_19  and  C_20 
REMARK    7  A    between atoms: C_19  and  N_26 
REMARK    8  A    between atoms: C_20  and  O_21 
REMARK    9  A    between atoms: O_21  and  P_22 
REMARK   10  A    between atoms: P_22  and  O_23 
ROOT
HETATM    1  H           1     -21.895  -7.862  -6.529  0.00  0.00     0.163 HD
HETATM    2  N           1     -21.818  -6.875  -6.318  0.00  0.00    -0.344 N 
HETATM    3  C           1     -22.316  -6.386  -5.140  0.00  0.00     0.251 C 
HETATM    4  O           1     -23.460  -5.999  -5.083  0.00  0.00    -0.271 OA
ENDROOT
BRANCH   3   5
HETATM    5  C           1     -21.438  -6.332  -3.914  0.00  0.00     0.298 C 
BRANCH   5   6
HETATM    6  C           1     -20.752  -7.678  -3.721  0.00  0.00     0.224 C 
BRANCH   6   7
HETATM    7  O           1     -21.698  -8.706  -3.831  0.00  0.00    -0.287 OA
BRANCH   7   8
HETATM    8  P           1     -21.177 -10.079  -4.501  0.00  0.00     0.406 P 
HETATM    9  O           1     -20.983  -9.876  -5.954  0.00  0.00    -0.624 OA
HETATM   10  O           1     -19.893 -10.475  -3.881  0.00  0.00    -0.624 OA
BRANCH   8  11
HETATM   11  O           1     -22.271 -11.244  -4.264  0.00  0.00    -0.300 OA
HETATM   12  H           1     -21.943 -11.987  -4.740  0.00  0.00     0.223 HD
ENDBRANCH   8  11
ENDBRANCH   7   8
ENDBRANCH   6   7
ENDBRANCH   5   6
BRANCH   5  13
HETATM   13  N           1     -22.278  -6.023  -2.711  0.00  0.00    -0.064 N 
HETATM   14  H           1     -22.632  -5.041  -2.776  0.00  0.00     0.275 HD
HETATM   15  H           1     -23.089  -6.682  -2.674  0.00  0.00     0.275 HD
HETATM   16  H           1     -21.702  -6.129  -1.847  0.00  0.00     0.275 HD
ENDBRANCH   5  13
ENDBRANCH   3   5
BRANCH   2  17
HETATM   17  C           1     -21.179  -5.978  -7.261  0.00  0.00     0.189 C 
BRANCH  17  18
HETATM   18  C           1     -19.704  -5.892  -6.952  0.00  0.00     0.197 C 
HETATM   19  O           1     -19.132  -4.780  -6.938  0.00  0.00    -0.646 OA
HETATM   20  O           1     -19.054  -6.931  -6.709  0.00  0.00    -0.646 OA
ENDBRANCH  17  18
BRANCH  17  21
HETATM   21  C           1     -21.803  -4.594  -7.147  0.00  0.00     0.074 C 
BRANCH  21  22
HETATM   22  C           1     -22.331  -4.173  -8.483  0.00  0.00    -0.056 A 
HETATM   23  C           1     -21.453  -3.975  -9.549  0.00  0.00     0.007 A 
HETATM   24  C           1     -21.945  -3.583 -10.795  0.00  0.00     0.001 A 
HETATM   25  C           1     -23.315  -3.389 -10.973  0.00  0.00     0.000 A 
HETATM   26  C           1     -24.192  -3.588  -9.908  0.00  0.00     0.001 A 
HETATM   27  C           1     -23.701  -3.980  -8.663  0.00  0.00     0.007 A 
ENDBRANCH  21  22
ENDBRANCH  17  21
ENDBRANCH   2  17
TORSDOF 10
ENDMDL
MODEL 6
REMARK VINA RESULT:      -6.5     10.574     12.393
REMARK  10 active torsions:
REMARK  status: ('A' for Active; 'I' for Inactive)
REMARK    1  A    between atoms: C_2  and  C_9 
REMARK    2  A    between atoms: C_9  and  C_10 
REMARK    3  A    between atoms: C_9  and  N_17 
REMARK    4  A    between atoms: C_10  and  C_11 
REMARK       I    between atoms: N_17  and  C_18 
REMARK    5  A    between atoms: C_18  and  C_19 
REMARK    6  A    between atoms: C_19  and  C_20 
REMARK    7  A    between atoms: C_19  and  N_26 
REMARK    8  A    between atoms: C_20  and  O_21 
REMARK    9  A    between atoms: O_21  and  P_22 
REMARK   10  A    between atoms: P_22  and  O_23 
ROOT
HETATM    1  H           1     -23.131  -6.125 -11.634  0.00  0.00     0.163 HD
HETATM    2  N           1     -23.156  -5.134 -11.431  0.00  0.00    -0.344 N 
HETATM    3  C           1     -23.080  -4.224 -12.452  0.00  0.00     0.251 C 
HETATM    4  O           1     -22.004  -3.815 -12.817  0.00  0.00    -0.271 OA
ENDROOT
BRANCH   3   5
HETATM    5  C           1     -24.341  -3.734 -13.120  0.00  0.00     0.298 C 
BRANCH   5   6
HETATM    6  C           1     -24.516  -4.444 -14.457  0.00  0.00     0.224 C 
BRANCH   6   7
HETATM    7  O           1     -24.954  -5.757 -14.237  0.00  0.00    -0.287 OA
BRANCH   7   8
HETATM    8  P           1     -25.447  -6.567 -15.543  0.00  0.00     0.406 P 
HETATM    9  O           1     -26.631  -7.386 -15.198  0.00  0.00    -0.624 OA
HETATM   10  O           1     -25.805  -5.608 -16.613  0.00  0.00    -0.624 OA
BRANCH   8  11
HETATM   11  O           1     -24.260  -7.532 -16.060  0.00  0.00    -0.300 OA
HETATM   12  H           1     -23.598  -6.949 -16.391  0.00  0.00     0.223 HD
ENDBRANCH   8  11
ENDBRANCH   7   8
ENDBRANCH   6   7
ENDBRANCH   5   6
BRANCH   5  13
HETATM   13  N           1     -24.243  -2.256 -13.349  0.00  0.00    -0.064 N 
HETATM   14  H           1     -23.405  -1.881 -12.849  0.00  0.00     0.275 HD
HETATM   15  H           1     -24.149  -2.068 -14.374  0.00  0.00     0.275 HD
HETATM   16  H           1     -25.104  -1.789 -12.986  0.00  0.00     0.275 HD
ENDBRANCH   5  13
ENDBRANCH   3   5
BRANCH   2  17
HETATM   17  C           1     -23.271  -4.675 -10.060  0.00  0.00     0.189 C 
BRANCH  17  18
HETATM   18  C           1     -24.628  -4.048  -9.854  0.00  0.00     0.197 C 
HETATM   19  O           1     -25.609  -4.764  -9.557  0.00  0.00    -0.646 OA
HETATM   20  O           1     -24.772  -2.813  -9.979  0.00  0.00    -0.646 OA
ENDBRANCH  17  18
BRANCH  17  21
HETATM   21  C           1     -22.187  -3.644  -9.778  0.00  0.00     0.074 C 
BRANCH  21  22
HETATM   22  C           1     -21.366  -4.091  -8.608  0.00  0.00    -0.056 A 
HETATM   23  C           1     -19.977  -4.149  -8.714  0.00  0.00     0.007 A 
HETATM   24  C           1     -19.211  -4.565  -7.623  0.00  0.00     0.001 A 
HETATM   25  C           1     -19.836  -4.921  -6.428  0.00  0.00     0.000 A 
HETATM   26  C           1     -21.225  -4.861  -6.323  0.00  0.00     0.001 A 
HETATM   27  C           1     -21.991  -4.446  -7.412  0.00  0.00     0.007 A 
ENDBRANCH  21  22
ENDBRANCH  17  21
ENDBRANCH   2  17
TORSDOF 10
ENDMDL
MODEL 7
REMARK VINA RESULT:      -6.5      3.028      5.184
REMARK  10 active torsions:
REMARK  status: ('A' for Active; 'I' for Inactive)
REMARK    1  A    between atoms: C_2  and  C_9 
REMARK    2  A    between atoms: C_9  and  C_10 
REMARK    3  A    between atoms: C_9  and  N_17 
REMARK    4  A    between atoms: C_10  and  C_11 
REMARK       I    between atoms: N_17  and  C_18 
REMARK    5  A    between atoms: C_18  and  C_19 
REMARK    6  A    between atoms: C_19  and  C_20 
REMARK    7  A    between atoms: C_19  and  N_26 
REMARK    8  A    between atoms: C_20  and  O_21 
REMARK    9  A    between atoms: O_21  and  P_22 
REMARK   10  A    between atoms: P_22  and  O_23 
ROOT
HETATM    1  H           1     -34.088  -0.428 -13.161  0.00  0.00     0.163 HD
HETATM    2  N           1     -34.786  -1.096 -12.859  0.00  0.00    -0.344 N 
HETATM    3  C           1     -34.485  -2.431 -12.820  0.00  0.00     0.251 C 
HETATM    4  O           1     -34.680  -3.123 -13.792  0.00  0.00    -0.271 OA
ENDROOT
BRANCH   3   5
HETATM    5  C           1     -33.908  -3.037 -11.565  0.00  0.00     0.298 C 
BRANCH   5   6
HETATM    6  C           1     -34.984  -3.846 -10.851  0.00  0.00     0.224 C 
BRANCH   6   7
HETATM    7  O           1     -34.385  -4.882 -10.122  0.00  0.00    -0.287 OA
BRANCH   7   8
HETATM    8  P           1     -34.248  -6.298 -10.887  0.00  0.00     0.406 P 
HETATM    9  O           1     -34.729  -7.384 -10.004  0.00  0.00    -0.624 OA
HETATM   10  O           1     -35.060  -6.271 -12.125  0.00  0.00    -0.624 OA
BRANCH   8  11
HETATM   11  O           1     -32.700  -6.559 -11.264  0.00  0.00    -0.300 OA
HETATM   12  H           1     -32.495  -5.910 -11.916  0.00  0.00     0.223 HD
ENDBRANCH   8  11
ENDBRANCH   7   8
ENDBRANCH   6   7
ENDBRANCH   5   6
BRANCH   5  13
HETATM   13  N           1     -33.423  -1.945 -10.660  0.00  0.00    -0.064 N 
HETATM   14  H           1     -32.470  -1.640 -10.961  0.00  0.00     0.275 HD
HETATM   15  H           1     -34.080  -1.133 -10.711  0.00  0.00     0.275 HD
HETATM   16  H           1     -33.382  -2.298  -9.677  0.00  0.00     0.275 HD
ENDBRANCH   5  13
ENDBRANCH   3   5
BRANCH   2  17
HETATM   17  C           1     -36.106  -0.640 -12.468  0.00  0.00     0.189 C 
BRANCH  17  18
HETATM   18  C           1     -36.910  -0.312 -13.703  0.00  0.00     0.197 C 
HETATM   19  O           1     -36.409   0.396 -14.605  0.00  0.00    -0.646 OA
HETATM   20  O           1     -38.075  -0.746 -13.825  0.00  0.00    -0.646 OA
ENDBRANCH  17  18
BRANCH  17  21
HETATM   21  C           1     -35.976   0.606 -11.602  0.00  0.00     0.074 C 
BRANCH  21  22
HETATM   22  C           1     -36.666   0.377 -10.293  0.00  0.00    -0.056 A 
HETATM   23  C           1     -36.827  -0.920  -9.807  0.00  0.00     0.007 A 
HETATM   24  C           1     -37.470  -1.133  -8.586  0.00  0.00     0.001 A 
HETATM   25  C           1     -37.950  -0.048  -7.853  0.00  0.00     0.000 A 
HETATM   26  C           1     -37.788   1.249  -8.339  0.00  0.00     0.001 A 
HETATM   27  C           1     -37.146   1.462  -9.559  0.00  0.00     0.007 A 
ENDBRANCH  21  22
ENDBRANCH  17  21
ENDBRANCH   2  17
TORSDOF 10
ENDMDL
MODEL 8
REMARK VINA RESULT:      -6.4     17.661     19.246
REMARK  10 active torsions:
REMARK  status: ('A' for Active; 'I' for Inactive)
REMARK    1  A    between atoms: C_2  and  C_9 
REMARK    2  A    between atoms: C_9  and  C_10 
REMARK    3  A    between atoms: C_9  and  N_17 
REMARK    4  A    between atoms: C_10  and  C_11 
REMARK       I    between atoms: N_17  and  C_18 
REMARK    5  A    between atoms: C_18  and  C_19 
REMARK    6  A    between atoms: C_19  and  C_20 
REMARK    7  A    between atoms: C_19  and  N_26 
REMARK    8  A    between atoms: C_20  and  O_21 
REMARK    9  A    between atoms: O_21  and  P_22 
REMARK   10  A    between atoms: P_22  and  O_23 
ROOT
HETATM    1  H           1     -19.342  -7.682  -3.482  0.00  0.00     0.163 HD
HETATM    2  N           1     -20.219  -8.046  -3.831  0.00  0.00    -0.344 N 
HETATM    3  C           1     -20.265  -8.673  -5.047  0.00  0.00     0.251 C 
HETATM    4  O           1     -20.480  -8.033  -6.049  0.00  0.00    -0.271 OA
ENDROOT
BRANCH   3   5
HETATM    5  C           1     -20.046 -10.164  -5.136  0.00  0.00     0.298 C 
BRANCH   5   6
HETATM    6  C           1     -18.578 -10.445  -5.429  0.00  0.00     0.224 C 
BRANCH   6   7
HETATM    7  O           1     -17.776  -9.583  -4.669  0.00  0.00    -0.287 OA
BRANCH   7   8
HETATM    8  P           1     -17.184 -10.193  -3.296  0.00  0.00     0.406 P 
HETATM    9  O           1     -18.232 -10.166  -2.252  0.00  0.00    -0.624 OA
HETATM   10  O           1     -16.749 -11.590  -3.524  0.00  0.00    -0.624 OA
BRANCH   8  11
HETATM   11  O           1     -15.922  -9.310  -2.813  0.00  0.00    -0.300 OA
HETATM   12  H           1     -16.120  -9.065  -1.925  0.00  0.00     0.223 HD
ENDBRANCH   8  11
ENDBRANCH   7   8
ENDBRANCH   6   7
ENDBRANCH   5   6
BRANCH   5  13
HETATM   13  N           1     -20.892 -10.727  -6.239  0.00  0.00    -0.064 N 
HETATM   14  H           1     -20.891 -11.771  -6.180  0.00  0.00     0.275 HD
HETATM   15  H           1     -21.871 -10.375  -6.141  0.00  0.00     0.275 HD
HETATM   16  H           1     -20.504 -10.430  -7.162  0.00  0.00     0.275 HD
ENDBRANCH   5  13
ENDBRANCH   3   5
BRANCH   2  17
HETATM   17  C           1     -21.429  -7.904  -3.044  0.00  0.00     0.189 C 
BRANCH  17  18
HETATM   18  C           1     -21.799  -6.444  -2.953  0.00  0.00     0.197 C 
HETATM   19  O           1     -21.372  -5.636  -3.808  0.00  0.00    -0.646 OA
HETATM   20  O           1     -22.533  -6.041  -2.025  0.00  0.00    -0.646 OA
ENDBRANCH  17  18
BRANCH  17  21
HETATM   21  C           1     -21.190  -8.454  -1.644  0.00  0.00     0.074 C 
BRANCH  21  22
HETATM   22  C           1     -22.190  -9.530  -1.354  0.00  0.00    -0.056 A 
HETATM   23  C           1     -22.338 -10.601  -2.236  0.00  0.00     0.007 A 
HETATM   24  C           1     -23.270 -11.604  -1.965  0.00  0.00     0.001 A 
HETATM   25  C           1     -24.052 -11.536  -0.812  0.00  0.00     0.000 A 
HETATM   26  C           1     -23.904 -10.466   0.069  0.00  0.00     0.001 A 
HETATM   27  C           1     -22.972  -9.463  -0.201  0.00  0.00     0.007 A 
ENDBRANCH  21  22
ENDBRANCH  17  21
ENDBRANCH   2  17
TORSDOF 10
ENDMDL
MODEL 9
REMARK VINA RESULT:      -6.4     15.553     17.745
REMARK  10 active torsions:
REMARK  status: ('A' for Active; 'I' for Inactive)
REMARK    1  A    between atoms: C_2  and  C_9 
REMARK    2  A    between atoms: C_9  and  C_10 
REMARK    3  A    between atoms: C_9  and  N_17 
REMARK    4  A    between atoms: C_10  and  C_11 
REMARK       I    between atoms: N_17  and  C_18 
REMARK    5  A    between atoms: C_18  and  C_19 
REMARK    6  A    between atoms: C_19  and  C_20 
REMARK    7  A    between atoms: C_19  and  N_26 
REMARK    8  A    between atoms: C_20  and  O_21 
REMARK    9  A    between atoms: O_21  and  P_22 
REMARK   10  A    between atoms: P_22  and  O_23 
ROOT
HETATM    1  H           1     -21.588  -9.045  -5.204  0.00  0.00     0.163 HD
HETATM    2  N           1     -20.874  -8.491  -4.747  0.00  0.00    -0.344 N 
HETATM    3  C           1     -20.414  -7.345  -5.337  0.00  0.00     0.251 C 
HETATM    4  O           1     -19.470  -7.389  -6.090  0.00  0.00    -0.271 OA
ENDROOT
BRANCH   3   5
HETATM    5  C           1     -21.087  -6.025  -5.047  0.00  0.00     0.298 C 
BRANCH   5   6
HETATM    6  C           1     -22.285  -5.852  -5.972  0.00  0.00     0.224 C 
BRANCH   6   7
HETATM    7  O           1     -21.840  -5.727  -7.295  0.00  0.00    -0.287 OA
BRANCH   7   8
HETATM    8  P           1     -22.265  -4.370  -8.060  0.00  0.00     0.406 P 
HETATM    9  O           1     -21.442  -3.245  -7.562  0.00  0.00    -0.624 OA
HETATM   10  O           1     -22.049  -4.535  -9.515  0.00  0.00    -0.624 OA
BRANCH   8  11
HETATM   11  O           1     -23.825  -4.059  -7.779  0.00  0.00    -0.300 OA
HETATM   12  H           1     -23.854  -3.734  -6.896  0.00  0.00     0.223 HD
ENDBRANCH   8  11
ENDBRANCH   7   8
ENDBRANCH   6   7
ENDBRANCH   5   6
BRANCH   5  13
HETATM   13  N           1     -20.114  -4.908  -5.276  0.00  0.00    -0.064 N 
HETATM   14  H           1     -19.384  -5.215  -5.957  0.00  0.00     0.275 HD
HETATM   15  H           1     -20.622  -4.078  -5.660  0.00  0.00     0.275 HD
HETATM   16  H           1     -19.660  -4.650  -4.371  0.00  0.00     0.275 HD
ENDBRANCH   5  13
ENDBRANCH   3   5
BRANCH   2  17
HETATM   17  C           1     -20.336  -8.913  -3.468  0.00  0.00     0.189 C 
BRANCH  17  18
HETATM   18  C           1     -18.993  -9.569  -3.680  0.00  0.00     0.197 C 
HETATM   19  O           1     -18.833 -10.374  -4.623  0.00  0.00    -0.646 OA
HETATM   20  O           1     -18.042  -9.307  -2.913  0.00  0.00    -0.646 OA
ENDBRANCH  17  18
BRANCH  17  21
HETATM   21  C           1     -21.290  -9.908  -2.821  0.00  0.00     0.074 C 
BRANCH  21  22
HETATM   22  C           1     -21.939  -9.275  -1.629  0.00  0.00    -0.056 A 
HETATM   23  C           1     -22.795 -10.024  -0.822  0.00  0.00     0.007 A 
HETATM   24  C           1     -23.399  -9.435   0.290  0.00  0.00     0.001 A 
HETATM   25  C           1     -23.145  -8.097   0.593  0.00  0.00     0.000 A 
HETATM   26  C           1     -22.288  -7.350  -0.213  0.00  0.00     0.001 A 
HETATM   27  C           1     -21.684  -7.938  -1.324  0.00  0.00     0.007 A 
ENDBRANCH  21  22
ENDBRANCH  17  21
ENDBRANCH   2  17
TORSDOF 10
ENDMDL
