MODEL 1
REMARK VINA RESULT:      -6.4      0.000      0.000
REMARK  5 active torsions:
REMARK  status: ('A' for Active; 'I' for Inactive)
REMARK       I    between atoms: C_8  and  N_9 
REMARK    1  A    between atoms: C_8  and  C_17 
REMARK    2  A    between atoms: N_9  and  C_10 
REMARK    3  A    between atoms: C_10  and  C_22 
REMARK    4  A    between atoms: C_10  and  C_11 
REMARK    5  A    between atoms: C_22  and  Se_23 
ROOT
HETATM    1  H           1     -34.384  -6.956 -12.437  0.00  0.00     0.274 HD
HETATM    2  H           1     -35.045  -5.415 -12.119  0.00  0.00     0.274 HD
HETATM    3  H           1     -35.429  -6.734 -11.107  0.00  0.00     0.274 HD
HETATM    4  N           1     -35.647  -4.030 -11.240  0.00  0.00    -0.067 N 
HETATM    5  C           1     -32.940  -4.046 -12.291  0.00  0.00     0.004 C 
HETATM    6  C           1     -32.409  -5.325 -11.658  0.00  0.00     0.027 C 
HETATM    7  C           1     -33.502  -5.967 -10.815  0.00  0.00     0.229 C 
HETATM    8  N           1     -34.679  -6.293 -11.685  0.00  0.00    -0.079 N 
HETATM    9  C           1     -33.371  -3.078 -11.197  0.00  0.00     0.042 C 
HETATM   10  C           1     -34.853  -2.763 -11.352  0.00  0.00     0.274 C 
HETATM   11  H           1     -35.351  -4.694 -11.992  0.00  0.00     0.275 HD
HETATM   12  H           1     -36.664  -3.813 -11.346  0.00  0.00     0.275 HD
HETATM   13  H           1     -35.480  -4.466 -10.305  0.00  0.00     0.275 HD
ENDROOT
BRANCH  10  14
HETATM   14  C           1     -35.096  -2.135 -12.702  0.00  0.00     0.249 C 
HETATM   15  O           1     -34.722  -2.695 -13.706  0.00  0.00    -0.271 OA
HETATM   16  N           1     -35.739  -0.929 -12.790  0.00  0.00    -0.345 N 
HETATM   17  H           1     -36.051  -0.460 -11.950  0.00  0.00     0.163 HD
BRANCH  16  18
HETATM   18  C           1     -35.972  -0.325 -14.087  0.00  0.00     0.185 C 
BRANCH  18  19
HETATM   19  C           1     -37.454  -0.009 -14.241  0.00  0.00     0.039 C 
BRANCH  19  20
HETATM   20 Se           1     -38.075  -0.630 -15.982  0.00  0.00     0.000 Se
HETATM   21  H           1     -37.871   0.669 -16.646  0.00  0.00     0.000 HD
ENDBRANCH  19  20
ENDBRANCH  18  19
BRANCH  18  22
HETATM   22  C           1     -35.171   0.949 -14.200  0.00  0.00     0.196 C 
HETATM   23  O           1     -35.319   1.695 -15.191  0.00  0.00    -0.646 OA
HETATM   24  O           1     -34.359   1.258 -13.301  0.00  0.00    -0.646 OA
ENDBRANCH  18  22
ENDBRANCH  16  18
ENDBRANCH  10  14
TORSDOF 5
ENDMDL
MODEL 2
REMARK VINA RESULT:      -6.0     13.239     14.879
REMARK  5 active torsions:
REMARK  status: ('A' for Active; 'I' for Inactive)
REMARK       I    between atoms: C_8  and  N_9 
REMARK    1  A    between atoms: C_8  and  C_17 
REMARK    2  A    between atoms: N_9  and  C_10 
REMARK    3  A    between atoms: C_10  and  C_22 
REMARK    4  A    between atoms: C_10  and  C_11 
REMARK    5  A    between atoms: C_22  and  Se_23 
ROOT
HETATM    1  H           1     -22.519  -6.195  -3.517  0.00  0.00     0.274 HD
HETATM    2  H           1     -21.531  -5.235  -4.525  0.00  0.00     0.274 HD
HETATM    3  H           1     -21.066  -5.538  -2.912  0.00  0.00     0.274 HD
HETATM    4  N           1     -20.104  -4.528  -5.241  0.00  0.00    -0.067 N 
HETATM    5  C           1     -21.475  -6.727  -6.551  0.00  0.00     0.004 C 
HETATM    6  C           1     -21.477  -7.755  -5.428  0.00  0.00     0.027 C 
HETATM    7  C           1     -20.795  -7.168  -4.200  0.00  0.00     0.229 C 
HETATM    8  N           1     -21.534  -5.941  -3.754  0.00  0.00    -0.079 N 
HETATM    9  C           1     -20.039  -6.356  -6.898  0.00  0.00     0.042 C 
HETATM   10  C           1     -19.833  -4.863  -6.678  0.00  0.00     0.274 C 
HETATM   11  H           1     -21.089  -4.783  -5.005  0.00  0.00     0.275 HD
HETATM   12  H           1     -19.961  -3.503  -5.091  0.00  0.00     0.275 HD
HETATM   13  H           1     -19.448  -5.064  -4.628  0.00  0.00     0.275 HD
ENDROOT
BRANCH  10  14
HETATM   14  C           1     -20.780  -4.089  -7.562  0.00  0.00     0.249 C 
HETATM   15  O           1     -21.402  -3.156  -7.111  0.00  0.00    -0.271 OA
HETATM   16  N           1     -20.934  -4.444  -8.875  0.00  0.00    -0.345 N 
HETATM   17  H           1     -20.414  -5.226  -9.253  0.00  0.00     0.163 HD
BRANCH  16  18
HETATM   18  C           1     -21.843  -3.700  -9.725  0.00  0.00     0.185 C 
BRANCH  18  19
HETATM   19  C           1     -21.371  -3.785 -11.170  0.00  0.00     0.039 C 
BRANCH  19  20
HETATM   20 Se           1     -22.612  -2.814 -12.318  0.00  0.00     0.000 Se
HETATM   21  H           1     -23.069  -4.017 -13.036  0.00  0.00     0.000 HD
ENDBRANCH  19  20
ENDBRANCH  18  19
BRANCH  18  22
HETATM   22  C           1     -23.230  -4.287  -9.613  0.00  0.00     0.196 C 
HETATM   23  O           1     -23.494  -5.376 -10.166  0.00  0.00    -0.646 OA
HETATM   24  O           1     -24.113  -3.683  -8.967  0.00  0.00    -0.646 OA
ENDBRANCH  18  22
ENDBRANCH  16  18
ENDBRANCH  10  14
TORSDOF 5
ENDMDL
MODEL 3
REMARK VINA RESULT:      -5.9      1.796      2.090
REMARK  5 active torsions:
REMARK  status: ('A' for Active; 'I' for Inactive)
REMARK       I    between atoms: C_8  and  N_9 
REMARK    1  A    between atoms: C_8  and  C_17 
REMARK    2  A    between atoms: N_9  and  C_10 
REMARK    3  A    between atoms: C_10  and  C_22 
REMARK    4  A    between atoms: C_10  and  C_11 
REMARK    5  A    between atoms: C_22  and  Se_23 
ROOT
HETATM    1  H           1     -34.450  -6.148 -12.934  0.00  0.00     0.274 HD
HETATM    2  H           1     -35.204  -4.916 -12.025  0.00  0.00     0.274 HD
HETATM    3  H           1     -35.158  -6.512 -11.425  0.00  0.00     0.274 HD
HETATM    4  N           1     -35.744  -3.975 -10.656  0.00  0.00    -0.067 N 
HETATM    5  C           1     -33.398  -3.169 -12.164  0.00  0.00     0.004 C 
HETATM    6  C           1     -32.569  -4.443 -12.082  0.00  0.00     0.027 C 
HETATM    7  C           1     -33.332  -5.496 -11.288  0.00  0.00     0.229 C 
HETATM    8  N           1     -34.634  -5.791 -11.969  0.00  0.00    -0.079 N 
HETATM    9  C           1     -33.668  -2.646 -10.760  0.00  0.00     0.042 C 
HETATM   10  C           1     -35.170  -2.596 -10.516  0.00  0.00     0.274 C 
HETATM   11  H           1     -35.559  -4.333 -11.621  0.00  0.00     0.275 HD
HETATM   12  H           1     -36.776  -3.940 -10.488  0.00  0.00     0.275 HD
HETATM   13  H           1     -35.299  -4.612  -9.957  0.00  0.00     0.275 HD
ENDROOT
BRANCH  10  14
HETATM   14  C           1     -35.814  -1.678 -11.526  0.00  0.00     0.249 C 
HETATM   15  O           1     -37.005  -1.480 -11.489  0.00  0.00    -0.271 OA
HETATM   16  N           1     -35.048  -1.071 -12.484  0.00  0.00    -0.345 N 
HETATM   17  H           1     -34.050  -1.238 -12.515  0.00  0.00     0.163 HD
BRANCH  16  18
HETATM   18  C           1     -35.665  -0.189 -13.454  0.00  0.00     0.185 C 
BRANCH  18  19
HETATM   19  C           1     -34.704   0.941 -13.798  0.00  0.00     0.039 C 
BRANCH  19  20
HETATM   20 Se           1     -35.399   1.950 -15.314  0.00  0.00     0.000 Se
HETATM   21  H           1     -36.779   1.461 -15.154  0.00  0.00     0.000 HD
ENDBRANCH  19  20
ENDBRANCH  18  19
BRANCH  18  22
HETATM   22  C           1     -35.994  -0.969 -14.705  0.00  0.00     0.196 C 
HETATM   23  O           1     -37.146  -0.922 -15.186  0.00  0.00    -0.646 OA
HETATM   24  O           1     -35.113  -1.661 -15.258  0.00  0.00    -0.646 OA
ENDBRANCH  18  22
ENDBRANCH  16  18
ENDBRANCH  10  14
TORSDOF 5
ENDMDL
MODEL 4
REMARK VINA RESULT:      -5.8     15.018     16.852
REMARK  5 active torsions:
REMARK  status: ('A' for Active; 'I' for Inactive)
REMARK       I    between atoms: C_8  and  N_9 
REMARK    1  A    between atoms: C_8  and  C_17 
REMARK    2  A    between atoms: N_9  and  C_10 
REMARK    3  A    between atoms: C_10  and  C_22 
REMARK    4  A    between atoms: C_10  and  C_11 
REMARK    5  A    between atoms: C_22  and  Se_23 
ROOT
HETATM    1  H           1     -20.547  -5.407 -11.153  0.00  0.00     0.274 HD
HETATM    2  H           1     -20.075  -5.289  -9.517  0.00  0.00     0.274 HD
HETATM    3  H           1     -19.127  -4.561 -10.735  0.00  0.00     0.274 HD
HETATM    4  N           1     -19.416  -4.638  -8.036  0.00  0.00    -0.067 N 
HETATM    5  C           1     -22.278  -4.590  -8.524  0.00  0.00     0.004 C 
HETATM    6  C           1     -22.315  -3.865  -9.862  0.00  0.00     0.027 C 
HETATM    7  C           1     -20.895  -3.528 -10.297  0.00  0.00     0.229 C 
HETATM    8  N           1     -20.100  -4.792 -10.436  0.00  0.00    -0.079 N 
HETATM    9  C           1     -21.627  -3.695  -7.478  0.00  0.00     0.042 C 
HETATM   10  C           1     -20.387  -4.382  -6.921  0.00  0.00     0.274 C 
HETATM   11  H           1     -19.864  -5.254  -8.753  0.00  0.00     0.275 HD
HETATM   12  H           1     -18.565  -5.110  -7.653  0.00  0.00     0.275 HD
HETATM   13  H           1     -19.143  -3.731  -8.477  0.00  0.00     0.275 HD
ENDROOT
BRANCH  10  14
HETATM   14  C           1     -20.780  -5.693  -6.286  0.00  0.00     0.249 C 
HETATM   15  O           1     -20.967  -6.667  -6.976  0.00  0.00    -0.271 OA
HETATM   16  N           1     -20.926  -5.778  -4.927  0.00  0.00    -0.345 N 
HETATM   17  H           1     -20.771  -4.961  -4.350  0.00  0.00     0.163 HD
BRANCH  16  18
HETATM   18  C           1     -21.304  -7.037  -4.316  0.00  0.00     0.185 C 
BRANCH  18  19
HETATM   19  C           1     -20.142  -8.016  -4.409  0.00  0.00     0.039 C 
BRANCH  19  20
HETATM   20 Se           1     -20.815  -9.784  -4.877  0.00  0.00     0.000 Se
HETATM   21  H           1     -19.482 -10.345  -5.155  0.00  0.00     0.000 HD
ENDBRANCH  19  20
ENDBRANCH  18  19
BRANCH  18  22
HETATM   22  C           1     -21.654  -6.806  -2.866  0.00  0.00     0.196 C 
HETATM   23  O           1     -22.455  -5.900  -2.553  0.00  0.00    -0.646 OA
HETATM   24  O           1     -21.142  -7.522  -1.978  0.00  0.00    -0.646 OA
ENDBRANCH  18  22
ENDBRANCH  16  18
ENDBRANCH  10  14
TORSDOF 5
ENDMDL
MODEL 5
REMARK VINA RESULT:      -5.4     25.468     26.627
REMARK  5 active torsions:
REMARK  status: ('A' for Active; 'I' for Inactive)
REMARK       I    between atoms: C_8  and  N_9 
REMARK    1  A    between atoms: C_8  and  C_17 
REMARK    2  A    between atoms: N_9  and  C_10 
REMARK    3  A    between atoms: C_10  and  C_22 
REMARK    4  A    between atoms: C_10  and  C_11 
REMARK    5  A    between atoms: C_22  and  Se_23 
ROOT
HETATM    1  H           1     -13.863   9.395 -22.210  0.00  0.00     0.274 HD
HETATM    2  H           1     -12.417   8.567 -21.841  0.00  0.00     0.274 HD
HETATM    3  H           1     -12.468   9.649 -23.158  0.00  0.00     0.274 HD
HETATM    4  N           1     -10.714   8.234 -21.645  0.00  0.00    -0.067 N 
HETATM    5  C           1     -12.337   9.008 -19.365  0.00  0.00     0.004 C 
HETATM    6  C           1     -12.923  10.316 -19.878  0.00  0.00     0.027 C 
HETATM    7  C           1     -12.409  10.585 -21.286  0.00  0.00     0.229 C 
HETATM    8  N           1     -12.820   9.464 -22.193  0.00  0.00    -0.079 N 
HETATM    9  C           1     -10.817   9.106 -19.339  0.00  0.00     0.042 C 
HETATM   10  C           1     -10.223   8.033 -20.241  0.00  0.00     0.274 C 
HETATM   11  H           1     -11.757   8.165 -21.661  0.00  0.00     0.275 HD
HETATM   12  H           1     -10.305   7.497 -22.263  0.00  0.00     0.275 HD
HETATM   13  H           1     -10.421   9.177 -21.986  0.00  0.00     0.275 HD
ENDROOT
BRANCH  10  14
HETATM   14  C           1     -10.646   6.671 -19.750  0.00  0.00     0.249 C 
HETATM   15  O           1     -10.209   6.242 -18.708  0.00  0.00    -0.271 OA
HETATM   16  N           1     -11.524   5.921 -20.485  0.00  0.00    -0.345 N 
HETATM   17  H           1     -11.889   6.280 -21.358  0.00  0.00     0.163 HD
BRANCH  16  18
HETATM   18  C           1     -11.931   4.612 -20.014  0.00  0.00     0.185 C 
BRANCH  18  19
HETATM   19  C           1     -13.414   4.410 -20.293  0.00  0.00     0.039 C 
BRANCH  19  20
HETATM   20 Se           1     -13.966   5.573 -21.757  0.00  0.00     0.000 Se
HETATM   21  H           1     -13.213   6.739 -21.267  0.00  0.00     0.000 HD
ENDBRANCH  19  20
ENDBRANCH  18  19
BRANCH  18  22
HETATM   22  C           1     -11.134   3.549 -20.731  0.00  0.00     0.196 C 
HETATM   23  O           1     -10.771   2.522 -20.119  0.00  0.00    -0.646 OA
HETATM   24  O           1     -10.837   3.698 -21.936  0.00  0.00    -0.646 OA
ENDBRANCH  18  22
ENDBRANCH  16  18
ENDBRANCH  10  14
TORSDOF 5
ENDMDL
MODEL 6
REMARK VINA RESULT:      -5.2     16.990     19.038
REMARK  5 active torsions:
REMARK  status: ('A' for Active; 'I' for Inactive)
REMARK       I    between atoms: C_8  and  N_9 
REMARK    1  A    between atoms: C_8  and  C_17 
REMARK    2  A    between atoms: N_9  and  C_10 
REMARK    3  A    between atoms: C_10  and  C_22 
REMARK    4  A    between atoms: C_10  and  C_11 
REMARK    5  A    between atoms: C_22  and  Se_23 
ROOT
HETATM    1  H           1     -21.540  -8.755  -6.279  0.00  0.00     0.274 HD
HETATM    2  H           1     -21.022  -8.724  -4.654  0.00  0.00     0.274 HD
HETATM    3  H           1     -19.877  -8.839  -5.913  0.00  0.00     0.274 HD
HETATM    4  N           1     -20.052  -8.389  -3.241  0.00  0.00    -0.067 N 
HETATM    5  C           1     -22.377  -6.761  -3.851  0.00  0.00     0.004 C 
HETATM    6  C           1     -22.042  -6.326  -5.271  0.00  0.00     0.027 C 
HETATM    7  C           1     -20.706  -6.929  -5.685  0.00  0.00     0.229 C 
HETATM    8  N           1     -20.793  -8.425  -5.629  0.00  0.00    -0.079 N 
HETATM    9  C           1     -21.289  -6.281  -2.901  0.00  0.00     0.042 C 
HETATM   10  C           1     -20.652  -7.479  -2.210  0.00  0.00     0.274 C 
HETATM   11  H           1     -20.800  -8.718  -3.892  0.00  0.00     0.275 HD
HETATM   12  H           1     -19.614  -9.211  -2.766  0.00  0.00     0.275 HD
HETATM   13  H           1     -19.322  -7.871  -3.781  0.00  0.00     0.275 HD
ENDROOT
BRANCH  10  14
HETATM   14  C           1     -21.705  -8.228  -1.430  0.00  0.00     0.249 C 
HETATM   15  O           1     -22.473  -7.626  -0.719  0.00  0.00    -0.271 OA
HETATM   16  N           1     -21.787  -9.591  -1.528  0.00  0.00    -0.345 N 
HETATM   17  H           1     -21.143 -10.096  -2.123  0.00  0.00     0.163 HD
BRANCH  16  18
HETATM   18  C           1     -22.798 -10.312  -0.779  0.00  0.00     0.185 C 
BRANCH  18  19
HETATM   19  C           1     -23.568 -11.231  -1.718  0.00  0.00     0.039 C 
BRANCH  19  20
HETATM   20 Se           1     -22.613 -11.380  -3.411  0.00  0.00     0.000 Se
HETATM   21  H           1     -21.476 -12.118  -2.837  0.00  0.00     0.000 HD
ENDBRANCH  19  20
ENDBRANCH  18  19
BRANCH  18  22
HETATM   22  C           1     -22.134 -11.135   0.299  0.00  0.00     0.196 C 
HETATM   23  O           1     -21.116 -10.700   0.878  0.00  0.00    -0.646 OA
HETATM   24  O           1     -22.604 -12.250   0.611  0.00  0.00    -0.646 OA
ENDBRANCH  18  22
ENDBRANCH  16  18
ENDBRANCH  10  14
TORSDOF 5
ENDMDL
MODEL 7
REMARK VINA RESULT:      -5.1     17.526     19.061
REMARK  5 active torsions:
REMARK  status: ('A' for Active; 'I' for Inactive)
REMARK       I    between atoms: C_8  and  N_9 
REMARK    1  A    between atoms: C_8  and  C_17 
REMARK    2  A    between atoms: N_9  and  C_10 
REMARK    3  A    between atoms: C_10  and  C_22 
REMARK    4  A    between atoms: C_10  and  C_11 
REMARK    5  A    between atoms: C_22  and  Se_23 
ROOT
HETATM    1  H           1     -21.781 -12.317   1.982  0.00  0.00     0.274 HD
HETATM    2  H           1     -21.162 -11.997   0.424  0.00  0.00     0.274 HD
HETATM    3  H           1     -21.021 -13.559   1.094  0.00  0.00     0.274 HD
HETATM    4  N           1     -20.716 -12.223  -1.250  0.00  0.00    -0.067 N 
HETATM    5  C           1     -23.154 -10.809  -0.551  0.00  0.00     0.004 C 
HETATM    6  C           1     -23.833 -11.852   0.326  0.00  0.00     0.027 C 
HETATM    7  C           1     -22.949 -13.087   0.424  0.00  0.00     0.229 C 
HETATM    8  N           1     -21.628 -12.712   1.027  0.00  0.00    -0.079 N 
HETATM    9  C           1     -22.930 -11.383  -1.944  0.00  0.00     0.042 C 
HETATM   10  C           1     -21.440 -11.383  -2.260  0.00  0.00     0.274 C 
HETATM   11  H           1     -20.870 -11.827  -0.294  0.00  0.00     0.275 HD
HETATM   12  H           1     -19.694 -12.223  -1.468  0.00  0.00     0.275 HD
HETATM   13  H           1     -21.079 -13.202  -1.285  0.00  0.00     0.275 HD
ENDROOT
BRANCH  10  14
HETATM   14  C           1     -20.915  -9.969  -2.209  0.00  0.00     0.249 C 
HETATM   15  O           1     -19.868  -9.734  -1.654  0.00  0.00    -0.271 OA
HETATM   16  N           1     -21.625  -8.955  -2.792  0.00  0.00    -0.345 N 
HETATM   17  H           1     -22.502  -9.152  -3.257  0.00  0.00     0.163 HD
BRANCH  16  18
HETATM   18  C           1     -21.120  -7.596  -2.744  0.00  0.00     0.185 C 
BRANCH  18  19
HETATM   19  C           1     -21.158  -6.990  -4.140  0.00  0.00     0.039 C 
BRANCH  19  20
HETATM   20 Se           1     -19.919  -7.948  -5.300  0.00  0.00     0.000 Se
HETATM   21  H           1     -20.770  -7.834  -6.496  0.00  0.00     0.000 HD
ENDBRANCH  19  20
ENDBRANCH  18  19
BRANCH  18  22
HETATM   22  C           1     -21.980  -6.774  -1.814  0.00  0.00     0.196 C 
HETATM   23  O           1     -22.333  -5.622  -2.145  0.00  0.00    -0.646 OA
HETATM   24  O           1     -22.337  -7.246  -0.713  0.00  0.00    -0.646 OA
ENDBRANCH  18  22
ENDBRANCH  16  18
ENDBRANCH  10  14
TORSDOF 5
ENDMDL
MODEL 8
REMARK VINA RESULT:      -5.0     18.075     19.843
REMARK  5 active torsions:
REMARK  status: ('A' for Active; 'I' for Inactive)
REMARK       I    between atoms: C_8  and  N_9 
REMARK    1  A    between atoms: C_8  and  C_17 
REMARK    2  A    between atoms: N_9  and  C_10 
REMARK    3  A    between atoms: C_10  and  C_22 
REMARK    4  A    between atoms: C_10  and  C_11 
REMARK    5  A    between atoms: C_22  and  Se_23 
ROOT
HETATM    1  H           1     -23.127  -6.099  -4.046  0.00  0.00     0.274 HD
HETATM    2  H           1     -22.192  -7.520  -3.914  0.00  0.00     0.274 HD
HETATM    3  H           1     -21.678  -6.252  -4.933  0.00  0.00     0.274 HD
HETATM    4  N           1     -20.803  -8.577  -3.836  0.00  0.00    -0.067 N 
HETATM    5  C           1     -22.145  -7.725  -1.407  0.00  0.00     0.004 C 
HETATM    6  C           1     -22.090  -6.213  -1.580  0.00  0.00     0.027 C 
HETATM    7  C           1     -21.394  -5.877  -2.892  0.00  0.00     0.229 C 
HETATM    8  N           1     -22.155  -6.483  -4.033  0.00  0.00    -0.079 N 
HETATM    9  C           1     -20.729  -8.286  -1.387  0.00  0.00     0.042 C 
HETATM   10  C           1     -20.559  -9.276  -2.532  0.00  0.00     0.274 C 
HETATM   11  H           1     -21.775  -8.193  -3.849  0.00  0.00     0.275 HD
HETATM   12  H           1     -20.685  -9.257  -4.621  0.00  0.00     0.275 HD
HETATM   13  H           1     -20.117  -7.795  -3.947  0.00  0.00     0.275 HD
ENDROOT
BRANCH  10  14
HETATM   14  C           1     -21.549 -10.404  -2.373  0.00  0.00     0.249 C 
HETATM   15  O           1     -22.354 -10.629  -3.245  0.00  0.00    -0.271 OA
HETATM   16  N           1     -21.534 -11.172  -1.240  0.00  0.00    -0.345 N 
HETATM   17  H           1     -20.860 -10.983  -0.509  0.00  0.00     0.163 HD
BRANCH  16  18
HETATM   18  C           1     -22.484 -12.256  -1.087  0.00  0.00     0.185 C 
BRANCH  18  19
HETATM   19  C           1     -21.737 -13.549  -0.788  0.00  0.00     0.039 C 
BRANCH  19  20
HETATM   20 Se           1     -19.988 -13.131  -0.035  0.00  0.00     0.000 Se
HETATM   21  H           1     -20.337 -11.740   0.301  0.00  0.00     0.000 HD
ENDBRANCH  19  20
ENDBRANCH  18  19
BRANCH  18  22
HETATM   22  C           1     -23.424 -11.943   0.052  0.00  0.00     0.196 C 
HETATM   23  O           1     -23.507 -12.721   1.026  0.00  0.00    -0.646 OA
HETATM   24  O           1     -24.121 -10.905   0.020  0.00  0.00    -0.646 OA
ENDBRANCH  18  22
ENDBRANCH  16  18
ENDBRANCH  10  14
TORSDOF 5
ENDMDL
MODEL 9
REMARK VINA RESULT:      -5.0     17.636     19.446
REMARK  5 active torsions:
REMARK  status: ('A' for Active; 'I' for Inactive)
REMARK       I    between atoms: C_8  and  N_9 
REMARK    1  A    between atoms: C_8  and  C_17 
REMARK    2  A    between atoms: N_9  and  C_10 
REMARK    3  A    between atoms: C_10  and  C_22 
REMARK    4  A    between atoms: C_10  and  C_11 
REMARK    5  A    between atoms: C_22  and  Se_23 
ROOT
HETATM    1  H           1     -20.601  -7.515  -0.235  0.00  0.00     0.274 HD
HETATM    2  H           1     -20.801  -8.388  -1.688  0.00  0.00     0.274 HD
HETATM    3  H           1     -21.685  -8.830  -0.298  0.00  0.00     0.274 HD
HETATM    4  N           1     -21.558  -9.304  -2.968  0.00  0.00    -0.067 N 
HETATM    5  C           1     -21.098  -6.452  -3.268  0.00  0.00     0.004 C 
HETATM    6  C           1     -21.805  -5.929  -2.025  0.00  0.00     0.027 C 
HETATM    7  C           1     -22.389  -7.098  -1.243  0.00  0.00     0.229 C 
HETATM    8  N           1     -21.286  -8.028  -0.835  0.00  0.00    -0.079 N 
HETATM    9  C           1     -22.094  -7.201  -4.143  0.00  0.00     0.042 C 
HETATM   10  C           1     -21.638  -8.644  -4.313  0.00  0.00     0.274 C 
HETATM   11  H           1     -20.873  -8.789  -2.369  0.00  0.00     0.275 HD
HETATM   12  H           1     -21.245 -10.294  -3.086  0.00  0.00     0.275 HD
HETATM   13  H           1     -22.499  -9.287  -2.515  0.00  0.00     0.275 HD
ENDROOT
BRANCH  10  14
HETATM   14  C           1     -20.278  -8.668  -4.967  0.00  0.00     0.249 C 
HETATM   15  O           1     -20.007  -7.866  -5.829  0.00  0.00    -0.271 OA
HETATM   16  N           1     -19.351  -9.599  -4.582  0.00  0.00    -0.345 N 
HETATM   17  H           1     -19.578 -10.271  -3.861  0.00  0.00     0.163 HD
BRANCH  16  18
HETATM   18  C           1     -18.044  -9.623  -5.210  0.00  0.00     0.185 C 
BRANCH  18  19
HETATM   19  C           1     -16.968  -9.740  -4.138  0.00  0.00     0.039 C 
BRANCH  19  20
HETATM   20 Se           1     -17.731 -10.544  -2.535  0.00  0.00     0.000 Se
HETATM   21  H           1     -17.168  -9.535  -1.622  0.00  0.00     0.000 HD
ENDBRANCH  19  20
ENDBRANCH  18  19
BRANCH  18  22
HETATM   22  C           1     -17.956 -10.806  -6.143  0.00  0.00     0.196 C 
HETATM   23  O           1     -18.901 -11.061  -6.920  0.00  0.00    -0.646 OA
HETATM   24  O           1     -16.938 -11.531  -6.139  0.00  0.00    -0.646 OA
ENDBRANCH  18  22
ENDBRANCH  16  18
ENDBRANCH  10  14
TORSDOF 5
ENDMDL
