MODEL 1
REMARK VINA RESULT:      -6.3      0.000      0.000
REMARK  9 active torsions:
REMARK  status: ('A' for Active; 'I' for Inactive)
REMARK       I    between atoms: N_2  and  C_3 
REMARK    1  A    between atoms: C_3  and  C_18 
REMARK    2  A    between atoms: N_5  and  C_11 
REMARK       I    between atoms: N_5  and  C_8 
REMARK    3  A    between atoms: C_7  and  C_8 
REMARK    4  A    between atoms: C_7  and  C_17 
REMARK    5  A    between atoms: C_7  and  N_16 
REMARK    6  A    between atoms: O_9  and  C_12 
REMARK    7  A    between atoms: C_10  and  C_11 
REMARK    8  A    between atoms: C_11  and  C_12 
REMARK    9  A    between atoms: C_17  and  C_18 
ROOT
HETATM    1  C           1     -23.977  -4.351 -10.610  0.00  0.00     0.275 C 
ENDROOT
BRANCH   1   2
HETATM    2  C           1     -22.641  -4.619  -9.960  0.00  0.00     0.249 C 
HETATM    3  N           1     -22.566  -4.833  -8.610  0.00  0.00    -0.343 N 
HETATM    4  H           1     -23.407  -4.811  -8.047  0.00  0.00     0.163 HD
HETATM    5  O           1     -21.638  -4.646 -10.633  0.00  0.00    -0.271 OA
BRANCH   3   6
HETATM    6  C           1     -21.282  -5.090  -7.987  0.00  0.00     0.209 C 
BRANCH   6   7
HETATM    7  C           1     -21.484  -5.931  -6.750  0.00  0.00     0.198 C 
HETATM    8  O           1     -22.255  -5.540  -5.848  0.00  0.00    -0.646 OA
HETATM    9  O           1     -20.880  -7.018  -6.629  0.00  0.00    -0.646 OA
ENDBRANCH   6   7
BRANCH   6  10
HETATM   10  C           1     -20.632  -3.767  -7.602  0.00  0.00     0.200 C 
BRANCH  10  11
HETATM   11  O           1     -21.595  -2.921  -7.034  0.00  0.00    -0.398 OA
HETATM   12  H           1     -21.520  -2.089  -7.469  0.00  0.00     0.209 HD
ENDBRANCH  10  11
ENDBRANCH   6  10
ENDBRANCH   3   6
ENDBRANCH   1   2
BRANCH   1  13
HETATM   13  C           1     -23.928  -3.018 -11.344  0.00  0.00     0.052 C 
BRANCH  13  14
HETATM   14  C           1     -24.465  -3.196 -12.758  0.00  0.00     0.105 C 
BRANCH  14  15
HETATM   15  C           1     -23.337  -3.039 -13.748  0.00  0.00     0.215 C 
HETATM   16  O           1     -23.564  -2.634 -14.863  0.00  0.00    -0.274 OA
HETATM   17  N           1     -22.057  -3.358 -13.382  0.00  0.00    -0.370 N 
HETATM   18  H           1     -21.301  -3.253 -14.046  0.00  0.00     0.159 HD
HETATM   19  H           1     -21.867  -3.697 -12.448  0.00  0.00     0.159 HD
ENDBRANCH  14  15
ENDBRANCH  13  14
ENDBRANCH   1  13
BRANCH   1  20
HETATM   20  N           1     -25.043  -4.303  -9.555  0.00  0.00    -0.066 N 
HETATM   21  H           1     -25.038  -3.363  -9.098  0.00  0.00     0.275 HD
HETATM   22  H           1     -25.976  -4.471  -9.995  0.00  0.00     0.275 HD
HETATM   23  H           1     -24.857  -5.040  -8.838  0.00  0.00     0.275 HD
ENDBRANCH   1  20
TORSDOF 9
ENDMDL
MODEL 2
REMARK VINA RESULT:      -6.0      1.909      2.175
REMARK  9 active torsions:
REMARK  status: ('A' for Active; 'I' for Inactive)
REMARK       I    between atoms: N_2  and  C_3 
REMARK    1  A    between atoms: C_3  and  C_18 
REMARK    2  A    between atoms: N_5  and  C_11 
REMARK       I    between atoms: N_5  and  C_8 
REMARK    3  A    between atoms: C_7  and  C_8 
REMARK    4  A    between atoms: C_7  and  C_17 
REMARK    5  A    between atoms: C_7  and  N_16 
REMARK    6  A    between atoms: O_9  and  C_12 
REMARK    7  A    between atoms: C_10  and  C_11 
REMARK    8  A    between atoms: C_11  and  C_12 
REMARK    9  A    between atoms: C_17  and  C_18 
ROOT
HETATM    1  C           1     -22.462  -3.979 -11.488  0.00  0.00     0.275 C 
ENDROOT
BRANCH   1   2
HETATM    2  C           1     -22.599  -3.756 -10.002  0.00  0.00     0.249 C 
HETATM    3  N           1     -21.627  -4.204  -9.149  0.00  0.00    -0.343 N 
HETATM    4  H           1     -20.815  -4.685  -9.515  0.00  0.00     0.163 HD
HETATM    5  O           1     -23.568  -3.180  -9.566  0.00  0.00    -0.271 OA
BRANCH   3   6
HETATM    6  C           1     -21.760  -3.988  -7.721  0.00  0.00     0.209 C 
BRANCH   6   7
HETATM    7  C           1     -20.417  -4.172  -7.058  0.00  0.00     0.198 C 
HETATM    8  O           1     -20.352  -4.390  -5.829  0.00  0.00    -0.646 OA
HETATM    9  O           1     -19.371  -4.105  -7.738  0.00  0.00    -0.646 OA
ENDBRANCH   6   7
BRANCH   6  10
HETATM   10  C           1     -22.751  -4.993  -7.148  0.00  0.00     0.200 C 
BRANCH  10  11
HETATM   11  O           1     -23.939  -4.333  -6.803  0.00  0.00    -0.398 OA
HETATM   12  H           1     -23.727  -3.730  -6.112  0.00  0.00     0.209 HD
ENDBRANCH  10  11
ENDBRANCH   6  10
ENDBRANCH   3   6
ENDBRANCH   1   2
BRANCH   1  13
HETATM   13  C           1     -22.636  -2.655 -12.221  0.00  0.00     0.052 C 
BRANCH  13  14
HETATM   14  C           1     -23.832  -2.749 -13.161  0.00  0.00     0.105 C 
BRANCH  14  15
HETATM   15  C           1     -23.529  -1.999 -14.435  0.00  0.00     0.215 C 
HETATM   16  O           1     -22.794  -2.486 -15.262  0.00  0.00    -0.274 OA
HETATM   17  N           1     -24.085  -0.767 -14.652  0.00  0.00    -0.370 N 
HETATM   18  H           1     -23.881  -0.265 -15.507  0.00  0.00     0.159 HD
HETATM   19  H           1     -24.699  -0.360 -13.959  0.00  0.00     0.159 HD
ENDBRANCH  14  15
ENDBRANCH  13  14
ENDBRANCH   1  13
BRANCH   1  20
HETATM   20  N           1     -23.513  -4.947 -11.947  0.00  0.00    -0.066 N 
HETATM   21  H           1     -23.557  -5.753 -11.283  0.00  0.00     0.275 HD
HETATM   22  H           1     -24.441  -4.467 -11.974  0.00  0.00     0.275 HD
HETATM   23  H           1     -23.272  -5.295 -12.902  0.00  0.00     0.275 HD
ENDBRANCH   1  20
TORSDOF 9
ENDMDL
MODEL 3
REMARK VINA RESULT:      -5.8      1.702      6.380
REMARK  9 active torsions:
REMARK  status: ('A' for Active; 'I' for Inactive)
REMARK       I    between atoms: N_2  and  C_3 
REMARK    1  A    between atoms: C_3  and  C_18 
REMARK    2  A    between atoms: N_5  and  C_11 
REMARK       I    between atoms: N_5  and  C_8 
REMARK    3  A    between atoms: C_7  and  C_8 
REMARK    4  A    between atoms: C_7  and  C_17 
REMARK    5  A    between atoms: C_7  and  N_16 
REMARK    6  A    between atoms: O_9  and  C_12 
REMARK    7  A    between atoms: C_10  and  C_11 
REMARK    8  A    between atoms: C_11  and  C_12 
REMARK    9  A    between atoms: C_17  and  C_18 
ROOT
HETATM    1  C           1     -21.290  -4.286 -10.642  0.00  0.00     0.275 C 
ENDROOT
BRANCH   1   2
HETATM    2  C           1     -22.371  -3.492 -11.334  0.00  0.00     0.249 C 
HETATM    3  N           1     -22.325  -3.309 -12.690  0.00  0.00    -0.343 N 
HETATM    4  H           1     -21.566  -3.706 -13.229  0.00  0.00     0.163 HD
HETATM    5  O           1     -23.278  -3.019 -10.691  0.00  0.00    -0.271 OA
BRANCH   3   6
HETATM    6  C           1     -23.364  -2.546 -13.354  0.00  0.00     0.209 C 
BRANCH   6   7
HETATM    7  C           1     -24.638  -3.353 -13.384  0.00  0.00     0.198 C 
HETATM    8  O           1     -24.670  -4.448 -13.987  0.00  0.00    -0.646 OA
HETATM    9  O           1     -25.661  -2.927 -12.807  0.00  0.00    -0.646 OA
ENDBRANCH   6   7
BRANCH   6  10
HETATM   10  C           1     -22.928  -2.230 -14.779  0.00  0.00     0.200 C 
BRANCH  10  11
HETATM   11  O           1     -22.282  -3.347 -15.328  0.00  0.00    -0.398 OA
HETATM   12  H           1     -21.410  -3.361 -14.973  0.00  0.00     0.209 HD
ENDBRANCH  10  11
ENDBRANCH   6  10
ENDBRANCH   3   6
ENDBRANCH   1   2
BRANCH   1  13
HETATM   13  C           1     -21.140  -3.798  -9.207  0.00  0.00     0.052 C 
BRANCH  13  14
HETATM   14  C           1     -21.293  -4.975  -8.252  0.00  0.00     0.105 C 
BRANCH  14  15
HETATM   15  C           1     -22.470  -4.732  -7.339  0.00  0.00     0.215 C 
HETATM   16  O           1     -22.431  -5.106  -6.190  0.00  0.00    -0.274 OA
HETATM   17  N           1     -23.582  -4.090  -7.813  0.00  0.00    -0.370 N 
HETATM   18  H           1     -24.371  -3.928  -7.200  0.00  0.00     0.159 HD
HETATM   19  H           1     -23.615  -3.778  -8.775  0.00  0.00     0.159 HD
ENDBRANCH  14  15
ENDBRANCH  13  14
ENDBRANCH   1  13
BRANCH   1  20
HETATM   20  N           1     -19.992  -4.101 -11.371  0.00  0.00    -0.066 N 
HETATM   21  H           1     -19.703  -5.008 -11.802  0.00  0.00     0.275 HD
HETATM   22  H           1     -20.111  -3.382 -12.119  0.00  0.00     0.275 HD
HETATM   23  H           1     -19.257  -3.786 -10.697  0.00  0.00     0.275 HD
ENDBRANCH   1  20
TORSDOF 9
ENDMDL
MODEL 4
REMARK VINA RESULT:      -5.7      1.582      2.280
REMARK  9 active torsions:
REMARK  status: ('A' for Active; 'I' for Inactive)
REMARK       I    between atoms: N_2  and  C_3 
REMARK    1  A    between atoms: C_3  and  C_18 
REMARK    2  A    between atoms: N_5  and  C_11 
REMARK       I    between atoms: N_5  and  C_8 
REMARK    3  A    between atoms: C_7  and  C_8 
REMARK    4  A    between atoms: C_7  and  C_17 
REMARK    5  A    between atoms: C_7  and  N_16 
REMARK    6  A    between atoms: O_9  and  C_12 
REMARK    7  A    between atoms: C_10  and  C_11 
REMARK    8  A    between atoms: C_11  and  C_12 
REMARK    9  A    between atoms: C_17  and  C_18 
ROOT
HETATM    1  C           1     -22.099  -3.209 -11.193  0.00  0.00     0.275 C 
ENDROOT
BRANCH   1   2
HETATM    2  C           1     -22.164  -4.180 -10.040  0.00  0.00     0.249 C 
HETATM    3  N           1     -21.099  -4.307  -9.190  0.00  0.00    -0.343 N 
HETATM    4  H           1     -20.267  -3.748  -9.334  0.00  0.00     0.163 HD
HETATM    5  O           1     -23.157  -4.846  -9.867  0.00  0.00    -0.271 OA
BRANCH   3   6
HETATM    6  C           1     -21.162  -5.240  -8.082  0.00  0.00     0.209 C 
BRANCH   6   7
HETATM    7  C           1     -21.761  -4.553  -6.880  0.00  0.00     0.198 C 
HETATM    8  O           1     -22.461  -5.203  -6.073  0.00  0.00    -0.646 OA
HETATM    9  O           1     -21.558  -3.335  -6.691  0.00  0.00    -0.646 OA
ENDBRANCH   6   7
BRANCH   6  10
HETATM   10  C           1     -19.757  -5.722  -7.745  0.00  0.00     0.200 C 
BRANCH  10  11
HETATM   11  O           1     -19.825  -6.693  -6.736  0.00  0.00    -0.398 OA
HETATM   12  H           1     -19.651  -6.254  -5.921  0.00  0.00     0.209 HD
ENDBRANCH  10  11
ENDBRANCH   6  10
ENDBRANCH   3   6
ENDBRANCH   1   2
BRANCH   1  13
HETATM   13  C           1     -22.912  -3.750 -12.362  0.00  0.00     0.052 C 
BRANCH  13  14
HETATM   14  C           1     -23.857  -2.668 -12.868  0.00  0.00     0.105 C 
BRANCH  14  15
HETATM   15  C           1     -23.467  -2.276 -14.272  0.00  0.00     0.215 C 
HETATM   16  O           1     -24.068  -1.396 -14.842  0.00  0.00    -0.274 OA
HETATM   17  N           1     -22.434  -2.919 -14.900  0.00  0.00    -0.370 N 
HETATM   18  H           1     -22.174  -2.657 -15.841  0.00  0.00     0.159 HD
HETATM   19  H           1     -21.932  -3.657 -14.422  0.00  0.00     0.159 HD
ENDBRANCH  14  15
ENDBRANCH  13  14
ENDBRANCH   1  13
BRANCH   1  20
HETATM   20  N           1     -20.671  -3.032 -11.616  0.00  0.00    -0.066 N 
HETATM   21  H           1     -20.367  -2.053 -11.416  0.00  0.00     0.275 HD
HETATM   22  H           1     -20.065  -3.700 -11.087  0.00  0.00     0.275 HD
HETATM   23  H           1     -20.586  -3.221 -12.641  0.00  0.00     0.275 HD
ENDBRANCH   1  20
TORSDOF 9
ENDMDL
MODEL 5
REMARK VINA RESULT:      -5.7      1.314      2.132
REMARK  9 active torsions:
REMARK  status: ('A' for Active; 'I' for Inactive)
REMARK       I    between atoms: N_2  and  C_3 
REMARK    1  A    between atoms: C_3  and  C_18 
REMARK    2  A    between atoms: N_5  and  C_11 
REMARK       I    between atoms: N_5  and  C_8 
REMARK    3  A    between atoms: C_7  and  C_8 
REMARK    4  A    between atoms: C_7  and  C_17 
REMARK    5  A    between atoms: C_7  and  N_16 
REMARK    6  A    between atoms: O_9  and  C_12 
REMARK    7  A    between atoms: C_10  and  C_11 
REMARK    8  A    between atoms: C_11  and  C_12 
REMARK    9  A    between atoms: C_17  and  C_18 
ROOT
HETATM    1  C           1     -24.173  -4.611 -10.047  0.00  0.00     0.275 C 
ENDROOT
BRANCH   1   2
HETATM    2  C           1     -23.121  -4.164  -9.061  0.00  0.00     0.249 C 
HETATM    3  N           1     -22.257  -5.078  -8.521  0.00  0.00    -0.343 N 
HETATM    4  H           1     -22.323  -6.054  -8.783  0.00  0.00     0.163 HD
HETATM    5  O           1     -23.042  -3.000  -8.749  0.00  0.00    -0.271 OA
BRANCH   3   6
HETATM    6  C           1     -21.246  -4.648  -7.574  0.00  0.00     0.209 C 
BRANCH   6   7
HETATM    7  C           1     -19.897  -4.637  -8.250  0.00  0.00     0.198 C 
HETATM    8  O           1     -18.860  -4.471  -7.572  0.00  0.00    -0.646 OA
HETATM    9  O           1     -19.817  -4.793  -9.487  0.00  0.00    -0.646 OA
ENDBRANCH   6   7
BRANCH   6  10
HETATM   10  C           1     -21.216  -5.611  -6.394  0.00  0.00     0.200 C 
BRANCH  10  11
HETATM   11  O           1     -20.631  -6.821  -6.794  0.00  0.00    -0.398 OA
HETATM   12  H           1     -19.760  -6.837  -6.435  0.00  0.00     0.209 HD
ENDBRANCH  10  11
ENDBRANCH   6  10
ENDBRANCH   3   6
ENDBRANCH   1   2
BRANCH   1  13
HETATM   13  C           1     -23.659  -4.411 -11.466  0.00  0.00     0.052 C 
BRANCH  13  14
HETATM   14  C           1     -24.312  -3.176 -12.073  0.00  0.00     0.105 C 
BRANCH  14  15
HETATM   15  C           1     -23.565  -2.775 -13.322  0.00  0.00     0.215 C 
HETATM   16  O           1     -24.077  -2.023 -14.118  0.00  0.00    -0.274 OA
HETATM   17  N           1     -22.308  -3.265 -13.554  0.00  0.00    -0.370 N 
HETATM   18  H           1     -21.807  -2.997 -14.392  0.00  0.00     0.159 HD
HETATM   19  H           1     -21.879  -3.895 -12.888  0.00  0.00     0.159 HD
ENDBRANCH  14  15
ENDBRANCH  13  14
ENDBRANCH   1  13
BRANCH   1  20
HETATM   20  N           1     -25.419  -3.799  -9.847  0.00  0.00    -0.066 N 
HETATM   21  H           1     -25.164  -2.850  -9.492  0.00  0.00     0.275 HD
HETATM   22  H           1     -25.924  -3.706 -10.758  0.00  0.00     0.275 HD
HETATM   23  H           1     -26.038  -4.277  -9.152  0.00  0.00     0.275 HD
ENDBRANCH   1  20
TORSDOF 9
ENDMDL
MODEL 6
REMARK VINA RESULT:      -5.6      2.034      2.850
REMARK  9 active torsions:
REMARK  status: ('A' for Active; 'I' for Inactive)
REMARK       I    between atoms: N_2  and  C_3 
REMARK    1  A    between atoms: C_3  and  C_18 
REMARK    2  A    between atoms: N_5  and  C_11 
REMARK       I    between atoms: N_5  and  C_8 
REMARK    3  A    between atoms: C_7  and  C_8 
REMARK    4  A    between atoms: C_7  and  C_17 
REMARK    5  A    between atoms: C_7  and  N_16 
REMARK    6  A    between atoms: O_9  and  C_12 
REMARK    7  A    between atoms: C_10  and  C_11 
REMARK    8  A    between atoms: C_11  and  C_12 
REMARK    9  A    between atoms: C_17  and  C_18 
ROOT
HETATM    1  C           1     -21.616  -3.451 -10.694  0.00  0.00     0.275 C 
ENDROOT
BRANCH   1   2
HETATM    2  C           1     -20.812  -4.397  -9.835  0.00  0.00     0.249 C 
HETATM    3  N           1     -21.152  -4.588  -8.523  0.00  0.00    -0.343 N 
HETATM    4  H           1     -21.943  -4.095  -8.128  0.00  0.00     0.163 HD
HETATM    5  O           1     -19.869  -4.987 -10.307  0.00  0.00    -0.271 OA
BRANCH   3   6
HETATM    6  C           1     -20.379  -5.498  -7.699  0.00  0.00     0.209 C 
BRANCH   6   7
HETATM    7  C           1     -21.288  -6.158  -6.692  0.00  0.00     0.198 C 
HETATM    8  O           1     -22.257  -5.527  -6.217  0.00  0.00    -0.646 OA
HETATM    9  O           1     -21.072  -7.335  -6.332  0.00  0.00    -0.646 OA
ENDBRANCH   6   7
BRANCH   6  10
HETATM   10  C           1     -19.292  -4.720  -6.970  0.00  0.00     0.200 C 
BRANCH  10  11
HETATM   11  O           1     -19.653  -4.560  -5.625  0.00  0.00    -0.398 OA
HETATM   12  H           1     -20.329  -3.905  -5.598  0.00  0.00     0.209 HD
ENDBRANCH  10  11
ENDBRANCH   6  10
ENDBRANCH   3   6
ENDBRANCH   1   2
BRANCH   1  13
HETATM   13  C           1     -22.767  -4.207 -11.344  0.00  0.00     0.052 C 
BRANCH  13  14
HETATM   14  C           1     -24.018  -3.338 -11.327  0.00  0.00     0.105 C 
BRANCH  14  15
HETATM   15  C           1     -24.831  -3.651 -10.095  0.00  0.00     0.215 C 
HETATM   16  O           1     -25.739  -2.923  -9.770  0.00  0.00    -0.274 OA
HETATM   17  N           1     -24.538  -4.758  -9.345  0.00  0.00    -0.370 N 
HETATM   18  H           1     -25.083  -4.966  -8.518  0.00  0.00     0.159 HD
HETATM   19  H           1     -23.777  -5.366  -9.617  0.00  0.00     0.159 HD
ENDBRANCH  14  15
ENDBRANCH  13  14
ENDBRANCH   1  13
BRANCH   1  20
HETATM   20  N           1     -20.732  -2.873 -11.759  0.00  0.00    -0.066 N 
HETATM   21  H           1     -21.197  -2.036 -12.180  0.00  0.00     0.275 HD
HETATM   22  H           1     -19.819  -2.589 -11.339  0.00  0.00     0.275 HD
HETATM   23  H           1     -20.568  -3.590 -12.502  0.00  0.00     0.275 HD
ENDBRANCH   1  20
TORSDOF 9
ENDMDL
MODEL 7
REMARK VINA RESULT:      -5.6      2.597      6.845
REMARK  9 active torsions:
REMARK  status: ('A' for Active; 'I' for Inactive)
REMARK       I    between atoms: N_2  and  C_3 
REMARK    1  A    between atoms: C_3  and  C_18 
REMARK    2  A    between atoms: N_5  and  C_11 
REMARK       I    between atoms: N_5  and  C_8 
REMARK    3  A    between atoms: C_7  and  C_8 
REMARK    4  A    between atoms: C_7  and  C_17 
REMARK    5  A    between atoms: C_7  and  N_16 
REMARK    6  A    between atoms: O_9  and  C_12 
REMARK    7  A    between atoms: C_10  and  C_11 
REMARK    8  A    between atoms: C_11  and  C_12 
REMARK    9  A    between atoms: C_17  and  C_18 
ROOT
HETATM    1  C           1     -21.201  -5.862  -7.074  0.00  0.00     0.275 C 
ENDROOT
BRANCH   1   2
HETATM    2  C           1     -21.569  -4.689  -7.949  0.00  0.00     0.249 C 
HETATM    3  N           1     -21.692  -4.856  -9.303  0.00  0.00    -0.343 N 
HETATM    4  H           1     -21.536  -5.767  -9.716  0.00  0.00     0.163 HD
HETATM    5  O           1     -21.756  -3.602  -7.456  0.00  0.00    -0.271 OA
BRANCH   3   6
HETATM    6  C           1     -22.045  -3.729 -10.143  0.00  0.00     0.209 C 
BRANCH   6   7
HETATM    7  C           1     -23.427  -3.940 -10.711  0.00  0.00     0.198 C 
HETATM    8  O           1     -24.164  -2.957 -10.942  0.00  0.00    -0.646 OA
HETATM    9  O           1     -23.834  -5.097 -10.950  0.00  0.00    -0.646 OA
ENDBRANCH   6   7
BRANCH   6  10
HETATM   10  C           1     -21.040  -3.612 -11.282  0.00  0.00     0.200 C 
BRANCH  10  11
HETATM   11  O           1     -21.696  -3.798 -12.506  0.00  0.00    -0.398 OA
HETATM   12  H           1     -21.203  -4.441 -12.987  0.00  0.00     0.209 HD
ENDBRANCH  10  11
ENDBRANCH   6  10
ENDBRANCH   3   6
ENDBRANCH   1   2
BRANCH   1  13
HETATM   13  C           1     -21.398  -5.486  -5.611  0.00  0.00     0.052 C 
BRANCH  13  14
HETATM   14  C           1     -22.233  -6.557  -4.920  0.00  0.00     0.105 C 
BRANCH  14  15
HETATM   15  C           1     -21.831  -6.649  -3.468  0.00  0.00     0.215 C 
HETATM   16  O           1     -22.372  -5.948  -2.646  0.00  0.00    -0.274 OA
HETATM   17  N           1     -20.853  -7.526  -3.084  0.00  0.00    -0.370 N 
HETATM   18  H           1     -20.583  -7.587  -2.111  0.00  0.00     0.159 HD
HETATM   19  H           1     -20.400  -8.112  -3.773  0.00  0.00     0.159 HD
ENDBRANCH  14  15
ENDBRANCH  13  14
ENDBRANCH   1  13
BRANCH   1  20
HETATM   20  N           1     -19.764  -6.227  -7.307  0.00  0.00    -0.066 N 
HETATM   21  H           1     -19.183  -5.358  -7.327  0.00  0.00     0.275 HD
HETATM   22  H           1     -19.433  -6.849  -6.536  0.00  0.00     0.275 HD
HETATM   23  H           1     -19.677  -6.726  -8.221  0.00  0.00     0.275 HD
ENDBRANCH   1  20
TORSDOF 9
ENDMDL
MODEL 8
REMARK VINA RESULT:      -5.6      2.328      6.578
REMARK  9 active torsions:
REMARK  status: ('A' for Active; 'I' for Inactive)
REMARK       I    between atoms: N_2  and  C_3 
REMARK    1  A    between atoms: C_3  and  C_18 
REMARK    2  A    between atoms: N_5  and  C_11 
REMARK       I    between atoms: N_5  and  C_8 
REMARK    3  A    between atoms: C_7  and  C_8 
REMARK    4  A    between atoms: C_7  and  C_17 
REMARK    5  A    between atoms: C_7  and  N_16 
REMARK    6  A    between atoms: O_9  and  C_12 
REMARK    7  A    between atoms: C_10  and  C_11 
REMARK    8  A    between atoms: C_11  and  C_12 
REMARK    9  A    between atoms: C_17  and  C_18 
ROOT
HETATM    1  C           1     -22.093  -4.288  -7.140  0.00  0.00     0.275 C 
ENDROOT
BRANCH   1   2
HETATM    2  C           1     -21.966  -3.919  -8.598  0.00  0.00     0.249 C 
HETATM    3  N           1     -23.080  -3.880  -9.394  0.00  0.00    -0.343 N 
HETATM    4  H           1     -23.988  -4.099  -9.005  0.00  0.00     0.163 HD
HETATM    5  O           1     -20.882  -3.656  -9.062  0.00  0.00    -0.271 OA
BRANCH   3   6
HETATM    6  C           1     -22.957  -3.524 -10.794  0.00  0.00     0.209 C 
BRANCH   6   7
HETATM    7  C           1     -24.305  -3.101 -11.325  0.00  0.00     0.198 C 
HETATM    8  O           1     -25.330  -3.265 -10.628  0.00  0.00    -0.646 OA
HETATM    9  O           1     -24.396  -2.588 -12.460  0.00  0.00    -0.646 OA
ENDBRANCH   6   7
BRANCH   6  10
HETATM   10  C           1     -22.457  -4.730 -11.580  0.00  0.00     0.200 C 
BRANCH  10  11
HETATM   11  O           1     -23.514  -5.277 -12.320  0.00  0.00    -0.398 OA
HETATM   12  H           1     -23.710  -4.668 -13.011  0.00  0.00     0.209 HD
ENDBRANCH  10  11
ENDBRANCH   6  10
ENDBRANCH   3   6
ENDBRANCH   1   2
BRANCH   1  13
HETATM   13  C           1     -21.273  -5.541  -6.859  0.00  0.00     0.052 C 
BRANCH  13  14
HETATM   14  C           1     -20.561  -5.392  -5.521  0.00  0.00     0.105 C 
BRANCH  14  15
HETATM   15  C           1     -21.069  -6.442  -4.562  0.00  0.00     0.215 C 
HETATM   16  O           1     -20.658  -7.576  -4.635  0.00  0.00    -0.274 OA
HETATM   17  N           1     -21.997  -6.108  -3.613  0.00  0.00    -0.370 N 
HETATM   18  H           1     -22.338  -6.812  -2.970  0.00  0.00     0.159 HD
HETATM   19  H           1     -22.342  -5.159  -3.553  0.00  0.00     0.159 HD
ENDBRANCH  14  15
ENDBRANCH  13  14
ENDBRANCH   1  13
BRANCH   1  20
HETATM   20  N           1     -23.534  -4.551  -6.815  0.00  0.00    -0.066 N 
HETATM   21  H           1     -24.113  -4.426  -7.676  0.00  0.00     0.275 HD
HETATM   22  H           1     -23.640  -5.529  -6.464  0.00  0.00     0.275 HD
HETATM   23  H           1     -23.853  -3.879  -6.081  0.00  0.00     0.275 HD
ENDBRANCH   1  20
TORSDOF 9
ENDMDL
MODEL 9
REMARK VINA RESULT:      -5.5      1.912      2.238
REMARK  9 active torsions:
REMARK  status: ('A' for Active; 'I' for Inactive)
REMARK       I    between atoms: N_2  and  C_3 
REMARK    1  A    between atoms: C_3  and  C_18 
REMARK    2  A    between atoms: N_5  and  C_11 
REMARK       I    between atoms: N_5  and  C_8 
REMARK    3  A    between atoms: C_7  and  C_8 
REMARK    4  A    between atoms: C_7  and  C_17 
REMARK    5  A    between atoms: C_7  and  N_16 
REMARK    6  A    between atoms: O_9  and  C_12 
REMARK    7  A    between atoms: C_10  and  C_11 
REMARK    8  A    between atoms: C_11  and  C_12 
REMARK    9  A    between atoms: C_17  and  C_18 
ROOT
HETATM    1  C           1     -22.924  -4.431  -9.326  0.00  0.00     0.275 C 
ENDROOT
BRANCH   1   2
HETATM    2  C           1     -21.844  -4.961  -8.414  0.00  0.00     0.249 C 
HETATM    3  N           1     -22.118  -5.196  -7.093  0.00  0.00    -0.343 N 
HETATM    4  H           1     -23.044  -5.015  -6.728  0.00  0.00     0.163 HD
HETATM    5  O           1     -20.739  -5.179  -8.850  0.00  0.00    -0.271 OA
BRANCH   3   6
HETATM    6  C           1     -21.081  -5.706  -6.218  0.00  0.00     0.209 C 
BRANCH   6   7
HETATM    7  C           1     -21.715  -6.373  -5.022  0.00  0.00     0.198 C 
HETATM    8  O           1     -21.021  -7.079  -4.259  0.00  0.00    -0.646 OA
HETATM    9  O           1     -22.934  -6.219  -4.795  0.00  0.00    -0.646 OA
ENDBRANCH   6   7
BRANCH   6  10
HETATM   10  C           1     -20.201  -4.553  -5.750  0.00  0.00     0.200 C 
BRANCH  10  11
HETATM   11  O           1     -19.029  -4.518  -6.518  0.00  0.00    -0.398 OA
HETATM   12  H           1     -19.117  -5.180  -7.183  0.00  0.00     0.209 HD
ENDBRANCH  10  11
ENDBRANCH   6  10
ENDBRANCH   3   6
ENDBRANCH   1   2
BRANCH   1  13
HETATM   13  C           1     -22.301  -3.517 -10.373  0.00  0.00     0.052 C 
BRANCH  13  14
HETATM   14  C           1     -22.807  -3.909 -11.755  0.00  0.00     0.105 C 
BRANCH  14  15
HETATM   15  C           1     -23.980  -3.036 -12.128  0.00  0.00     0.215 C 
HETATM   16  O           1     -25.007  -3.101 -11.496  0.00  0.00    -0.274 OA
HETATM   17  N           1     -23.879  -2.172 -13.185  0.00  0.00    -0.370 N 
HETATM   18  H           1     -24.666  -1.587 -13.436  0.00  0.00     0.159 HD
HETATM   19  H           1     -23.019  -2.118 -13.715  0.00  0.00     0.159 HD
ENDBRANCH  14  15
ENDBRANCH  13  14
ENDBRANCH   1  13
BRANCH   1  20
HETATM   20  N           1     -23.923  -3.657  -8.518  0.00  0.00    -0.066 N 
HETATM   21  H           1     -24.565  -4.322  -8.030  0.00  0.00     0.275 HD
HETATM   22  H           1     -23.423  -3.074  -7.810  0.00  0.00     0.275 HD
HETATM   23  H           1     -24.479  -3.039  -9.152  0.00  0.00     0.275 HD
ENDBRANCH   1  20
TORSDOF 9
ENDMDL
