MODEL 1
REMARK VINA RESULT:      -7.7      0.000      0.000
REMARK  11 active torsions:
REMARK  status: ('A' for Active; 'I' for Inactive)
REMARK    1  A    between atoms: Se_1  and  C_2 
REMARK    2  A    between atoms: C_2  and  C_3 
REMARK    3  A    between atoms: C_3  and  C_4 
REMARK    4  A    between atoms: C_3  and  N_7 
REMARK       I    between atoms: N_7  and  C_8 
REMARK    5  A    between atoms: C_8  and  C_9 
REMARK    6  A    between atoms: C_9  and  C_10 
REMARK    7  A    between atoms: C_9  and  N_22 
REMARK    8  A    between atoms: C_10  and  C_11 
REMARK    9  A    between atoms: C_14  and  O_15 
REMARK   10  A    between atoms: O_15  and  P_16 
REMARK   11  A    between atoms: P_16  and  O_17 
ROOT
HETATM    1  C           1     -20.937  -4.888  -6.384  0.00  0.00     0.278 C 
ENDROOT
BRANCH   1   2
HETATM    2  C           1     -21.662  -5.834  -5.459  0.00  0.00     0.249 C 
HETATM    3  N           1     -20.953  -6.633  -4.604  0.00  0.00    -0.345 N 
HETATM    4  H           1     -19.942  -6.589  -4.592  0.00  0.00     0.163 HD
HETATM    5  O           1     -22.870  -5.885  -5.473  0.00  0.00    -0.271 OA
BRANCH   3   6
HETATM    6  C           1     -21.650  -7.541  -3.715  0.00  0.00     0.185 C 
BRANCH   6   7
HETATM    7  C           1     -20.924  -8.880  -3.685  0.00  0.00     0.039 C 
BRANCH   7   8
HETATM    8 Se           1     -19.406  -8.825  -4.906  0.00  0.00     0.000 Se
HETATM    9  H           1     -20.156  -9.379  -6.047  0.00  0.00     0.000 HD
ENDBRANCH   7   8
ENDBRANCH   6   7
BRANCH   6  10
HETATM   10  C           1     -21.683  -6.958  -2.323  0.00  0.00     0.196 C 
HETATM   11  O           1     -22.320  -5.904  -2.103  0.00  0.00    -0.646 OA
HETATM   12  O           1     -21.074  -7.526  -1.392  0.00  0.00    -0.646 OA
ENDBRANCH   6  10
ENDBRANCH   3   6
ENDBRANCH   1   2
BRANCH   1  13
HETATM   13  C           1     -20.673  -5.581  -7.715  0.00  0.00     0.081 C 
BRANCH  13  14
HETATM   14  C           1     -21.254  -4.767  -8.828  0.00  0.00    -0.056 A 
HETATM   15  C           1     -22.577  -4.330  -8.755  0.00  0.00     0.010 A 
HETATM   16  C           1     -23.119  -3.572  -9.792  0.00  0.00     0.038 A 
HETATM   17  C           1     -22.340  -3.251 -10.903  0.00  0.00     0.081 A 
HETATM   18  C           1     -21.017  -3.687 -10.976  0.00  0.00     0.038 A 
HETATM   19  C           1     -20.474  -4.446  -9.939  0.00  0.00     0.010 A 
BRANCH  17  20
HETATM   20  O           1     -22.866  -2.514 -11.910  0.00  0.00    -0.247 OA
BRANCH  20  21
HETATM   21  P           1     -23.896  -3.239 -12.923  0.00  0.00     0.411 P 
HETATM   22  O           1     -25.284  -2.893 -12.544  0.00  0.00    -0.624 OA
HETATM   23  O           1     -23.631  -2.780 -14.305  0.00  0.00    -0.624 OA
BRANCH  21  24
HETATM   24  O           1     -23.698  -4.838 -12.838  0.00  0.00    -0.300 OA
HETATM   25  H           1     -24.219  -5.186 -13.542  0.00  0.00     0.223 HD
ENDBRANCH  21  24
ENDBRANCH  20  21
ENDBRANCH  17  20
ENDBRANCH  13  14
ENDBRANCH   1  13
BRANCH   1  26
HETATM   26  N           1     -19.633  -4.483  -5.764  0.00  0.00    -0.066 N 
HETATM   27  H           1     -19.409  -5.126  -4.972  0.00  0.00     0.275 HD
HETATM   28  H           1     -18.875  -4.536  -6.482  0.00  0.00     0.275 HD
HETATM   29  H           1     -19.707  -3.503  -5.407  0.00  0.00     0.275 HD
ENDBRANCH   1  26
TORSDOF 11
ENDMDL
MODEL 2
REMARK VINA RESULT:      -6.9      1.993      2.332
REMARK  11 active torsions:
REMARK  status: ('A' for Active; 'I' for Inactive)
REMARK    1  A    between atoms: Se_1  and  C_2 
REMARK    2  A    between atoms: C_2  and  C_3 
REMARK    3  A    between atoms: C_3  and  C_4 
REMARK    4  A    between atoms: C_3  and  N_7 
REMARK       I    between atoms: N_7  and  C_8 
REMARK    5  A    between atoms: C_8  and  C_9 
REMARK    6  A    between atoms: C_9  and  C_10 
REMARK    7  A    between atoms: C_9  and  N_22 
REMARK    8  A    between atoms: C_10  and  C_11 
REMARK    9  A    between atoms: C_14  and  O_15 
REMARK   10  A    between atoms: O_15  and  P_16 
REMARK   11  A    between atoms: P_16  and  O_17 
ROOT
HETATM    1  C           1     -20.804  -5.537  -5.957  0.00  0.00     0.278 C 
ENDROOT
BRANCH   1   2
HETATM    2  C           1     -20.792  -6.791  -5.117  0.00  0.00     0.249 C 
HETATM    3  N           1     -20.450  -7.990  -5.682  0.00  0.00    -0.345 N 
HETATM    4  H           1     -20.205  -8.036  -6.663  0.00  0.00     0.163 HD
HETATM    5  O           1     -21.085  -6.736  -3.946  0.00  0.00    -0.271 OA
BRANCH   3   6
HETATM    6  C           1     -20.439  -9.194  -4.875  0.00  0.00     0.185 C 
BRANCH   6   7
HETATM    7  C           1     -21.135 -10.319  -5.630  0.00  0.00     0.039 C 
BRANCH   7   8
HETATM    8 Se           1     -21.732 -11.678  -4.366  0.00  0.00     0.000 Se
HETATM    9  H           1     -20.542 -11.566  -3.506  0.00  0.00     0.000 HD
ENDBRANCH   7   8
ENDBRANCH   6   7
BRANCH   6  10
HETATM   10  C           1     -19.012  -9.592  -4.585  0.00  0.00     0.196 C 
HETATM   11  O           1     -18.414 -10.377  -5.353  0.00  0.00    -0.646 OA
HETATM   12  O           1     -18.430  -9.140  -3.576  0.00  0.00    -0.646 OA
ENDBRANCH   6  10
ENDBRANCH   3   6
ENDBRANCH   1   2
BRANCH   1  13
HETATM   13  C           1     -20.123  -5.813  -7.292  0.00  0.00     0.081 C 
BRANCH  13  14
HETATM   14  C           1     -20.781  -5.003  -8.366  0.00  0.00    -0.056 A 
HETATM   15  C           1     -22.061  -4.487  -8.164  0.00  0.00     0.010 A 
HETATM   16  C           1     -22.674  -3.734  -9.165  0.00  0.00     0.038 A 
HETATM   17  C           1     -22.008  -3.497 -10.367  0.00  0.00     0.081 A 
HETATM   18  C           1     -20.728  -4.013 -10.568  0.00  0.00     0.038 A 
HETATM   19  C           1     -20.114  -4.766  -9.568  0.00  0.00     0.010 A 
BRANCH  17  20
HETATM   20  O           1     -22.603  -2.764 -11.338  0.00  0.00    -0.247 OA
BRANCH  20  21
HETATM   21  P           1     -23.899  -3.390 -12.074  0.00  0.00     0.411 P 
HETATM   22  O           1     -25.088  -3.217 -11.209  0.00  0.00    -0.624 OA
HETATM   23  O           1     -24.119  -2.693 -13.361  0.00  0.00    -0.624 OA
BRANCH  21  24
HETATM   24  O           1     -23.657  -4.962 -12.347  0.00  0.00    -0.300 OA
HETATM   25  H           1     -24.286  -5.195 -13.009  0.00  0.00     0.223 HD
ENDBRANCH  21  24
ENDBRANCH  20  21
ENDBRANCH  17  20
ENDBRANCH  13  14
ENDBRANCH   1  13
BRANCH   1  26
HETATM   26  N           1     -20.069  -4.446  -5.237  0.00  0.00    -0.066 N 
HETATM   27  H           1     -19.280  -4.858  -4.692  0.00  0.00     0.275 HD
HETATM   28  H           1     -19.694  -3.763  -5.933  0.00  0.00     0.275 HD
HETATM   29  H           1     -20.725  -3.956  -4.586  0.00  0.00     0.275 HD
ENDBRANCH   1  26
TORSDOF 11
ENDMDL
MODEL 3
REMARK VINA RESULT:      -6.8      3.918      8.973
REMARK  11 active torsions:
REMARK  status: ('A' for Active; 'I' for Inactive)
REMARK    1  A    between atoms: Se_1  and  C_2 
REMARK    2  A    between atoms: C_2  and  C_3 
REMARK    3  A    between atoms: C_3  and  C_4 
REMARK    4  A    between atoms: C_3  and  N_7 
REMARK       I    between atoms: N_7  and  C_8 
REMARK    5  A    between atoms: C_8  and  C_9 
REMARK    6  A    between atoms: C_9  and  C_10 
REMARK    7  A    between atoms: C_9  and  N_22 
REMARK    8  A    between atoms: C_10  and  C_11 
REMARK    9  A    between atoms: C_14  and  O_15 
REMARK   10  A    between atoms: O_15  and  P_16 
REMARK   11  A    between atoms: P_16  and  O_17 
ROOT
HETATM    1  C           1     -22.486  -4.966  -6.402  0.00  0.00     0.278 C 
ENDROOT
BRANCH   1   2
HETATM    2  C           1     -22.318  -4.230  -7.709  0.00  0.00     0.249 C 
HETATM    3  N           1     -23.279  -4.326  -8.678  0.00  0.00    -0.345 N 
HETATM    4  H           1     -24.103  -4.892  -8.518  0.00  0.00     0.163 HD
HETATM    5  O           1     -21.333  -3.554  -7.899  0.00  0.00    -0.271 OA
BRANCH   3   6
HETATM    6  C           1     -23.117  -3.620  -9.932  0.00  0.00     0.185 C 
BRANCH   6   7
HETATM    7  C           1     -22.376  -4.506 -10.925  0.00  0.00     0.039 C 
BRANCH   7   8
HETATM    8 Se           1     -20.625  -3.738 -11.301  0.00  0.00     0.000 Se
HETATM    9  H           1     -20.257  -3.589  -9.883  0.00  0.00     0.000 HD
ENDBRANCH   7   8
ENDBRANCH   6   7
BRANCH   6  10
HETATM   10  C           1     -24.475  -3.268 -10.491  0.00  0.00     0.196 C 
HETATM   11  O           1     -25.472  -3.239  -9.737  0.00  0.00    -0.646 OA
HETATM   12  O           1     -24.602  -3.009 -11.707  0.00  0.00    -0.646 OA
ENDBRANCH   6  10
ENDBRANCH   3   6
ENDBRANCH   1   2
BRANCH   1  13
HETATM   13  C           1     -21.728  -6.286  -6.462  0.00  0.00     0.081 C 
BRANCH  13  14
HETATM   14  C           1     -21.509  -6.801  -5.073  0.00  0.00    -0.056 A 
HETATM   15  C           1     -21.236  -5.909  -4.035  0.00  0.00     0.010 A 
HETATM   16  C           1     -21.031  -6.388  -2.741  0.00  0.00     0.038 A 
HETATM   17  C           1     -21.099  -7.757  -2.485  0.00  0.00     0.081 A 
HETATM   18  C           1     -21.372  -8.648  -3.523  0.00  0.00     0.038 A 
HETATM   19  C           1     -21.577  -8.170  -4.817  0.00  0.00     0.010 A 
BRANCH  17  20
HETATM   20  O           1     -20.901  -8.222  -1.228  0.00  0.00    -0.247 OA
BRANCH  20  21
HETATM   21  P           1     -22.163  -8.247  -0.220  0.00  0.00     0.411 P 
HETATM   22  O           1     -21.677  -8.252   1.178  0.00  0.00    -0.624 OA
HETATM   23  O           1     -22.999  -7.046  -0.448  0.00  0.00    -0.624 OA
BRANCH  21  24
HETATM   24  O           1     -23.042  -9.574  -0.489  0.00  0.00    -0.300 OA
HETATM   25  H           1     -22.737 -10.200   0.146  0.00  0.00     0.223 HD
ENDBRANCH  21  24
ENDBRANCH  20  21
ENDBRANCH  17  20
ENDBRANCH  13  14
ENDBRANCH   1  13
BRANCH   1  26
HETATM   26  N           1     -23.942  -5.237  -6.165  0.00  0.00    -0.066 N 
HETATM   27  H           1     -24.513  -4.476  -6.595  0.00  0.00     0.275 HD
HETATM   28  H           1     -24.200  -6.153  -6.596  0.00  0.00     0.275 HD
HETATM   29  H           1     -24.126  -5.272  -5.136  0.00  0.00     0.275 HD
ENDBRANCH   1  26
TORSDOF 11
ENDMDL
MODEL 4
REMARK VINA RESULT:      -6.7      4.219      9.118
REMARK  11 active torsions:
REMARK  status: ('A' for Active; 'I' for Inactive)
REMARK    1  A    between atoms: Se_1  and  C_2 
REMARK    2  A    between atoms: C_2  and  C_3 
REMARK    3  A    between atoms: C_3  and  C_4 
REMARK    4  A    between atoms: C_3  and  N_7 
REMARK       I    between atoms: N_7  and  C_8 
REMARK    5  A    between atoms: C_8  and  C_9 
REMARK    6  A    between atoms: C_9  and  C_10 
REMARK    7  A    between atoms: C_9  and  N_22 
REMARK    8  A    between atoms: C_10  and  C_11 
REMARK    9  A    between atoms: C_14  and  O_15 
REMARK   10  A    between atoms: O_15  and  P_16 
REMARK   11  A    between atoms: P_16  and  O_17 
ROOT
HETATM    1  C           1     -21.124  -5.466  -6.444  0.00  0.00     0.278 C 
ENDROOT
BRANCH   1   2
HETATM    2  C           1     -21.597  -4.446  -7.449  0.00  0.00     0.249 C 
HETATM    3  N           1     -22.167  -4.856  -8.624  0.00  0.00    -0.345 N 
HETATM    4  H           1     -22.271  -5.843  -8.818  0.00  0.00     0.163 HD
HETATM    5  O           1     -21.472  -3.266  -7.217  0.00  0.00    -0.271 OA
BRANCH   3   6
HETATM    6  C           1     -22.620  -3.876  -9.591  0.00  0.00     0.185 C 
BRANCH   6   7
HETATM    7  C           1     -22.041  -4.205 -10.961  0.00  0.00     0.039 C 
BRANCH   7   8
HETATM    8 Se           1     -22.643  -2.880 -12.257  0.00  0.00     0.000 Se
HETATM    9  H           1     -21.488  -1.988 -12.054  0.00  0.00     0.000 HD
ENDBRANCH   7   8
ENDBRANCH   6   7
BRANCH   6  10
HETATM   10  C           1     -24.128  -3.901  -9.664  0.00  0.00     0.196 C 
HETATM   11  O           1     -24.782  -2.860  -9.438  0.00  0.00    -0.646 OA
HETATM   12  O           1     -24.721  -4.963  -9.950  0.00  0.00    -0.646 OA
ENDBRANCH   6  10
ENDBRANCH   3   6
ENDBRANCH   1   2
BRANCH   1  13
HETATM   13  C           1     -22.303  -5.934  -5.600  0.00  0.00     0.081 C 
BRANCH  13  14
HETATM   14  C           1     -21.807  -6.784  -4.473  0.00  0.00    -0.056 A 
HETATM   15  C           1     -21.797  -6.281  -3.172  0.00  0.00     0.010 A 
HETATM   16  C           1     -21.334  -7.073  -2.121  0.00  0.00     0.038 A 
HETATM   17  C           1     -20.880  -8.367  -2.372  0.00  0.00     0.081 A 
HETATM   18  C           1     -20.890  -8.871  -3.673  0.00  0.00     0.038 A 
HETATM   19  C           1     -21.352  -8.079  -4.723  0.00  0.00     0.010 A 
BRANCH  17  20
HETATM   20  O           1     -20.431  -9.137  -1.351  0.00  0.00    -0.247 OA
BRANCH  20  21
HETATM   21  P           1     -21.495  -9.609  -0.231  0.00  0.00     0.411 P 
HETATM   22  O           1     -22.825  -9.783  -0.858  0.00  0.00    -0.624 OA
HETATM   23  O           1     -21.054 -10.894   0.357  0.00  0.00    -0.624 OA
BRANCH  21  24
HETATM   24  O           1     -21.589  -8.489   0.928  0.00  0.00    -0.300 OA
HETATM   25  H           1     -22.434  -8.620   1.325  0.00  0.00     0.223 HD
ENDBRANCH  21  24
ENDBRANCH  20  21
ENDBRANCH  17  20
ENDBRANCH  13  14
ENDBRANCH   1  13
BRANCH   1  26
HETATM   26  N           1     -20.088  -4.848  -5.553  0.00  0.00    -0.066 N 
HETATM   27  H           1     -20.456  -3.955  -5.156  0.00  0.00     0.275 HD
HETATM   28  H           1     -19.859  -5.507  -4.776  0.00  0.00     0.275 HD
HETATM   29  H           1     -19.224  -4.652  -6.109  0.00  0.00     0.275 HD
ENDBRANCH   1  26
TORSDOF 11
ENDMDL
MODEL 5
REMARK VINA RESULT:      -6.6      3.995      8.864
REMARK  11 active torsions:
REMARK  status: ('A' for Active; 'I' for Inactive)
REMARK    1  A    between atoms: Se_1  and  C_2 
REMARK    2  A    between atoms: C_2  and  C_3 
REMARK    3  A    between atoms: C_3  and  C_4 
REMARK    4  A    between atoms: C_3  and  N_7 
REMARK       I    between atoms: N_7  and  C_8 
REMARK    5  A    between atoms: C_8  and  C_9 
REMARK    6  A    between atoms: C_9  and  C_10 
REMARK    7  A    between atoms: C_9  and  N_22 
REMARK    8  A    between atoms: C_10  and  C_11 
REMARK    9  A    between atoms: C_14  and  O_15 
REMARK   10  A    between atoms: O_15  and  P_16 
REMARK   11  A    between atoms: P_16  and  O_17 
ROOT
HETATM    1  C           1     -21.137  -5.680  -6.906  0.00  0.00     0.278 C 
ENDROOT
BRANCH   1   2
HETATM    2  C           1     -21.727  -4.521  -7.671  0.00  0.00     0.249 C 
HETATM    3  N           1     -22.314  -4.734  -8.890  0.00  0.00    -0.345 N 
HETATM    4  H           1     -22.352  -5.668  -9.276  0.00  0.00     0.163 HD
HETATM    5  O           1     -21.681  -3.406  -7.209  0.00  0.00    -0.271 OA
BRANCH   3   6
HETATM    6  C           1     -22.879  -3.621  -9.626  0.00  0.00     0.185 C 
BRANCH   6   7
HETATM    7  C           1     -22.319  -3.609 -11.042  0.00  0.00     0.039 C 
BRANCH   7   8
HETATM    8 Se           1     -20.425  -4.066 -10.995  0.00  0.00     0.000 Se
HETATM    9  H           1     -20.193  -3.459  -9.674  0.00  0.00     0.000 HD
ENDBRANCH   7   8
ENDBRANCH   6   7
BRANCH   6  10
HETATM   10  C           1     -24.381  -3.766  -9.682  0.00  0.00     0.196 C 
HETATM   11  O           1     -24.893  -4.893  -9.857  0.00  0.00    -0.646 OA
HETATM   12  O           1     -25.111  -2.760  -9.555  0.00  0.00    -0.646 OA
ENDBRANCH   6  10
ENDBRANCH   3   6
ENDBRANCH   1   2
BRANCH   1  13
HETATM   13  C           1     -20.843  -5.247  -5.475  0.00  0.00     0.081 C 
BRANCH  13  14
HETATM   14  C           1     -21.140  -6.377  -4.539  0.00  0.00    -0.056 A 
HETATM   15  C           1     -21.287  -7.673  -5.036  0.00  0.00     0.010 A 
HETATM   16  C           1     -21.563  -8.726  -4.165  0.00  0.00     0.038 A 
HETATM   17  C           1     -21.693  -8.485  -2.797  0.00  0.00     0.081 A 
HETATM   18  C           1     -21.546  -7.189  -2.301  0.00  0.00     0.038 A 
HETATM   19  C           1     -21.269  -6.136  -3.172  0.00  0.00     0.010 A 
BRANCH  17  20
HETATM   20  O           1     -21.961  -9.508  -1.951  0.00  0.00    -0.247 OA
BRANCH  20  21
HETATM   21  P           1     -20.767 -10.539  -1.605  0.00  0.00     0.411 P 
HETATM   22  O           1     -19.463  -9.883  -1.851  0.00  0.00    -0.624 OA
HETATM   23  O           1     -20.858 -10.940  -0.183  0.00  0.00    -0.624 OA
BRANCH  21  24
HETATM   24  O           1     -20.896 -11.847  -2.543  0.00  0.00    -0.300 OA
HETATM   25  H           1     -20.153 -11.806  -3.122  0.00  0.00     0.223 HD
ENDBRANCH  21  24
ENDBRANCH  20  21
ENDBRANCH  17  20
ENDBRANCH  13  14
ENDBRANCH   1  13
BRANCH   1  26
HETATM   26  N           1     -19.863  -6.119  -7.566  0.00  0.00    -0.066 N 
HETATM   27  H           1     -19.850  -5.785  -8.555  0.00  0.00     0.275 HD
HETATM   28  H           1     -19.048  -5.716  -7.051  0.00  0.00     0.275 HD
HETATM   29  H           1     -19.805  -7.163  -7.549  0.00  0.00     0.275 HD
ENDBRANCH   1  26
TORSDOF 11
ENDMDL
MODEL 6
REMARK VINA RESULT:      -5.9      3.759      8.495
REMARK  11 active torsions:
REMARK  status: ('A' for Active; 'I' for Inactive)
REMARK    1  A    between atoms: Se_1  and  C_2 
REMARK    2  A    between atoms: C_2  and  C_3 
REMARK    3  A    between atoms: C_3  and  C_4 
REMARK    4  A    between atoms: C_3  and  N_7 
REMARK       I    between atoms: N_7  and  C_8 
REMARK    5  A    between atoms: C_8  and  C_9 
REMARK    6  A    between atoms: C_9  and  C_10 
REMARK    7  A    between atoms: C_9  and  N_22 
REMARK    8  A    between atoms: C_10  and  C_11 
REMARK    9  A    between atoms: C_14  and  O_15 
REMARK   10  A    between atoms: O_15  and  P_16 
REMARK   11  A    between atoms: P_16  and  O_17 
ROOT
HETATM    1  C           1     -19.909  -4.637  -8.257  0.00  0.00     0.278 C 
ENDROOT
BRANCH   1   2
HETATM    2  C           1     -20.444  -4.721  -9.666  0.00  0.00     0.249 C 
HETATM    3  N           1     -21.744  -4.379  -9.926  0.00  0.00    -0.345 N 
HETATM    4  H           1     -22.346  -4.070  -9.173  0.00  0.00     0.163 HD
HETATM    5  O           1     -19.725  -5.091 -10.564  0.00  0.00    -0.271 OA
BRANCH   3   6
HETATM    6  C           1     -22.258  -4.461 -11.278  0.00  0.00     0.185 C 
BRANCH   6   7
HETATM    7  C           1     -23.746  -4.784 -11.239  0.00  0.00     0.039 C 
BRANCH   7   8
HETATM    8 Se           1     -24.637  -3.592  -9.981  0.00  0.00     0.000 Se
HETATM    9  H           1     -25.294  -2.790 -11.028  0.00  0.00     0.000 HD
ENDBRANCH   7   8
ENDBRANCH   6   7
BRANCH   6  10
HETATM   10  C           1     -22.050  -3.138 -11.976  0.00  0.00     0.196 C 
HETATM   11  O           1     -22.647  -2.898 -13.049  0.00  0.00    -0.646 OA
HETATM   12  O           1     -21.282  -2.286 -11.484  0.00  0.00    -0.646 OA
ENDBRANCH   6  10
ENDBRANCH   3   6
ENDBRANCH   1   2
BRANCH   1  13
HETATM   13  C           1     -21.064  -4.433  -7.286  0.00  0.00     0.081 C 
BRANCH  13  14
HETATM   14  C           1     -21.158  -5.610  -6.366  0.00  0.00    -0.056 A 
HETATM   15  C           1     -22.341  -5.857  -5.668  0.00  0.00     0.010 A 
HETATM   16  C           1     -22.429  -6.953  -4.811  0.00  0.00     0.038 A 
HETATM   17  C           1     -21.335  -7.802  -4.650  0.00  0.00     0.081 A 
HETATM   18  C           1     -20.152  -7.556  -5.347  0.00  0.00     0.038 A 
HETATM   19  C           1     -20.064  -6.459  -6.205  0.00  0.00     0.010 A 
BRANCH  17  20
HETATM   20  O           1     -21.420  -8.867  -3.817  0.00  0.00    -0.247 OA
BRANCH  20  21
HETATM   21  P           1     -20.825  -8.712  -2.323  0.00  0.00     0.411 P 
HETATM   22  O           1     -21.523  -9.651  -1.415  0.00  0.00    -0.624 OA
HETATM   23  O           1     -19.377  -9.021  -2.335  0.00  0.00    -0.624 OA
BRANCH  21  24
HETATM   24  O           1     -21.050  -7.199  -1.808  0.00  0.00    -0.300 OA
HETATM   25  H           1     -21.821  -7.238  -1.268  0.00  0.00     0.223 HD
ENDBRANCH  21  24
ENDBRANCH  20  21
ENDBRANCH  17  20
ENDBRANCH  13  14
ENDBRANCH   1  13
BRANCH   1  26
HETATM   26  N           1     -18.958  -3.481  -8.152  0.00  0.00    -0.066 N 
HETATM   27  H           1     -18.194  -3.719  -7.481  0.00  0.00     0.275 HD
HETATM   28  H           1     -18.548  -3.283  -9.092  0.00  0.00     0.275 HD
HETATM   29  H           1     -19.473  -2.638  -7.810  0.00  0.00     0.275 HD
ENDBRANCH   1  26
TORSDOF 11
ENDMDL
MODEL 7
REMARK VINA RESULT:      -5.8      2.879      3.903
REMARK  11 active torsions:
REMARK  status: ('A' for Active; 'I' for Inactive)
REMARK    1  A    between atoms: Se_1  and  C_2 
REMARK    2  A    between atoms: C_2  and  C_3 
REMARK    3  A    between atoms: C_3  and  C_4 
REMARK    4  A    between atoms: C_3  and  N_7 
REMARK       I    between atoms: N_7  and  C_8 
REMARK    5  A    between atoms: C_8  and  C_9 
REMARK    6  A    between atoms: C_9  and  C_10 
REMARK    7  A    between atoms: C_9  and  N_22 
REMARK    8  A    between atoms: C_10  and  C_11 
REMARK    9  A    between atoms: C_14  and  O_15 
REMARK   10  A    between atoms: O_15  and  P_16 
REMARK   11  A    between atoms: P_16  and  O_17 
ROOT
HETATM    1  C           1     -20.372  -7.656  -4.865  0.00  0.00     0.278 C 
ENDROOT
BRANCH   1   2
HETATM    2  C           1     -20.324  -8.528  -3.634  0.00  0.00     0.249 C 
HETATM    3  N           1     -21.476  -8.818  -2.955  0.00  0.00    -0.345 N 
HETATM    4  H           1     -22.361  -8.447  -3.279  0.00  0.00     0.163 HD
HETATM    5  O           1     -19.267  -8.970  -3.248  0.00  0.00    -0.271 OA
BRANCH   3   6
HETATM    6  C           1     -21.430  -9.654  -1.773  0.00  0.00     0.185 C 
BRANCH   6   7
HETATM    7  C           1     -22.323  -9.059  -0.692  0.00  0.00     0.039 C 
BRANCH   7   8
HETATM    8 Se           1     -22.290  -7.114  -0.820  0.00  0.00     0.000 Se
HETATM    9  H           1     -22.722  -7.084  -2.227  0.00  0.00     0.000 HD
ENDBRANCH   7   8
ENDBRANCH   6   7
BRANCH   6  10
HETATM   10  C           1     -21.917 -11.041  -2.118  0.00  0.00     0.196 C 
HETATM   11  O           1     -21.106 -11.909  -2.509  0.00  0.00    -0.646 OA
HETATM   12  O           1     -23.130 -11.321  -2.014  0.00  0.00    -0.646 OA
ENDBRANCH   6  10
ENDBRANCH   3   6
ENDBRANCH   1   2
BRANCH   1  13
HETATM   13  C           1     -21.078  -6.348  -4.535  0.00  0.00     0.081 C 
BRANCH  13  14
HETATM   14  C           1     -21.184  -5.510  -5.770  0.00  0.00    -0.056 A 
HETATM   15  C           1     -20.031  -4.992  -6.362  0.00  0.00     0.010 A 
HETATM   16  C           1     -20.129  -4.211  -7.513  0.00  0.00     0.038 A 
HETATM   17  C           1     -21.379  -3.946  -8.073  0.00  0.00     0.081 A 
HETATM   18  C           1     -22.531  -4.464  -7.481  0.00  0.00     0.038 A 
HETATM   19  C           1     -22.434  -5.245  -6.330  0.00  0.00     0.010 A 
BRANCH  17  20
HETATM   20  O           1     -21.474  -3.188  -9.191  0.00  0.00    -0.247 OA
BRANCH  20  21
HETATM   21  P           1     -21.450  -3.939 -10.621  0.00  0.00     0.411 P 
HETATM   22  O           1     -22.616  -4.846 -10.721  0.00  0.00    -0.624 OA
HETATM   23  O           1     -21.511  -2.934 -11.706  0.00  0.00    -0.624 OA
BRANCH  21  24
HETATM   24  O           1     -20.089  -4.797 -10.757  0.00  0.00    -0.300 OA
HETATM   25  H           1     -19.963  -5.189  -9.909  0.00  0.00     0.223 HD
ENDBRANCH  21  24
ENDBRANCH  20  21
ENDBRANCH  17  20
ENDBRANCH  13  14
ENDBRANCH   1  13
BRANCH   1  26
HETATM   26  N           1     -21.121  -8.367  -5.952  0.00  0.00    -0.066 N 
HETATM   27  H           1     -20.455  -8.659  -6.702  0.00  0.00     0.275 HD
HETATM   28  H           1     -21.591  -9.212  -5.555  0.00  0.00     0.275 HD
HETATM   29  H           1     -21.841  -7.725  -6.356  0.00  0.00     0.275 HD
ENDBRANCH   1  26
TORSDOF 11
ENDMDL
MODEL 8
REMARK VINA RESULT:      -5.8     11.845     14.656
REMARK  11 active torsions:
REMARK  status: ('A' for Active; 'I' for Inactive)
REMARK    1  A    between atoms: Se_1  and  C_2 
REMARK    2  A    between atoms: C_2  and  C_3 
REMARK    3  A    between atoms: C_3  and  C_4 
REMARK    4  A    between atoms: C_3  and  N_7 
REMARK       I    between atoms: N_7  and  C_8 
REMARK    5  A    between atoms: C_8  and  C_9 
REMARK    6  A    between atoms: C_9  and  C_10 
REMARK    7  A    between atoms: C_9  and  N_22 
REMARK    8  A    between atoms: C_10  and  C_11 
REMARK    9  A    between atoms: C_14  and  O_15 
REMARK   10  A    between atoms: O_15  and  P_16 
REMARK   11  A    between atoms: P_16  and  O_17 
ROOT
HETATM    1  C           1     -32.764  -5.011 -16.546  0.00  0.00     0.278 C 
ENDROOT
BRANCH   1   2
HETATM    2  C           1     -33.209  -3.594 -16.815  0.00  0.00     0.249 C 
HETATM    3  N           1     -34.338  -3.106 -16.216  0.00  0.00    -0.345 N 
HETATM    4  H           1     -34.875  -3.695 -15.593  0.00  0.00     0.163 HD
HETATM    5  O           1     -32.567  -2.891 -17.560  0.00  0.00    -0.271 OA
BRANCH   3   6
HETATM    6  C           1     -34.765  -1.746 -16.475  0.00  0.00     0.185 C 
BRANCH   6   7
HETATM    7  C           1     -36.107  -1.762 -17.198  0.00  0.00     0.039 C 
BRANCH   7   8
HETATM    8 Se           1     -37.373  -0.631 -16.242  0.00  0.00     0.000 Se
HETATM    9  H           1     -36.479  -0.399 -15.095  0.00  0.00     0.000 HD
ENDBRANCH   7   8
ENDBRANCH   6   7
BRANCH   6  10
HETATM   10  C           1     -34.910  -1.005 -15.167  0.00  0.00     0.196 C 
HETATM   11  O           1     -34.723   0.230 -15.125  0.00  0.00    -0.646 OA
HETATM   12  O           1     -35.213  -1.628 -14.127  0.00  0.00    -0.646 OA
ENDBRANCH   6  10
ENDBRANCH   3   6
ENDBRANCH   1   2
BRANCH   1  13
HETATM   13  C           1     -31.817  -5.465 -17.648  0.00  0.00     0.081 C 
BRANCH  13  14
HETATM   14  C           1     -30.548  -5.976 -17.040  0.00  0.00    -0.056 A 
HETATM   15  C           1     -29.784  -6.927 -17.717  0.00  0.00     0.010 A 
HETATM   16  C           1     -28.602  -7.404 -17.150  0.00  0.00     0.038 A 
HETATM   17  C           1     -28.185  -6.931 -15.906  0.00  0.00     0.081 A 
HETATM   18  C           1     -28.949  -5.979 -15.230  0.00  0.00     0.038 A 
HETATM   19  C           1     -30.130  -5.503 -15.796  0.00  0.00     0.010 A 
BRANCH  17  20
HETATM   20  O           1     -27.037  -7.393 -15.356  0.00  0.00    -0.247 OA
BRANCH  20  21
HETATM   21  P           1     -25.642  -6.750 -15.857  0.00  0.00     0.411 P 
HETATM   22  O           1     -24.688  -7.835 -16.182  0.00  0.00    -0.624 OA
HETATM   23  O           1     -25.884  -5.927 -17.063  0.00  0.00    -0.624 OA
BRANCH  21  24
HETATM   24  O           1     -25.025  -5.824 -14.688  0.00  0.00    -0.300 OA
HETATM   25  H           1     -24.834  -5.000 -15.104  0.00  0.00     0.223 HD
ENDBRANCH  21  24
ENDBRANCH  20  21
ENDBRANCH  17  20
ENDBRANCH  13  14
ENDBRANCH   1  13
BRANCH   1  26
HETATM   26  N           1     -33.962  -5.913 -16.513  0.00  0.00    -0.066 N 
HETATM   27  H           1     -34.632  -5.577 -15.786  0.00  0.00     0.275 HD
HETATM   28  H           1     -34.428  -5.905 -17.448  0.00  0.00     0.275 HD
HETATM   29  H           1     -33.658  -6.887 -16.284  0.00  0.00     0.275 HD
ENDBRANCH   1  26
TORSDOF 11
ENDMDL
MODEL 9
REMARK VINA RESULT:      -5.7     15.334     18.316
REMARK  11 active torsions:
REMARK  status: ('A' for Active; 'I' for Inactive)
REMARK    1  A    between atoms: Se_1  and  C_2 
REMARK    2  A    between atoms: C_2  and  C_3 
REMARK    3  A    between atoms: C_3  and  C_4 
REMARK    4  A    between atoms: C_3  and  N_7 
REMARK       I    between atoms: N_7  and  C_8 
REMARK    5  A    between atoms: C_8  and  C_9 
REMARK    6  A    between atoms: C_9  and  C_10 
REMARK    7  A    between atoms: C_9  and  N_22 
REMARK    8  A    between atoms: C_10  and  C_11 
REMARK    9  A    between atoms: C_14  and  O_15 
REMARK   10  A    between atoms: O_15  and  P_16 
REMARK   11  A    between atoms: P_16  and  O_17 
ROOT
HETATM    1  C           1     -22.194  11.895 -13.940  0.00  0.00     0.278 C 
ENDROOT
BRANCH   1   2
HETATM    2  C           1     -22.161  12.004 -15.445  0.00  0.00     0.249 C 
HETATM    3  N           1     -21.066  11.566 -16.139  0.00  0.00    -0.345 N 
HETATM    4  H           1     -20.278  11.170 -15.643  0.00  0.00     0.163 HD
HETATM    5  O           1     -23.103  12.477 -16.037  0.00  0.00    -0.271 OA
BRANCH   3   6
HETATM    6  C           1     -21.034  11.671 -17.584  0.00  0.00     0.185 C 
BRANCH   6   7
HETATM    7  C           1     -19.640  12.092 -18.033  0.00  0.00     0.039 C 
BRANCH   7   8
HETATM    8 Se           1     -18.419  12.019 -16.516  0.00  0.00     0.000 Se
HETATM    9  H           1     -17.727  13.272 -16.865  0.00  0.00     0.000 HD
ENDBRANCH   7   8
ENDBRANCH   6   7
BRANCH   6  10
HETATM   10  C           1     -21.375  10.333 -18.193  0.00  0.00     0.196 C 
HETATM   11  O           1     -21.509   9.329 -17.461  0.00  0.00    -0.646 OA
HETATM   12  O           1     -21.521  10.229 -19.430  0.00  0.00    -0.646 OA
ENDBRANCH   6  10
ENDBRANCH   3   6
ENDBRANCH   1   2
BRANCH   1  13
HETATM   13  C           1     -23.577  12.283 -13.432  0.00  0.00     0.081 C 
BRANCH  13  14
HETATM   14  C           1     -24.102  11.204 -12.537  0.00  0.00    -0.056 A 
HETATM   15  C           1     -23.291  10.119 -12.204  0.00  0.00     0.010 A 
HETATM   16  C           1     -23.780   9.113 -11.370  0.00  0.00     0.038 A 
HETATM   17  C           1     -25.080   9.192 -10.870  0.00  0.00     0.081 A 
HETATM   18  C           1     -25.891  10.277 -11.204  0.00  0.00     0.038 A 
HETATM   19  C           1     -25.402  11.282 -12.037  0.00  0.00     0.010 A 
BRANCH  17  20
HETATM   20  O           1     -25.555   8.215 -10.060  0.00  0.00    -0.247 OA
BRANCH  20  21
HETATM   21  P           1     -26.134   6.873 -10.749  0.00  0.00     0.411 P 
HETATM   22  O           1     -27.510   7.123 -11.234  0.00  0.00    -0.624 OA
HETATM   23  O           1     -25.269   6.492 -11.888  0.00  0.00    -0.624 OA
BRANCH  21  24
HETATM   24  O           1     -26.155   5.678  -9.665  0.00  0.00    -0.300 OA
HETATM   25  H           1     -27.022   5.698  -9.297  0.00  0.00     0.223 HD
ENDBRANCH  21  24
ENDBRANCH  20  21
ENDBRANCH  17  20
ENDBRANCH  13  14
ENDBRANCH   1  13
BRANCH   1  26
HETATM   26  N           1     -21.169  12.817 -13.349  0.00  0.00    -0.066 N 
HETATM   27  H           1     -20.453  12.257 -12.833  0.00  0.00     0.275 HD
HETATM   28  H           1     -20.705  13.356 -14.115  0.00  0.00     0.275 HD
HETATM   29  H           1     -21.636  13.480 -12.689  0.00  0.00     0.275 HD
ENDBRANCH   1  26
TORSDOF 11
ENDMDL
