MODEL 1
REMARK VINA RESULT:      -7.0      0.000      0.000
REMARK  5 active torsions:
REMARK  status: ('A' for Active; 'I' for Inactive)
REMARK    1  A    between atoms: C_2  and  C_13 
REMARK    2  A    between atoms: C_4  and  C_12 
REMARK    3  A    between atoms: C_12  and  C_13 
REMARK    4  A    between atoms: C_13  and  N_15 
REMARK       I    between atoms: N_15  and  C_16 
REMARK    5  A    between atoms: C_16  and  C_18 
ROOT
HETATM    1  C           1     -36.711  -0.347 -10.938  0.00  0.00     0.189 C 
ENDROOT
BRANCH   1   2
HETATM    2  C           1     -36.975   0.512  -9.726  0.00  0.00     0.197 C 
HETATM    3  O           1     -37.928   1.321  -9.728  0.00  0.00    -0.646 OA
HETATM    4  O           1     -36.241   0.414  -8.719  0.00  0.00    -0.646 OA
ENDBRANCH   1   2
BRANCH   1   5
HETATM    5  C           1     -37.708   0.002 -12.036  0.00  0.00     0.070 C 
BRANCH   5   6
HETATM    6  C           1     -36.996   0.085 -13.350  0.00  0.00    -0.074 A 
HETATM    7  C           1     -37.656  -0.279 -14.524  0.00  0.00     0.024 A 
HETATM    8  C           1     -36.993  -0.203 -15.749  0.00  0.00    -0.022 A 
HETATM    9  C           1     -35.671   0.239 -15.800  0.00  0.00    -0.004 A 
HETATM   10  C           1     -35.011   0.602 -14.626  0.00  0.00     0.000 A 
HETATM   11  C           1     -35.674   0.526 -13.401  0.00  0.00     0.003 A 
ENDBRANCH   5   6
ENDBRANCH   1   5
BRANCH   1  12
HETATM   12  N           1     -36.857  -1.744 -10.580  0.00  0.00    -0.344 N 
HETATM   13  C           1     -35.874  -2.641 -10.906  0.00  0.00     0.252 C 
HETATM   14  O           1     -35.995  -3.806 -10.608  0.00  0.00    -0.271 OA
HETATM   15  H           1     -37.685  -2.057 -10.090  0.00  0.00     0.163 HD
BRANCH  13  16
HETATM   16  C           1     -34.639  -2.174 -11.637  0.00  0.00     0.345 C 
HETATM   17  N           1     -33.435  -2.478 -10.869  0.00  0.00     0.097 N 
HETATM   18  C           1     -33.190  -3.898 -11.098  0.00  0.00     0.271 C 
HETATM   19  H           1     -32.642  -1.936 -11.213  0.00  0.00     0.317 HD
HETATM   20  C           1     -33.501  -4.088 -12.573  0.00  0.00     0.033 C 
HETATM   21  C           1     -34.450  -2.950 -12.929  0.00  0.00     0.048 C 
ENDBRANCH  13  16
ENDBRANCH   1  12
TORSDOF 5
ENDMDL
MODEL 2
REMARK VINA RESULT:      -6.5     13.939     16.345
REMARK  5 active torsions:
REMARK  status: ('A' for Active; 'I' for Inactive)
REMARK    1  A    between atoms: C_2  and  C_13 
REMARK    2  A    between atoms: C_4  and  C_12 
REMARK    3  A    between atoms: C_12  and  C_13 
REMARK    4  A    between atoms: C_13  and  N_15 
REMARK       I    between atoms: N_15  and  C_16 
REMARK    5  A    between atoms: C_16  and  C_18 
ROOT
HETATM    1  C           1     -21.015  -5.006  -6.887  0.00  0.00     0.189 C 
ENDROOT
BRANCH   1   2
HETATM    2  C           1     -19.638  -5.248  -7.453  0.00  0.00     0.197 C 
HETATM    3  O           1     -18.813  -4.311  -7.514  0.00  0.00    -0.646 OA
HETATM    4  O           1     -19.321  -6.386  -7.861  0.00  0.00    -0.646 OA
ENDBRANCH   1   2
BRANCH   1   5
HETATM    5  C           1     -21.589  -3.724  -7.476  0.00  0.00     0.070 C 
BRANCH   5   6
HETATM    6  C           1     -22.243  -4.025  -8.788  0.00  0.00    -0.074 A 
HETATM    7  C           1     -23.619  -4.250  -8.846  0.00  0.00     0.024 A 
HETATM    8  C           1     -24.228  -4.532 -10.068  0.00  0.00    -0.022 A 
HETATM    9  C           1     -23.464  -4.587 -11.233  0.00  0.00    -0.004 A 
HETATM   10  C           1     -22.088  -4.361 -11.175  0.00  0.00     0.000 A 
HETATM   11  C           1     -21.478  -4.080  -9.953  0.00  0.00     0.003 A 
ENDBRANCH   5   6
ENDBRANCH   1   5
BRANCH   1  12
HETATM   12  N           1     -20.928  -4.878  -5.445  0.00  0.00    -0.344 N 
HETATM   13  C           1     -21.141  -5.970  -4.646  0.00  0.00     0.252 C 
HETATM   14  O           1     -21.069  -5.864  -3.445  0.00  0.00    -0.271 OA
HETATM   15  H           1     -20.711  -3.982  -5.029  0.00  0.00     0.163 HD
BRANCH  13  16
HETATM   16  C           1     -21.465  -7.307  -5.267  0.00  0.00     0.345 C 
HETATM   17  N           1     -20.252  -7.965  -5.745  0.00  0.00     0.097 N 
HETATM   18  C           1     -19.631  -8.526  -4.549  0.00  0.00     0.271 C 
HETATM   19  H           1     -20.482  -8.718  -6.394  0.00  0.00     0.317 HD
HETATM   20  C           1     -20.804  -9.067  -3.749  0.00  0.00     0.033 C 
HETATM   21  C           1     -22.012  -8.268  -4.226  0.00  0.00     0.048 C 
ENDBRANCH  13  16
ENDBRANCH   1  12
TORSDOF 5
ENDMDL
MODEL 3
REMARK VINA RESULT:      -6.5     15.831     18.172
REMARK  5 active torsions:
REMARK  status: ('A' for Active; 'I' for Inactive)
REMARK    1  A    between atoms: C_2  and  C_13 
REMARK    2  A    between atoms: C_4  and  C_12 
REMARK    3  A    between atoms: C_12  and  C_13 
REMARK    4  A    between atoms: C_13  and  N_15 
REMARK       I    between atoms: N_15  and  C_16 
REMARK    5  A    between atoms: C_16  and  C_18 
ROOT
HETATM    1  C           1     -21.348  -7.112  -4.324  0.00  0.00     0.189 C 
ENDROOT
BRANCH   1   2
HETATM    2  C           1     -21.555  -6.823  -2.859  0.00  0.00     0.197 C 
HETATM    3  O           1     -20.859  -7.409  -2.001  0.00  0.00    -0.646 OA
HETATM    4  O           1     -22.422  -5.997  -2.501  0.00  0.00    -0.646 OA
ENDBRANCH   1   2
BRANCH   1   5
HETATM    5  C           1     -22.283  -6.239  -5.152  0.00  0.00     0.070 C 
BRANCH   5   6
HETATM    6  C           1     -21.486  -5.463  -6.153  0.00  0.00    -0.074 A 
HETATM    7  C           1     -20.094  -5.560  -6.164  0.00  0.00     0.024 A 
HETATM    8  C           1     -19.352  -4.836  -7.096  0.00  0.00    -0.022 A 
HETATM    9  C           1     -20.000  -4.016  -8.019  0.00  0.00    -0.004 A 
HETATM   10  C           1     -21.392  -3.918  -8.009  0.00  0.00     0.000 A 
HETATM   11  C           1     -22.134  -4.643  -7.077  0.00  0.00     0.003 A 
ENDBRANCH   5   6
ENDBRANCH   1   5
BRANCH   1  12
HETATM   12  N           1     -21.635  -8.509  -4.586  0.00  0.00    -0.344 N 
HETATM   13  C           1     -20.610  -9.387  -4.820  0.00  0.00     0.252 C 
HETATM   14  O           1     -20.850 -10.551  -5.038  0.00  0.00    -0.271 OA
HETATM   15  H           1     -22.593  -8.836  -4.596  0.00  0.00     0.163 HD
BRANCH  13  16
HETATM   16  C           1     -19.182  -8.901  -4.804  0.00  0.00     0.345 C 
HETATM   17  N           1     -18.611  -9.008  -3.464  0.00  0.00     0.097 N 
HETATM   18  C           1     -18.268 -10.418  -3.312  0.00  0.00     0.271 C 
HETATM   19  H           1     -17.766  -8.442  -3.386  0.00  0.00     0.317 HD
HETATM   20  C           1     -17.698 -10.802  -4.667  0.00  0.00     0.033 C 
HETATM   21  C           1     -18.295  -9.800  -5.648  0.00  0.00     0.048 C 
ENDBRANCH  13  16
ENDBRANCH   1  12
TORSDOF 5
ENDMDL
MODEL 4
REMARK VINA RESULT:      -6.4     16.231     19.649
REMARK  5 active torsions:
REMARK  status: ('A' for Active; 'I' for Inactive)
REMARK    1  A    between atoms: C_2  and  C_13 
REMARK    2  A    between atoms: C_4  and  C_12 
REMARK    3  A    between atoms: C_12  and  C_13 
REMARK    4  A    between atoms: C_13  and  N_15 
REMARK       I    between atoms: N_15  and  C_16 
REMARK    5  A    between atoms: C_16  and  C_18 
ROOT
HETATM    1  C           1     -20.638  -9.007  -4.924  0.00  0.00     0.189 C 
ENDROOT
BRANCH   1   2
HETATM    2  C           1     -21.198 -10.369  -5.250  0.00  0.00     0.197 C 
HETATM    3  O           1     -21.693 -11.075  -4.346  0.00  0.00    -0.646 OA
HETATM    4  O           1     -21.167 -10.791  -6.427  0.00  0.00    -0.646 OA
ENDBRANCH   1   2
BRANCH   1   5
HETATM    5  C           1     -19.775  -9.098  -3.672  0.00  0.00     0.070 C 
BRANCH   5   6
HETATM    6  C           1     -18.355  -9.369  -4.062  0.00  0.00    -0.074 A 
HETATM    7  C           1     -17.367  -9.453  -3.081  0.00  0.00     0.024 A 
HETATM    8  C           1     -16.044  -9.704  -3.444  0.00  0.00    -0.022 A 
HETATM    9  C           1     -15.709  -9.873  -4.787  0.00  0.00    -0.004 A 
HETATM   10  C           1     -16.697  -9.789  -5.768  0.00  0.00     0.000 A 
HETATM   11  C           1     -18.020  -9.538  -5.406  0.00  0.00     0.003 A 
ENDBRANCH   5   6
ENDBRANCH   1   5
BRANCH   1  12
HETATM   12  N           1     -21.729  -8.080  -4.691  0.00  0.00    -0.344 N 
HETATM   13  C           1     -21.604  -6.768  -5.062  0.00  0.00     0.252 C 
HETATM   14  O           1     -22.513  -5.996  -4.868  0.00  0.00    -0.271 OA
HETATM   15  H           1     -22.582  -8.403  -4.253  0.00  0.00     0.163 HD
BRANCH  13  16
HETATM   16  C           1     -20.332  -6.287  -5.715  0.00  0.00     0.345 C 
HETATM   17  N           1     -20.387  -6.474  -7.162  0.00  0.00     0.097 N 
HETATM   18  C           1     -21.208  -5.372  -7.654  0.00  0.00     0.271 C 
HETATM   19  H           1     -19.454  -6.412  -7.570  0.00  0.00     0.317 HD
HETATM   20  C           1     -20.756  -4.183  -6.824  0.00  0.00     0.033 C 
HETATM   21  C           1     -20.174  -4.785  -5.550  0.00  0.00     0.048 C 
ENDBRANCH  13  16
ENDBRANCH   1  12
TORSDOF 5
ENDMDL
MODEL 5
REMARK VINA RESULT:      -6.4     16.121     18.977
REMARK  5 active torsions:
REMARK  status: ('A' for Active; 'I' for Inactive)
REMARK    1  A    between atoms: C_2  and  C_13 
REMARK    2  A    between atoms: C_4  and  C_12 
REMARK    3  A    between atoms: C_12  and  C_13 
REMARK    4  A    between atoms: C_13  and  N_15 
REMARK       I    between atoms: N_15  and  C_16 
REMARK    5  A    between atoms: C_16  and  C_18 
ROOT
HETATM    1  C           1     -20.214  -8.679  -4.144  0.00  0.00     0.189 C 
ENDROOT
BRANCH   1   2
HETATM    2  C           1     -20.471  -9.999  -4.828  0.00  0.00     0.197 C 
HETATM    3  O           1     -21.007 -10.025  -5.956  0.00  0.00    -0.646 OA
HETATM    4  O           1     -20.146 -11.067  -4.265  0.00  0.00    -0.646 OA
ENDBRANCH   1   2
BRANCH   1   5
HETATM    5  C           1     -19.744  -8.928  -2.717  0.00  0.00     0.070 C 
BRANCH   5   6
HETATM    6  C           1     -20.893  -8.753  -1.774  0.00  0.00    -0.074 A 
HETATM    7  C           1     -21.200  -7.486  -1.276  0.00  0.00     0.024 A 
HETATM    8  C           1     -22.269  -7.322  -0.396  0.00  0.00    -0.022 A 
HETATM    9  C           1     -23.034  -8.425  -0.015  0.00  0.00    -0.004 A 
HETATM   10  C           1     -22.728  -9.692  -0.513  0.00  0.00     0.000 A 
HETATM   11  C           1     -21.658  -9.855  -1.393  0.00  0.00     0.003 A 
ENDBRANCH   5   6
ENDBRANCH   1   5
BRANCH   1  12
HETATM   12  N           1     -21.438  -7.902  -4.120  0.00  0.00    -0.344 N 
HETATM   13  C           1     -21.521  -6.732  -4.827  0.00  0.00     0.252 C 
HETATM   14  O           1     -22.541  -6.085  -4.808  0.00  0.00    -0.271 OA
HETATM   15  H           1     -22.231  -8.224  -3.581  0.00  0.00     0.163 HD
BRANCH  13  16
HETATM   16  C           1     -20.338  -6.252  -5.632  0.00  0.00     0.345 C 
HETATM   17  N           1     -20.545  -6.497  -7.057  0.00  0.00     0.097 N 
HETATM   18  C           1     -21.440  -5.431  -7.496  0.00  0.00     0.271 C 
HETATM   19  H           1     -19.664  -6.432  -7.566  0.00  0.00     0.317 HD
HETATM   20  C           1     -20.930  -4.202  -6.765  0.00  0.00     0.033 C 
HETATM   21  C           1     -20.199  -4.742  -5.541  0.00  0.00     0.048 C 
ENDBRANCH  13  16
ENDBRANCH   1  12
TORSDOF 5
ENDMDL
MODEL 6
REMARK VINA RESULT:      -6.3     17.812     20.259
REMARK  5 active torsions:
REMARK  status: ('A' for Active; 'I' for Inactive)
REMARK    1  A    between atoms: C_2  and  C_13 
REMARK    2  A    between atoms: C_4  and  C_12 
REMARK    3  A    between atoms: C_12  and  C_13 
REMARK    4  A    between atoms: C_13  and  N_15 
REMARK       I    between atoms: N_15  and  C_16 
REMARK    5  A    between atoms: C_16  and  C_18 
ROOT
HETATM    1  C           1     -20.753  -9.023  -4.050  0.00  0.00     0.189 C 
ENDROOT
BRANCH   1   2
HETATM    2  C           1     -21.372  -7.922  -4.874  0.00  0.00     0.197 C 
HETATM    3  O           1     -21.262  -7.934  -6.119  0.00  0.00    -0.646 OA
HETATM    4  O           1     -21.996  -6.996  -4.311  0.00  0.00    -0.646 OA
ENDBRANCH   1   2
BRANCH   1   5
HETATM    5  C           1     -19.939  -9.939  -4.955  0.00  0.00     0.070 C 
BRANCH   5   6
HETATM    6  C           1     -18.490  -9.843  -4.592  0.00  0.00    -0.074 A 
HETATM    7  C           1     -17.514  -9.974  -5.581  0.00  0.00     0.024 A 
HETATM    8  C           1     -16.164  -9.886  -5.244  0.00  0.00    -0.022 A 
HETATM    9  C           1     -15.789  -9.665  -3.919  0.00  0.00    -0.004 A 
HETATM   10  C           1     -16.765  -9.533  -2.930  0.00  0.00     0.000 A 
HETATM   11  C           1     -18.115  -9.622  -3.267  0.00  0.00     0.003 A 
ENDBRANCH   5   6
ENDBRANCH   1   5
BRANCH   1  12
HETATM   12  N           1     -21.800  -9.789  -3.404  0.00  0.00    -0.344 N 
HETATM   13  C           1     -21.948  -9.736  -2.043  0.00  0.00     0.252 C 
HETATM   14  O           1     -22.821 -10.374  -1.505  0.00  0.00    -0.271 OA
HETATM   15  H           1     -22.422 -10.364  -3.958  0.00  0.00     0.163 HD
BRANCH  13  16
HETATM   16  C           1     -21.022  -8.878  -1.217  0.00  0.00     0.345 C 
HETATM   17  N           1     -21.335  -7.462  -1.386  0.00  0.00     0.097 N 
HETATM   18  C           1     -22.506  -7.232  -0.545  0.00  0.00     0.271 C 
HETATM   19  H           1     -20.563  -6.880  -1.060  0.00  0.00     0.317 HD
HETATM   20  C           1     -22.220  -8.043   0.707  0.00  0.00     0.033 C 
HETATM   21  C           1     -21.238  -9.123   0.267  0.00  0.00     0.048 C 
ENDBRANCH  13  16
ENDBRANCH   1  12
TORSDOF 5
ENDMDL
MODEL 7
REMARK VINA RESULT:      -6.3     12.789     16.109
REMARK  5 active torsions:
REMARK  status: ('A' for Active; 'I' for Inactive)
REMARK    1  A    between atoms: C_2  and  C_13 
REMARK    2  A    between atoms: C_4  and  C_12 
REMARK    3  A    between atoms: C_12  and  C_13 
REMARK    4  A    between atoms: C_13  and  N_15 
REMARK       I    between atoms: N_15  and  C_16 
REMARK    5  A    between atoms: C_16  and  C_18 
ROOT
HETATM    1  C           1     -21.177  -5.211  -8.075  0.00  0.00     0.189 C 
ENDROOT
BRANCH   1   2
HETATM    2  C           1     -21.969  -4.165  -7.330  0.00  0.00     0.197 C 
HETATM    3  O           1     -23.149  -4.398  -6.992  0.00  0.00    -0.646 OA
HETATM    4  O           1     -21.445  -3.065  -7.051  0.00  0.00    -0.646 OA
ENDBRANCH   1   2
BRANCH   1   5
HETATM    5  C           1     -20.061  -5.736  -7.181  0.00  0.00     0.070 C 
BRANCH   5   6
HETATM    6  C           1     -20.648  -6.281  -5.916  0.00  0.00    -0.074 A 
HETATM    7  C           1     -21.204  -7.561  -5.900  0.00  0.00     0.024 A 
HETATM    8  C           1     -21.751  -8.068  -4.722  0.00  0.00    -0.022 A 
HETATM    9  C           1     -21.742  -7.298  -3.560  0.00  0.00    -0.004 A 
HETATM   10  C           1     -21.186  -6.018  -3.576  0.00  0.00     0.000 A 
HETATM   11  C           1     -20.638  -5.511  -4.753  0.00  0.00     0.003 A 
ENDBRANCH   5   6
ENDBRANCH   1   5
BRANCH   1  12
HETATM   12  N           1     -20.602  -4.621  -9.268  0.00  0.00    -0.344 N 
HETATM   13  C           1     -21.393  -4.368 -10.357  0.00  0.00     0.252 C 
HETATM   14  O           1     -20.914  -3.877 -11.351  0.00  0.00    -0.271 OA
HETATM   15  H           1     -19.616  -4.397  -9.297  0.00  0.00     0.163 HD
BRANCH  13  16
HETATM   16  C           1     -22.864  -4.702 -10.314  0.00  0.00     0.345 C 
HETATM   17  N           1     -23.664  -3.500 -10.099  0.00  0.00     0.097 N 
HETATM   18  C           1     -23.719  -2.845 -11.403  0.00  0.00     0.271 C 
HETATM   19  H           1     -24.609  -3.743  -9.801  0.00  0.00     0.317 HD
HETATM   20  C           1     -23.898  -3.995 -12.380  0.00  0.00     0.033 C 
HETATM   21  C           1     -23.341  -5.218 -11.661  0.00  0.00     0.048 C 
ENDBRANCH  13  16
ENDBRANCH   1  12
TORSDOF 5
ENDMDL
MODEL 8
REMARK VINA RESULT:      -6.2     18.029     19.762
REMARK  5 active torsions:
REMARK  status: ('A' for Active; 'I' for Inactive)
REMARK    1  A    between atoms: C_2  and  C_13 
REMARK    2  A    between atoms: C_4  and  C_12 
REMARK    3  A    between atoms: C_12  and  C_13 
REMARK    4  A    between atoms: C_13  and  N_15 
REMARK       I    between atoms: N_15  and  C_16 
REMARK    5  A    between atoms: C_16  and  C_18 
ROOT
HETATM    1  C           1     -21.654  -7.844  -1.994  0.00  0.00     0.189 C 
ENDROOT
BRANCH   1   2
HETATM    2  C           1     -21.989  -6.417  -2.350  0.00  0.00     0.197 C 
HETATM    3  O           1     -22.374  -5.624  -1.464  0.00  0.00    -0.646 OA
HETATM    4  O           1     -21.882  -6.027  -3.533  0.00  0.00    -0.646 OA
ENDBRANCH   1   2
BRANCH   1   5
HETATM    5  C           1     -21.733  -8.023  -0.484  0.00  0.00     0.070 C 
BRANCH   5   6
HETATM    6  C           1     -22.086  -9.442  -0.166  0.00  0.00    -0.074 A 
HETATM    7  C           1     -23.400  -9.885  -0.321  0.00  0.00     0.024 A 
HETATM    8  C           1     -23.730 -11.207  -0.024  0.00  0.00    -0.022 A 
HETATM    9  C           1     -22.746 -12.087   0.427  0.00  0.00    -0.004 A 
HETATM   10  C           1     -21.432 -11.644   0.583  0.00  0.00     0.000 A 
HETATM   11  C           1     -21.102 -10.323   0.285  0.00  0.00     0.003 A 
ENDBRANCH   5   6
ENDBRANCH   1   5
BRANCH   1  12
HETATM   12  N           1     -20.312  -8.152  -2.448  0.00  0.00    -0.344 N 
HETATM   13  C           1     -20.126  -8.950  -3.545  0.00  0.00     0.252 C 
HETATM   14  O           1     -19.008  -9.207  -3.923  0.00  0.00    -0.271 OA
HETATM   15  H           1     -19.513  -7.778  -1.953  0.00  0.00     0.163 HD
BRANCH  13  16
HETATM   16  C           1     -21.318  -9.508  -4.283  0.00  0.00     0.345 C 
HETATM   17  N           1     -20.944  -9.935  -5.628  0.00  0.00     0.097 N 
HETATM   18  C           1     -20.291 -11.228  -5.445  0.00  0.00     0.271 C 
HETATM   19  H           1     -21.772 -10.052  -6.213  0.00  0.00     0.317 HD
HETATM   20  C           1     -21.134 -11.915  -4.384  0.00  0.00     0.033 C 
HETATM   21  C           1     -21.815 -10.783  -3.623  0.00  0.00     0.048 C 
ENDBRANCH  13  16
ENDBRANCH   1  12
TORSDOF 5
ENDMDL
MODEL 9
REMARK VINA RESULT:      -6.1     18.168     20.419
REMARK  5 active torsions:
REMARK  status: ('A' for Active; 'I' for Inactive)
REMARK    1  A    between atoms: C_2  and  C_13 
REMARK    2  A    between atoms: C_4  and  C_12 
REMARK    3  A    between atoms: C_12  and  C_13 
REMARK    4  A    between atoms: C_13  and  N_15 
REMARK       I    between atoms: N_15  and  C_16 
REMARK    5  A    between atoms: C_16  and  C_18 
ROOT
HETATM    1  C           1     -20.249  -9.568  -4.888  0.00  0.00     0.189 C 
ENDROOT
BRANCH   1   2
HETATM    2  C           1     -21.219 -10.593  -5.421  0.00  0.00     0.197 C 
HETATM    3  O           1     -21.267 -10.832  -6.646  0.00  0.00    -0.646 OA
HETATM    4  O           1     -21.976 -11.204  -4.635  0.00  0.00    -0.646 OA
ENDBRANCH   1   2
BRANCH   1   5
HETATM    5  C           1     -20.895  -8.189  -4.924  0.00  0.00     0.070 C 
BRANCH   5   6
HETATM    6  C           1     -21.279  -7.781  -3.536  0.00  0.00    -0.074 A 
HETATM    7  C           1     -21.059  -8.650  -2.467  0.00  0.00     0.024 A 
HETATM    8  C           1     -21.418  -8.271  -1.174  0.00  0.00    -0.022 A 
HETATM    9  C           1     -21.995  -7.021  -0.949  0.00  0.00    -0.004 A 
HETATM   10  C           1     -22.215  -6.151  -2.017  0.00  0.00     0.000 A 
HETATM   11  C           1     -21.856  -6.531  -3.310  0.00  0.00     0.003 A 
ENDBRANCH   5   6
ENDBRANCH   1   5
BRANCH   1  12
HETATM   12  N           1     -19.054  -9.562  -5.710  0.00  0.00    -0.344 N 
HETATM   13  C           1     -17.874 -10.042  -5.207  0.00  0.00     0.252 C 
HETATM   14  O           1     -16.879 -10.037  -5.892  0.00  0.00    -0.271 OA
HETATM   15  H           1     -19.092  -9.203  -6.655  0.00  0.00     0.163 HD
BRANCH  13  16
HETATM   16  C           1     -17.818 -10.579  -3.798  0.00  0.00     0.345 C 
HETATM   17  N           1     -16.799 -11.617  -3.677  0.00  0.00     0.097 N 
HETATM   18  C           1     -15.533 -10.895  -3.590  0.00  0.00     0.271 C 
HETATM   19  H           1     -16.938 -12.163  -2.827  0.00  0.00     0.317 HD
HETATM   20  C           1     -15.852  -9.709  -2.696  0.00  0.00     0.033 C 
HETATM   21  C           1     -17.357  -9.504  -2.828  0.00  0.00     0.048 C 
ENDBRANCH  13  16
ENDBRANCH   1  12
TORSDOF 5
ENDMDL
