MODEL 1
REMARK VINA RESULT:      -6.2      0.000      0.000
REMARK  8 active torsions:
REMARK  status: ('A' for Active; 'I' for Inactive)
REMARK    1  A    between atoms: N_4  and  C_7 
REMARK    2  A    between atoms: S_5  and  C_6 
REMARK    3  A    between atoms: C_6  and  C_7 
REMARK    4  A    between atoms: C_7  and  C_8 
REMARK       I    between atoms: C_8  and  N_9 
REMARK    5  A    between atoms: N_9  and  C_18 
REMARK    6  A    between atoms: C_18  and  C_20 
REMARK    7  A    between atoms: C_18  and  C_22 
REMARK    8  A    between atoms: C_22  and  C_23 
ROOT
HETATM    1  C           1     -21.601  -6.349  -4.730  0.00  0.00     0.249 C 
HETATM    2  N           1     -22.216  -5.598  -5.696  0.00  0.00    -0.344 N 
HETATM    3  O           1     -20.844  -5.824  -3.948  0.00  0.00    -0.271 OA
HETATM    4  H           1     -23.113  -5.169  -5.508  0.00  0.00     0.163 HD
ENDROOT
BRANCH   2   5
HETATM    5  C           1     -21.583  -5.419  -6.988  0.00  0.00     0.189 C 
BRANCH   5   6
HETATM    6  C           1     -20.085  -5.506  -6.829  0.00  0.00     0.197 C 
HETATM    7  O           1     -19.493  -6.582  -7.062  0.00  0.00    -0.646 OA
HETATM    8  O           1     -19.435  -4.503  -6.465  0.00  0.00    -0.646 OA
ENDBRANCH   5   6
BRANCH   5   9
HETATM    9  C           1     -21.957  -4.055  -7.552  0.00  0.00     0.074 C 
BRANCH   9  10
HETATM   10  C           1     -22.172  -4.167  -9.029  0.00  0.00    -0.056 A 
HETATM   11  C           1     -23.446  -4.430  -9.530  0.00  0.00     0.007 A 
HETATM   12  C           1     -23.646  -4.535 -10.908  0.00  0.00     0.001 A 
HETATM   13  C           1     -22.571  -4.377 -11.782  0.00  0.00     0.000 A 
HETATM   14  C           1     -21.296  -4.114 -11.280  0.00  0.00     0.001 A 
HETATM   15  C           1     -21.096  -4.010  -9.904  0.00  0.00     0.007 A 
ENDBRANCH   9  10
ENDBRANCH   5   9
ENDBRANCH   2   5
BRANCH   1  16
HETATM   16  C           1     -21.867  -7.832  -4.644  0.00  0.00     0.283 C 
BRANCH  16  17
HETATM   17  N           1     -21.060  -8.546  -5.686  0.00  0.00    -0.066 N 
HETATM   18  H           1     -21.693  -8.886  -6.445  0.00  0.00     0.275 HD
HETATM   19  H           1     -20.354  -7.890  -6.089  0.00  0.00     0.275 HD
HETATM   20  H           1     -20.572  -9.362  -5.250  0.00  0.00     0.275 HD
ENDBRANCH  16  17
BRANCH  16  21
HETATM   21  C           1     -21.474  -8.339  -3.262  0.00  0.00     0.113 C 
BRANCH  21  22
HETATM   22  S           1     -19.919  -9.268  -3.377  0.00  0.00    -0.180 SA
HETATM   23  H           1     -20.200 -10.133  -2.387  0.00  0.00     0.101 HD
ENDBRANCH  21  22
ENDBRANCH  16  21
ENDBRANCH   1  16
TORSDOF 8
ENDMDL
MODEL 2
REMARK VINA RESULT:      -6.2      4.104      7.023
REMARK  8 active torsions:
REMARK  status: ('A' for Active; 'I' for Inactive)
REMARK    1  A    between atoms: N_4  and  C_7 
REMARK    2  A    between atoms: S_5  and  C_6 
REMARK    3  A    between atoms: C_6  and  C_7 
REMARK    4  A    between atoms: C_7  and  C_8 
REMARK       I    between atoms: C_8  and  N_9 
REMARK    5  A    between atoms: N_9  and  C_18 
REMARK    6  A    between atoms: C_18  and  C_20 
REMARK    7  A    between atoms: C_18  and  C_22 
REMARK    8  A    between atoms: C_22  and  C_23 
ROOT
HETATM    1  C           1     -19.380  -9.506  -4.773  0.00  0.00     0.249 C 
HETATM    2  N           1     -19.708  -8.203  -4.510  0.00  0.00    -0.344 N 
HETATM    3  O           1     -19.495  -9.942  -5.894  0.00  0.00    -0.271 OA
HETATM    4  H           1     -19.008  -7.478  -4.591  0.00  0.00     0.163 HD
ENDROOT
BRANCH   2   5
HETATM    5  C           1     -21.061  -7.863  -4.112  0.00  0.00     0.189 C 
BRANCH   5   6
HETATM    6  C           1     -21.709  -7.034  -5.194  0.00  0.00     0.197 C 
HETATM    7  O           1     -21.256  -7.062  -6.358  0.00  0.00    -0.646 OA
HETATM    8  O           1     -22.698  -6.319  -4.926  0.00  0.00    -0.646 OA
ENDBRANCH   5   6
BRANCH   5   9
HETATM    9  C           1     -21.024  -7.067  -2.814  0.00  0.00     0.074 C 
BRANCH   9  10
HETATM   10  C           1     -21.763  -7.815  -1.749  0.00  0.00    -0.056 A 
HETATM   11  C           1     -21.869  -9.203  -1.817  0.00  0.00     0.007 A 
HETATM   12  C           1     -22.559  -9.900  -0.823  0.00  0.00     0.001 A 
HETATM   13  C           1     -23.142  -9.206   0.238  0.00  0.00     0.000 A 
HETATM   14  C           1     -23.035  -7.817   0.305  0.00  0.00     0.001 A 
HETATM   15  C           1     -22.346  -7.121  -0.688  0.00  0.00     0.007 A 
ENDBRANCH   9  10
ENDBRANCH   5   9
ENDBRANCH   2   5
BRANCH   1  16
HETATM   16  C           1     -18.874 -10.395  -3.664  0.00  0.00     0.283 C 
BRANCH  16  17
HETATM   17  N           1     -17.978 -11.451  -4.239  0.00  0.00    -0.066 N 
HETATM   18  H           1     -17.905 -12.249  -3.570  0.00  0.00     0.275 HD
HETATM   19  H           1     -18.377 -11.790  -5.143  0.00  0.00     0.275 HD
HETATM   20  H           1     -17.027 -11.048  -4.405  0.00  0.00     0.275 HD
ENDBRANCH  16  17
BRANCH  16  21
HETATM   21  C           1     -18.092  -9.558  -2.659  0.00  0.00     0.113 C 
BRANCH  21  22
HETATM   22  S           1     -16.318  -9.671  -3.027  0.00  0.00    -0.180 SA
HETATM   23  H           1     -16.197  -8.424  -3.516  0.00  0.00     0.101 HD
ENDBRANCH  21  22
ENDBRANCH  16  21
ENDBRANCH   1  16
TORSDOF 8
ENDMDL
MODEL 3
REMARK VINA RESULT:      -6.1      2.229      3.308
REMARK  8 active torsions:
REMARK  status: ('A' for Active; 'I' for Inactive)
REMARK    1  A    between atoms: N_4  and  C_7 
REMARK    2  A    between atoms: S_5  and  C_6 
REMARK    3  A    between atoms: C_6  and  C_7 
REMARK    4  A    between atoms: C_7  and  C_8 
REMARK       I    between atoms: C_8  and  N_9 
REMARK    5  A    between atoms: N_9  and  C_18 
REMARK    6  A    between atoms: C_18  and  C_20 
REMARK    7  A    between atoms: C_18  and  C_22 
REMARK    8  A    between atoms: C_22  and  C_23 
ROOT
HETATM    1  C           1     -21.947  -6.407  -2.671  0.00  0.00     0.249 C 
HETATM    2  N           1     -22.555  -6.500  -3.894  0.00  0.00    -0.344 N 
HETATM    3  O           1     -21.588  -5.331  -2.255  0.00  0.00    -0.271 OA
HETATM    4  H           1     -23.561  -6.422  -3.966  0.00  0.00     0.163 HD
ENDROOT
BRANCH   2   5
HETATM    5  C           1     -21.758  -6.711  -5.086  0.00  0.00     0.189 C 
BRANCH   5   6
HETATM    6  C           1     -20.971  -7.991  -4.944  0.00  0.00     0.197 C 
HETATM    7  O           1     -19.730  -7.949  -4.799  0.00  0.00    -0.646 OA
HETATM    8  O           1     -21.559  -9.093  -4.971  0.00  0.00    -0.646 OA
ENDBRANCH   5   6
BRANCH   5   9
HETATM    9  C           1     -20.799  -5.542  -5.270  0.00  0.00     0.074 C 
BRANCH   9  10
HETATM   10  C           1     -20.901  -5.028  -6.672  0.00  0.00    -0.056 A 
HETATM   11  C           1     -19.782  -5.043  -7.503  0.00  0.00     0.007 A 
HETATM   12  C           1     -19.878  -4.563  -8.811  0.00  0.00     0.001 A 
HETATM   13  C           1     -21.093  -4.067  -9.283  0.00  0.00     0.000 A 
HETATM   14  C           1     -22.212  -4.052  -8.450  0.00  0.00     0.001 A 
HETATM   15  C           1     -22.116  -4.532  -7.144  0.00  0.00     0.007 A 
ENDBRANCH   9  10
ENDBRANCH   5   9
ENDBRANCH   2   5
BRANCH   1  16
HETATM   16  C           1     -21.724  -7.650  -1.844  0.00  0.00     0.283 C 
BRANCH  16  17
HETATM   17  N           1     -20.252  -7.872  -1.664  0.00  0.00    -0.066 N 
HETATM   18  H           1     -19.730  -7.404  -2.438  0.00  0.00     0.275 HD
HETATM   19  H           1     -19.949  -7.471  -0.748  0.00  0.00     0.275 HD
HETATM   20  H           1     -20.050  -8.899  -1.680  0.00  0.00     0.275 HD
ENDBRANCH  16  17
BRANCH  16  21
HETATM   21  C           1     -22.382  -7.477  -0.481  0.00  0.00     0.113 C 
BRANCH  21  22
HETATM   22  S           1     -21.534  -8.521   0.739  0.00  0.00    -0.180 SA
HETATM   23  H           1     -20.619  -9.016  -0.113  0.00  0.00     0.101 HD
ENDBRANCH  21  22
ENDBRANCH  16  21
ENDBRANCH   1  16
TORSDOF 8
ENDMDL
MODEL 4
REMARK VINA RESULT:      -6.0      4.960      7.417
REMARK  8 active torsions:
REMARK  status: ('A' for Active; 'I' for Inactive)
REMARK    1  A    between atoms: N_4  and  C_7 
REMARK    2  A    between atoms: S_5  and  C_6 
REMARK    3  A    between atoms: C_6  and  C_7 
REMARK    4  A    between atoms: C_7  and  C_8 
REMARK       I    between atoms: C_8  and  N_9 
REMARK    5  A    between atoms: N_9  and  C_18 
REMARK    6  A    between atoms: C_18  and  C_20 
REMARK    7  A    between atoms: C_18  and  C_22 
REMARK    8  A    between atoms: C_22  and  C_23 
ROOT
HETATM    1  C           1     -19.861  -8.538  -4.880  0.00  0.00     0.249 C 
HETATM    2  N           1     -20.031  -7.978  -3.642  0.00  0.00    -0.344 N 
HETATM    3  O           1     -19.931  -7.849  -5.869  0.00  0.00    -0.271 OA
HETATM    4  H           1     -19.233  -7.615  -3.137  0.00  0.00     0.163 HD
ENDROOT
BRANCH   2   5
HETATM    5  C           1     -21.355  -7.905  -3.055  0.00  0.00     0.189 C 
BRANCH   5   6
HETATM    6  C           1     -21.857  -6.483  -3.123  0.00  0.00     0.197 C 
HETATM    7  O           1     -21.850  -5.869  -4.212  0.00  0.00    -0.646 OA
HETATM    8  O           1     -22.279  -5.920  -2.091  0.00  0.00    -0.646 OA
ENDBRANCH   5   6
BRANCH   5   9
HETATM    9  C           1     -21.291  -8.353  -1.601  0.00  0.00     0.074 C 
BRANCH   9  10
HETATM   10  C           1     -22.234  -9.496  -1.389  0.00  0.00    -0.056 A 
HETATM   11  C           1     -22.332 -10.506  -2.346  0.00  0.00     0.007 A 
HETATM   12  C           1     -23.211 -11.572  -2.148  0.00  0.00     0.001 A 
HETATM   13  C           1     -23.993 -11.625  -0.993  0.00  0.00     0.000 A 
HETATM   14  C           1     -23.894 -10.615  -0.037  0.00  0.00     0.001 A 
HETATM   15  C           1     -23.015  -9.550  -0.235  0.00  0.00     0.007 A 
ENDBRANCH   9  10
ENDBRANCH   5   9
ENDBRANCH   2   5
BRANCH   1  16
HETATM   16  C           1     -19.586 -10.017  -5.006  0.00  0.00     0.283 C 
BRANCH  16  17
HETATM   17  N           1     -20.595 -10.635  -5.928  0.00  0.00    -0.066 N 
HETATM   18  H           1     -21.467 -10.854  -5.395  0.00  0.00     0.275 HD
HETATM   19  H           1     -20.817  -9.967  -6.699  0.00  0.00     0.275 HD
HETATM   20  H           1     -20.204 -11.518  -6.331  0.00  0.00     0.275 HD
ENDBRANCH  16  17
BRANCH  16  21
HETATM   21  C           1     -18.187 -10.227  -5.571  0.00  0.00     0.113 C 
BRANCH  21  22
HETATM   22  S           1     -16.961 -10.015  -4.250  0.00  0.00    -0.180 SA
HETATM   23  H           1     -17.413 -11.019  -3.478  0.00  0.00     0.101 HD
ENDBRANCH  21  22
ENDBRANCH  16  21
ENDBRANCH   1  16
TORSDOF 8
ENDMDL
MODEL 5
REMARK VINA RESULT:      -6.0      5.301      8.383
REMARK  8 active torsions:
REMARK  status: ('A' for Active; 'I' for Inactive)
REMARK    1  A    between atoms: N_4  and  C_7 
REMARK    2  A    between atoms: S_5  and  C_6 
REMARK    3  A    between atoms: C_6  and  C_7 
REMARK    4  A    between atoms: C_7  and  C_8 
REMARK       I    between atoms: C_8  and  N_9 
REMARK    5  A    between atoms: N_9  and  C_18 
REMARK    6  A    between atoms: C_18  and  C_20 
REMARK    7  A    between atoms: C_18  and  C_22 
REMARK    8  A    between atoms: C_22  and  C_23 
ROOT
HETATM    1  C           1     -21.218  -8.670  -4.195  0.00  0.00     0.249 C 
HETATM    2  N           1     -20.865  -8.147  -2.980  0.00  0.00    -0.344 N 
HETATM    3  O           1     -21.787  -7.979  -5.007  0.00  0.00    -0.271 OA
HETATM    4  H           1     -19.962  -7.707  -2.862  0.00  0.00     0.163 HD
ENDROOT
BRANCH   2   5
HETATM    5  C           1     -21.786  -8.226  -1.862  0.00  0.00     0.189 C 
BRANCH   5   6
HETATM    6  C           1     -22.227  -6.836  -1.476  0.00  0.00     0.197 C 
HETATM    7  O           1     -22.203  -5.915  -2.320  0.00  0.00    -0.646 OA
HETATM    8  O           1     -22.615  -6.605  -0.310  0.00  0.00    -0.646 OA
ENDBRANCH   5   6
BRANCH   5   9
HETATM    9  C           1     -21.092  -8.888  -0.679  0.00  0.00     0.074 C 
BRANCH   9  10
HETATM   10  C           1     -21.863 -10.101  -0.262  0.00  0.00    -0.056 A 
HETATM   11  C           1     -21.213 -11.153   0.384  0.00  0.00     0.007 A 
HETATM   12  C           1     -21.933 -12.284   0.772  0.00  0.00     0.001 A 
HETATM   13  C           1     -23.301 -12.362   0.512  0.00  0.00     0.000 A 
HETATM   14  C           1     -23.950 -11.310  -0.134  0.00  0.00     0.001 A 
HETATM   15  C           1     -23.231 -10.180  -0.521  0.00  0.00     0.007 A 
ENDBRANCH   9  10
ENDBRANCH   5   9
ENDBRANCH   2   5
BRANCH   1  16
HETATM   16  C           1     -20.896 -10.108  -4.520  0.00  0.00     0.283 C 
BRANCH  16  17
HETATM   17  N           1     -20.909 -10.299  -6.007  0.00  0.00    -0.066 N 
HETATM   18  H           1     -20.683  -9.394  -6.478  0.00  0.00     0.275 HD
HETATM   19  H           1     -20.197 -11.016  -6.272  0.00  0.00     0.275 HD
HETATM   20  H           1     -21.858 -10.619  -6.309  0.00  0.00     0.275 HD
ENDBRANCH  16  17
BRANCH  16  21
HETATM   21  C           1     -19.516 -10.454  -3.976  0.00  0.00     0.113 C 
BRANCH  21  22
HETATM   22  S           1     -18.243  -9.848  -5.120  0.00  0.00    -0.180 SA
HETATM   23  H           1     -17.207 -10.446  -4.506  0.00  0.00     0.101 HD
ENDBRANCH  21  22
ENDBRANCH  16  21
ENDBRANCH   1  16
TORSDOF 8
ENDMDL
MODEL 6
REMARK VINA RESULT:      -6.0      6.119      8.435
REMARK  8 active torsions:
REMARK  status: ('A' for Active; 'I' for Inactive)
REMARK    1  A    between atoms: N_4  and  C_7 
REMARK    2  A    between atoms: S_5  and  C_6 
REMARK    3  A    between atoms: C_6  and  C_7 
REMARK    4  A    between atoms: C_7  and  C_8 
REMARK       I    between atoms: C_8  and  N_9 
REMARK    5  A    between atoms: N_9  and  C_18 
REMARK    6  A    between atoms: C_18  and  C_20 
REMARK    7  A    between atoms: C_18  and  C_22 
REMARK    8  A    between atoms: C_22  and  C_23 
ROOT
HETATM    1  C           1     -19.576  -8.933  -3.002  0.00  0.00     0.249 C 
HETATM    2  N           1     -20.023  -8.103  -2.009  0.00  0.00    -0.344 N 
HETATM    3  O           1     -19.550  -8.546  -4.146  0.00  0.00    -0.271 OA
HETATM    4  H           1     -19.373  -7.500  -1.523  0.00  0.00     0.163 HD
ENDROOT
BRANCH   2   5
HETATM    5  C           1     -21.430  -8.090  -1.654  0.00  0.00     0.189 C 
BRANCH   5   6
HETATM    6  C           1     -22.016  -6.737  -1.974  0.00  0.00     0.197 C 
HETATM    7  O           1     -21.978  -6.300  -3.144  0.00  0.00    -0.646 OA
HETATM    8  O           1     -22.539  -6.052  -1.069  0.00  0.00    -0.646 OA
ENDBRANCH   5   6
BRANCH   5   9
HETATM    9  C           1     -21.580  -8.371  -0.165  0.00  0.00     0.074 C 
BRANCH   9  10
HETATM   10  C           1     -22.091  -9.764   0.031  0.00  0.00    -0.056 A 
HETATM   11  C           1     -23.420 -10.067  -0.261  0.00  0.00     0.007 A 
HETATM   12  C           1     -23.896 -11.366  -0.077  0.00  0.00     0.001 A 
HETATM   13  C           1     -23.041 -12.361   0.399  0.00  0.00     0.000 A 
HETATM   14  C           1     -21.711 -12.056   0.691  0.00  0.00     0.001 A 
HETATM   15  C           1     -21.236 -10.758   0.508  0.00  0.00     0.007 A 
ENDBRANCH   9  10
ENDBRANCH   5   9
ENDBRANCH   2   5
BRANCH   1  16
HETATM   16  C           1     -19.116 -10.330  -2.666  0.00  0.00     0.283 C 
BRANCH  16  17
HETATM   17  N           1     -20.235 -11.298  -2.916  0.00  0.00    -0.066 N 
HETATM   18  H           1     -19.855 -12.161  -3.367  0.00  0.00     0.275 HD
HETATM   19  H           1     -20.686 -11.549  -2.008  0.00  0.00     0.275 HD
HETATM   20  H           1     -20.942 -10.857  -3.548  0.00  0.00     0.275 HD
ENDBRANCH  16  17
BRANCH  16  21
HETATM   21  C           1     -17.924 -10.696  -3.541  0.00  0.00     0.113 C 
BRANCH  21  22
HETATM   22  S           1     -16.426  -9.911  -2.884  0.00  0.00    -0.180 SA
HETATM   23  H           1     -16.909  -8.656  -2.896  0.00  0.00     0.101 HD
ENDBRANCH  21  22
ENDBRANCH  16  21
ENDBRANCH   1  16
TORSDOF 8
ENDMDL
MODEL 7
REMARK VINA RESULT:      -5.7      3.944      6.842
REMARK  8 active torsions:
REMARK  status: ('A' for Active; 'I' for Inactive)
REMARK    1  A    between atoms: N_4  and  C_7 
REMARK    2  A    between atoms: S_5  and  C_6 
REMARK    3  A    between atoms: C_6  and  C_7 
REMARK    4  A    between atoms: C_7  and  C_8 
REMARK       I    between atoms: C_8  and  N_9 
REMARK    5  A    between atoms: N_9  and  C_18 
REMARK    6  A    between atoms: C_18  and  C_20 
REMARK    7  A    between atoms: C_18  and  C_22 
REMARK    8  A    between atoms: C_22  and  C_23 
ROOT
HETATM    1  C           1     -21.289  -6.662  -4.525  0.00  0.00     0.249 C 
HETATM    2  N           1     -20.771  -7.257  -3.405  0.00  0.00    -0.344 N 
HETATM    3  O           1     -22.483  -6.519  -4.635  0.00  0.00    -0.271 OA
HETATM    4  H           1     -20.522  -6.694  -2.603  0.00  0.00     0.163 HD
ENDROOT
BRANCH   2   5
HETATM    5  C           1     -20.580  -8.694  -3.371  0.00  0.00     0.189 C 
BRANCH   5   6
HETATM    6  C           1     -21.712  -9.334  -2.606  0.00  0.00     0.197 C 
HETATM    7  O           1     -22.297 -10.334  -3.076  0.00  0.00    -0.646 OA
HETATM    8  O           1     -22.065  -8.864  -1.503  0.00  0.00    -0.646 OA
ENDBRANCH   5   6
BRANCH   5   9
HETATM    9  C           1     -19.258  -9.014  -2.686  0.00  0.00     0.074 C 
BRANCH   9  10
HETATM   10  C           1     -18.229  -9.354  -3.719  0.00  0.00    -0.056 A 
HETATM   11  C           1     -16.904  -9.564  -3.340  0.00  0.00     0.007 A 
HETATM   12  C           1     -15.945  -9.880  -4.304  0.00  0.00     0.001 A 
HETATM   13  C           1     -16.313  -9.985  -5.646  0.00  0.00     0.000 A 
HETATM   14  C           1     -17.639  -9.775  -6.023  0.00  0.00     0.001 A 
HETATM   15  C           1     -18.597  -9.459  -5.060  0.00  0.00     0.007 A 
ENDBRANCH   9  10
ENDBRANCH   5   9
ENDBRANCH   2   5
BRANCH   1  16
HETATM   16  C           1     -20.366  -6.185  -5.619  0.00  0.00     0.283 C 
BRANCH  16  17
HETATM   17  N           1     -20.884  -6.651  -6.947  0.00  0.00    -0.066 N 
HETATM   18  H           1     -20.152  -7.224  -7.426  0.00  0.00     0.275 HD
HETATM   19  H           1     -21.740  -7.231  -6.802  0.00  0.00     0.275 HD
HETATM   20  H           1     -21.118  -5.822  -7.540  0.00  0.00     0.275 HD
ENDBRANCH  16  17
BRANCH  16  21
HETATM   21  C           1     -20.305  -4.663  -5.604  0.00  0.00     0.113 C 
BRANCH  21  22
HETATM   22  S           1     -21.063  -4.010  -7.119  0.00  0.00    -0.180 SA
HETATM   23  H           1     -20.050  -4.346  -7.938  0.00  0.00     0.101 HD
ENDBRANCH  21  22
ENDBRANCH  16  21
ENDBRANCH   1  16
TORSDOF 8
ENDMDL
MODEL 8
REMARK VINA RESULT:      -5.7      3.021      4.212
REMARK  8 active torsions:
REMARK  status: ('A' for Active; 'I' for Inactive)
REMARK    1  A    between atoms: N_4  and  C_7 
REMARK    2  A    between atoms: S_5  and  C_6 
REMARK    3  A    between atoms: C_6  and  C_7 
REMARK    4  A    between atoms: C_7  and  C_8 
REMARK       I    between atoms: C_8  and  N_9 
REMARK    5  A    between atoms: N_9  and  C_18 
REMARK    6  A    between atoms: C_18  and  C_20 
REMARK    7  A    between atoms: C_18  and  C_22 
REMARK    8  A    between atoms: C_22  and  C_23 
ROOT
HETATM    1  C           1     -19.729  -9.247  -3.832  0.00  0.00     0.249 C 
HETATM    2  N           1     -20.984  -8.701  -3.850  0.00  0.00    -0.344 N 
HETATM    3  O           1     -19.177  -9.460  -2.779  0.00  0.00    -0.271 OA
HETATM    4  H           1     -21.797  -9.301  -3.836  0.00  0.00     0.163 HD
ENDROOT
BRANCH   2   5
HETATM    5  C           1     -21.146  -7.260  -3.890  0.00  0.00     0.189 C 
BRANCH   5   6
HETATM    6  C           1     -21.679  -6.778  -2.564  0.00  0.00     0.197 C 
HETATM    7  O           1     -21.259  -7.283  -1.500  0.00  0.00    -0.646 OA
HETATM    8  O           1     -22.540  -5.873  -2.527  0.00  0.00    -0.646 OA
ENDBRANCH   5   6
BRANCH   5   9
HETATM    9  C           1     -22.125  -6.890  -4.997  0.00  0.00     0.074 C 
BRANCH   9  10
HETATM   10  C           1     -21.510  -5.850  -5.880  0.00  0.00    -0.056 A 
HETATM   11  C           1     -22.325  -4.995  -6.622  0.00  0.00     0.007 A 
HETATM   12  C           1     -21.751  -4.026  -7.446  0.00  0.00     0.001 A 
HETATM   13  C           1     -20.363  -3.912  -7.527  0.00  0.00     0.000 A 
HETATM   14  C           1     -19.549  -4.767  -6.784  0.00  0.00     0.001 A 
HETATM   15  C           1     -20.122  -5.736  -5.961  0.00  0.00     0.007 A 
ENDBRANCH   9  10
ENDBRANCH   5   9
ENDBRANCH   2   5
BRANCH   1  16
HETATM   16  C           1     -19.035  -9.584  -5.130  0.00  0.00     0.283 C 
BRANCH  16  17
HETATM   17  N           1     -17.558  -9.690  -4.893  0.00  0.00    -0.066 N 
HETATM   18  H           1     -17.047  -9.502  -5.785  0.00  0.00     0.275 HD
HETATM   19  H           1     -17.270  -8.990  -4.173  0.00  0.00     0.275 HD
HETATM   20  H           1     -17.326 -10.653  -4.557  0.00  0.00     0.275 HD
ENDBRANCH  16  17
BRANCH  16  21
HETATM   21  C           1     -19.560 -10.914  -5.656  0.00  0.00     0.113 C 
BRANCH  21  22
HETATM   22  S           1     -18.247 -12.164  -5.566  0.00  0.00    -0.180 SA
HETATM   23  H           1     -17.749 -11.759  -4.385  0.00  0.00     0.101 HD
ENDBRANCH  21  22
ENDBRANCH  16  21
ENDBRANCH   1  16
TORSDOF 8
ENDMDL
MODEL 9
REMARK VINA RESULT:      -5.3      5.724      7.039
REMARK  8 active torsions:
REMARK  status: ('A' for Active; 'I' for Inactive)
REMARK    1  A    between atoms: N_4  and  C_7 
REMARK    2  A    between atoms: S_5  and  C_6 
REMARK    3  A    between atoms: C_6  and  C_7 
REMARK    4  A    between atoms: C_7  and  C_8 
REMARK       I    between atoms: C_8  and  N_9 
REMARK    5  A    between atoms: N_9  and  C_18 
REMARK    6  A    between atoms: C_18  and  C_20 
REMARK    7  A    between atoms: C_18  and  C_22 
REMARK    8  A    between atoms: C_22  and  C_23 
ROOT
HETATM    1  C           1     -20.861 -11.683  -4.975  0.00  0.00     0.249 C 
HETATM    2  N           1     -19.984 -11.125  -4.083  0.00  0.00    -0.344 N 
HETATM    3  O           1     -20.485 -11.984  -6.083  0.00  0.00    -0.271 OA
HETATM    4  H           1     -19.447 -11.716  -3.464  0.00  0.00     0.163 HD
ENDROOT
BRANCH   2   5
HETATM    5  C           1     -19.828  -9.684  -4.027  0.00  0.00     0.189 C 
BRANCH   5   6
HETATM    6  C           1     -18.756  -9.256  -4.998  0.00  0.00     0.197 C 
HETATM    7  O           1     -17.574  -9.624  -4.826  0.00  0.00    -0.646 OA
HETATM    8  O           1     -19.049  -8.534  -5.975  0.00  0.00    -0.646 OA
ENDBRANCH   5   6
BRANCH   5   9
HETATM    9  C           1     -19.430  -9.272  -2.616  0.00  0.00     0.074 C 
BRANCH   9  10
HETATM   10  C           1     -20.474  -8.361  -2.048  0.00  0.00    -0.056 A 
HETATM   11  C           1     -20.962  -8.577  -0.760  0.00  0.00     0.007 A 
HETATM   12  C           1     -21.936  -7.728  -0.231  0.00  0.00     0.001 A 
HETATM   13  C           1     -22.421  -6.665  -0.992  0.00  0.00     0.000 A 
HETATM   14  C           1     -21.932  -6.450  -2.281  0.00  0.00     0.001 A 
HETATM   15  C           1     -20.960  -7.298  -2.809  0.00  0.00     0.007 A 
ENDBRANCH   9  10
ENDBRANCH   5   9
ENDBRANCH   2   5
BRANCH   1  16
HETATM   16  C           1     -22.295 -11.923  -4.572  0.00  0.00     0.283 C 
BRANCH  16  17
HETATM   17  N           1     -22.937 -12.865  -5.546  0.00  0.00    -0.066 N 
HETATM   18  H           1     -22.942 -13.830  -5.146  0.00  0.00     0.275 HD
HETATM   19  H           1     -23.918 -12.560  -5.731  0.00  0.00     0.275 HD
HETATM   20  H           1     -22.395 -12.864  -6.441  0.00  0.00     0.275 HD
ENDBRANCH  16  17
BRANCH  16  21
HETATM   21  C           1     -22.336 -12.530  -3.176  0.00  0.00     0.113 C 
BRANCH  21  22
HETATM   22  S           1     -23.123 -11.364  -2.029  0.00  0.00    -0.180 SA
HETATM   23  H           1     -24.388 -11.644  -2.391  0.00  0.00     0.101 HD
ENDBRANCH  21  22
ENDBRANCH  16  21
ENDBRANCH   1  16
TORSDOF 8
ENDMDL
