MODEL 1
REMARK VINA RESULT:      -7.4      0.000      0.000
REMARK  8 active torsions:
REMARK  status: ('A' for Active; 'I' for Inactive)
REMARK    1  A    between atoms: C_4  and  C_20 
REMARK    2  A    between atoms: C_4  and  C_16 
REMARK    3  A    between atoms: C_4  and  N_14 
REMARK    4  A    between atoms: O_6  and  C_19 
REMARK    5  A    between atoms: C_8  and  C_16 
REMARK    6  A    between atoms: C_9  and  C_13 
REMARK    7  A    between atoms: C_13  and  C_19 
REMARK    8  A    between atoms: C_13  and  N_17 
REMARK       I    between atoms: N_17  and  C_20 
ROOT
HETATM    1  C           1     -35.907  -0.674 -11.248  0.00  0.00     0.278 C 
ENDROOT
BRANCH   1   2
HETATM    2  C           1     -36.722  -0.511 -12.508  0.00  0.00     0.249 C 
HETATM    3  N           1     -36.100  -0.489 -13.727  0.00  0.00    -0.343 N 
HETATM    4  H           1     -35.094  -0.583 -13.784  0.00  0.00     0.163 HD
HETATM    5  O           1     -37.923  -0.399 -12.439  0.00  0.00    -0.271 OA
BRANCH   3   6
HETATM    6  C           1     -36.884  -0.333 -14.937  0.00  0.00     0.214 C 
BRANCH   6   7
HETATM    7  C           1     -36.168  -0.998 -16.088  0.00  0.00     0.199 C 
HETATM    8  O           1     -35.130  -1.662 -15.880  0.00  0.00    -0.646 OA
HETATM    9  O           1     -36.614  -0.884 -17.250  0.00  0.00    -0.646 OA
ENDBRANCH   6   7
BRANCH   6  10
HETATM   10  C           1     -37.062   1.149 -15.240  0.00  0.00     0.147 C 
HETATM   11  C           1     -35.743   1.730 -15.731  0.00  0.00     0.042 C 
BRANCH  10  12
HETATM   12  O           1     -38.040   1.307 -16.232  0.00  0.00    -0.393 OA
HETATM   13  H           1     -38.499   2.107 -16.039  0.00  0.00     0.210 HD
ENDBRANCH  10  12
ENDBRANCH   6  10
ENDBRANCH   3   6
ENDBRANCH   1   2
BRANCH   1  14
HETATM   14  C           1     -36.220  -2.021 -10.611  0.00  0.00     0.081 C 
BRANCH  14  15
HETATM   15  C           1     -35.120  -2.988 -10.918  0.00  0.00    -0.056 A 
HETATM   16  C           1     -35.376  -4.359 -10.920  0.00  0.00     0.007 A 
HETATM   17  C           1     -34.350  -5.260 -11.207  0.00  0.00     0.001 A 
HETATM   18  C           1     -33.068  -4.789 -11.491  0.00  0.00     0.000 A 
HETATM   19  C           1     -32.812  -3.418 -11.490  0.00  0.00     0.001 A 
HETATM   20  C           1     -33.838  -2.517 -11.204  0.00  0.00     0.007 A 
ENDBRANCH  14  15
ENDBRANCH   1  14
BRANCH   1  21
HETATM   21  N           1     -36.249   0.425 -10.286  0.00  0.00    -0.066 N 
HETATM   22  H           1     -37.170   0.843 -10.549  0.00  0.00     0.275 HD
HETATM   23  H           1     -35.508   1.161 -10.321  0.00  0.00     0.275 HD
HETATM   24  H           1     -36.307   0.036  -9.318  0.00  0.00     0.275 HD
ENDBRANCH   1  21
TORSDOF 8
ENDMDL
MODEL 2
REMARK VINA RESULT:      -7.3     13.395     15.608
REMARK  8 active torsions:
REMARK  status: ('A' for Active; 'I' for Inactive)
REMARK    1  A    between atoms: C_4  and  C_20 
REMARK    2  A    between atoms: C_4  and  C_16 
REMARK    3  A    between atoms: C_4  and  N_14 
REMARK    4  A    between atoms: O_6  and  C_19 
REMARK    5  A    between atoms: C_8  and  C_16 
REMARK    6  A    between atoms: C_9  and  C_13 
REMARK    7  A    between atoms: C_13  and  C_19 
REMARK    8  A    between atoms: C_13  and  N_17 
REMARK       I    between atoms: N_17  and  C_20 
ROOT
HETATM    1  C           1     -21.168  -5.662  -7.050  0.00  0.00     0.278 C 
ENDROOT
BRANCH   1   2
HETATM    2  C           1     -21.766  -4.543  -7.868  0.00  0.00     0.249 C 
HETATM    3  N           1     -22.163  -4.776  -9.157  0.00  0.00    -0.343 N 
HETATM    4  H           1     -22.057  -5.697  -9.561  0.00  0.00     0.163 HD
HETATM    5  O           1     -21.894  -3.444  -7.384  0.00  0.00    -0.271 OA
BRANCH   3   6
HETATM    6  C           1     -22.738  -3.700  -9.942  0.00  0.00     0.214 C 
BRANCH   6   7
HETATM    7  C           1     -24.205  -3.976 -10.173  0.00  0.00     0.199 C 
HETATM    8  O           1     -24.689  -5.084  -9.861  0.00  0.00    -0.646 OA
HETATM    9  O           1     -24.933  -3.095 -10.678  0.00  0.00    -0.646 OA
ENDBRANCH   6   7
BRANCH   6  10
HETATM   10  C           1     -22.022  -3.610 -11.282  0.00  0.00     0.147 C 
HETATM   11  C           1     -20.570  -4.036 -11.113  0.00  0.00     0.042 C 
BRANCH  10  12
HETATM   12  O           1     -22.652  -4.457 -12.206  0.00  0.00    -0.393 OA
HETATM   13  H           1     -22.603  -4.032 -13.045  0.00  0.00     0.210 HD
ENDBRANCH  10  12
ENDBRANCH   6  10
ENDBRANCH   3   6
ENDBRANCH   1   2
BRANCH   1  14
HETATM   14  C           1     -20.930  -5.180  -5.625  0.00  0.00     0.081 C 
BRANCH  14  15
HETATM   15  C           1     -21.173  -6.305  -4.668  0.00  0.00    -0.056 A 
HETATM   16  C           1     -21.264  -6.050  -3.300  0.00  0.00     0.007 A 
HETATM   17  C           1     -21.491  -7.099  -2.409  0.00  0.00     0.001 A 
HETATM   18  C           1     -21.626  -8.403  -2.887  0.00  0.00     0.000 A 
HETATM   19  C           1     -21.536  -8.657  -4.255  0.00  0.00     0.001 A 
HETATM   20  C           1     -21.309  -7.609  -5.146  0.00  0.00     0.007 A 
ENDBRANCH  14  15
ENDBRANCH   1  14
BRANCH   1  21
HETATM   21  N           1     -19.863  -6.083  -7.659  0.00  0.00    -0.066 N 
HETATM   22  H           1     -20.042  -6.767  -8.428  0.00  0.00     0.275 HD
HETATM   23  H           1     -19.265  -6.528  -6.926  0.00  0.00     0.275 HD
HETATM   24  H           1     -19.373  -5.245  -8.046  0.00  0.00     0.275 HD
ENDBRANCH   1  21
TORSDOF 8
ENDMDL
MODEL 3
REMARK VINA RESULT:      -6.8      2.302      4.012
REMARK  8 active torsions:
REMARK  status: ('A' for Active; 'I' for Inactive)
REMARK    1  A    between atoms: C_4  and  C_20 
REMARK    2  A    between atoms: C_4  and  C_16 
REMARK    3  A    between atoms: C_4  and  N_14 
REMARK    4  A    between atoms: O_6  and  C_19 
REMARK    5  A    between atoms: C_8  and  C_16 
REMARK    6  A    between atoms: C_9  and  C_13 
REMARK    7  A    between atoms: C_13  and  C_19 
REMARK    8  A    between atoms: C_13  and  N_17 
REMARK       I    between atoms: N_17  and  C_20 
ROOT
HETATM    1  C           1     -34.130  -3.951 -12.580  0.00  0.00     0.278 C 
ENDROOT
BRANCH   1   2
HETATM    2  C           1     -34.363  -2.505 -12.215  0.00  0.00     0.249 C 
HETATM    3  N           1     -35.280  -1.764 -12.910  0.00  0.00    -0.343 N 
HETATM    4  H           1     -35.801  -2.184 -13.668  0.00  0.00     0.163 HD
HETATM    5  O           1     -33.741  -2.004 -11.309  0.00  0.00    -0.271 OA
BRANCH   3   6
HETATM    6  C           1     -35.504  -0.374 -12.558  0.00  0.00     0.214 C 
BRANCH   6   7
HETATM    7  C           1     -36.509  -0.297 -11.434  0.00  0.00     0.199 C 
HETATM    8  O           1     -37.572  -0.949 -11.501  0.00  0.00    -0.646 OA
HETATM    9  O           1     -36.277   0.421 -10.439  0.00  0.00    -0.646 OA
ENDBRANCH   6   7
BRANCH   6  10
HETATM   10  C           1     -36.039   0.378 -13.769  0.00  0.00     0.147 C 
HETATM   11  C           1     -34.876   0.817 -14.649  0.00  0.00     0.042 C 
BRANCH  10  12
HETATM   12  O           1     -36.887  -0.464 -14.503  0.00  0.00    -0.393 OA
HETATM   13  H           1     -36.346  -0.928 -15.119  0.00  0.00     0.210 HD
ENDBRANCH  10  12
ENDBRANCH   6  10
ENDBRANCH   3   6
ENDBRANCH   1   2
BRANCH   1  14
HETATM   14  C           1     -33.054  -4.537 -11.676  0.00  0.00     0.081 C 
BRANCH  14  15
HETATM   15  C           1     -33.601  -5.729 -10.955  0.00  0.00    -0.056 A 
HETATM   16  C           1     -32.881  -6.924 -10.935  0.00  0.00     0.007 A 
HETATM   17  C           1     -33.391  -8.034 -10.263  0.00  0.00     0.001 A 
HETATM   18  C           1     -34.621  -7.949  -9.609  0.00  0.00     0.000 A 
HETATM   19  C           1     -35.340  -6.754  -9.628  0.00  0.00     0.001 A 
HETATM   20  C           1     -34.830  -5.644 -10.300  0.00  0.00     0.007 A 
ENDBRANCH  14  15
ENDBRANCH   1  14
BRANCH   1  21
HETATM   21  N           1     -33.683  -4.038 -14.010  0.00  0.00    -0.066 N 
HETATM   22  H           1     -33.938  -4.974 -14.398  0.00  0.00     0.275 HD
HETATM   23  H           1     -32.646  -3.910 -14.057  0.00  0.00     0.275 HD
HETATM   24  H           1     -34.152  -3.289 -14.568  0.00  0.00     0.275 HD
ENDBRANCH   1  21
TORSDOF 8
ENDMDL
MODEL 4
REMARK VINA RESULT:      -6.7     14.406     17.209
REMARK  8 active torsions:
REMARK  status: ('A' for Active; 'I' for Inactive)
REMARK    1  A    between atoms: C_4  and  C_20 
REMARK    2  A    between atoms: C_4  and  C_16 
REMARK    3  A    between atoms: C_4  and  N_14 
REMARK    4  A    between atoms: O_6  and  C_19 
REMARK    5  A    between atoms: C_8  and  C_16 
REMARK    6  A    between atoms: C_9  and  C_13 
REMARK    7  A    between atoms: C_13  and  C_19 
REMARK    8  A    between atoms: C_13  and  N_17 
REMARK       I    between atoms: N_17  and  C_20 
ROOT
HETATM    1  C           1     -21.718  -4.525  -7.307  0.00  0.00     0.278 C 
ENDROOT
BRANCH   1   2
HETATM    2  C           1     -20.950  -5.284  -6.252  0.00  0.00     0.249 C 
HETATM    3  N           1     -21.553  -6.307  -5.571  0.00  0.00    -0.343 N 
HETATM    4  H           1     -22.512  -6.555  -5.774  0.00  0.00     0.163 HD
HETATM    5  O           1     -19.805  -4.987  -6.009  0.00  0.00    -0.271 OA
BRANCH   3   6
HETATM    6  C           1     -20.814  -7.035  -4.557  0.00  0.00     0.214 C 
BRANCH   6   7
HETATM    7  C           1     -20.406  -8.382  -5.104  0.00  0.00     0.199 C 
HETATM    8  O           1     -21.181  -9.357  -5.006  0.00  0.00    -0.646 OA
HETATM    9  O           1     -19.292  -8.521  -5.653  0.00  0.00    -0.646 OA
ENDBRANCH   6   7
BRANCH   6  10
HETATM   10  C           1     -21.693  -7.232  -3.330  0.00  0.00     0.147 C 
HETATM   11  C           1     -20.821  -7.576  -2.129  0.00  0.00     0.042 C 
BRANCH  10  12
HETATM   12  O           1     -22.401  -6.050  -3.068  0.00  0.00    -0.393 OA
HETATM   13  H           1     -22.178  -5.441  -3.752  0.00  0.00     0.210 HD
ENDBRANCH  10  12
ENDBRANCH   6  10
ENDBRANCH   3   6
ENDBRANCH   1   2
BRANCH   1  14
HETATM   14  C           1     -21.160  -4.864  -8.683  0.00  0.00     0.081 C 
BRANCH  14  15
HETATM   15  C           1     -21.994  -4.204  -9.737  0.00  0.00    -0.056 A 
HETATM   16  C           1     -23.385  -4.255  -9.660  0.00  0.00     0.007 A 
HETATM   17  C           1     -24.161  -3.640 -10.642  0.00  0.00     0.001 A 
HETATM   18  C           1     -23.545  -2.974 -11.702  0.00  0.00     0.000 A 
HETATM   19  C           1     -22.154  -2.922 -11.779  0.00  0.00     0.001 A 
HETATM   20  C           1     -21.378  -3.537 -10.796  0.00  0.00     0.007 A 
ENDBRANCH  14  15
ENDBRANCH   1  14
BRANCH   1  21
HETATM   21  N           1     -21.581  -3.052  -7.061  0.00  0.00    -0.066 N 
HETATM   22  H           1     -21.647  -2.540  -7.970  0.00  0.00     0.275 HD
HETATM   23  H           1     -20.655  -2.858  -6.616  0.00  0.00     0.275 HD
HETATM   24  H           1     -22.346  -2.732  -6.425  0.00  0.00     0.275 HD
ENDBRANCH   1  21
TORSDOF 8
ENDMDL
MODEL 5
REMARK VINA RESULT:      -6.6     15.073     17.920
REMARK  8 active torsions:
REMARK  status: ('A' for Active; 'I' for Inactive)
REMARK    1  A    between atoms: C_4  and  C_20 
REMARK    2  A    between atoms: C_4  and  C_16 
REMARK    3  A    between atoms: C_4  and  N_14 
REMARK    4  A    between atoms: O_6  and  C_19 
REMARK    5  A    between atoms: C_8  and  C_16 
REMARK    6  A    between atoms: C_9  and  C_13 
REMARK    7  A    between atoms: C_13  and  C_19 
REMARK    8  A    between atoms: C_13  and  N_17 
REMARK       I    between atoms: N_17  and  C_20 
ROOT
HETATM    1  C           1     -20.973  -4.940  -6.401  0.00  0.00     0.278 C 
ENDROOT
BRANCH   1   2
HETATM    2  C           1     -21.677  -5.887  -5.460  0.00  0.00     0.249 C 
HETATM    3  N           1     -20.948  -6.673  -4.610  0.00  0.00    -0.343 N 
HETATM    4  H           1     -19.938  -6.620  -4.611  0.00  0.00     0.163 HD
HETATM    5  O           1     -22.883  -5.950  -5.459  0.00  0.00    -0.271 OA
BRANCH   3   6
HETATM    6  C           1     -21.625  -7.584  -3.706  0.00  0.00     0.214 C 
BRANCH   6   7
HETATM    7  C           1     -21.655  -6.986  -2.320  0.00  0.00     0.199 C 
HETATM    8  O           1     -22.340  -5.966  -2.094  0.00  0.00    -0.646 OA
HETATM    9  O           1     -20.992  -7.510  -1.400  0.00  0.00    -0.646 OA
ENDBRANCH   6   7
BRANCH   6  10
HETATM   10  C           1     -20.882  -8.912  -3.670  0.00  0.00     0.147 C 
HETATM   11  C           1     -21.233  -9.725  -4.909  0.00  0.00     0.042 C 
BRANCH  10  12
HETATM   12  O           1     -19.500  -8.673  -3.644  0.00  0.00    -0.393 OA
HETATM   13  H           1     -19.093  -9.375  -4.122  0.00  0.00     0.210 HD
ENDBRANCH  10  12
ENDBRANCH   6  10
ENDBRANCH   3   6
ENDBRANCH   1   2
BRANCH   1  14
HETATM   14  C           1     -20.653  -5.661  -7.704  0.00  0.00     0.081 C 
BRANCH  14  15
HETATM   15  C           1     -21.115  -4.832  -8.862  0.00  0.00    -0.056 A 
HETATM   16  C           1     -22.440  -4.403  -8.928  0.00  0.00     0.007 A 
HETATM   17  C           1     -22.870  -3.630 -10.007  0.00  0.00     0.001 A 
HETATM   18  C           1     -21.973  -3.286 -11.019  0.00  0.00     0.000 A 
HETATM   19  C           1     -20.648  -3.715 -10.952  0.00  0.00     0.001 A 
HETATM   20  C           1     -20.218  -4.487  -9.873  0.00  0.00     0.007 A 
ENDBRANCH  14  15
ENDBRANCH   1  14
BRANCH   1  21
HETATM   21  N           1     -19.698  -4.464  -5.769  0.00  0.00    -0.066 N 
HETATM   22  H           1     -18.921  -5.116  -6.020  0.00  0.00     0.275 HD
HETATM   23  H           1     -19.814  -4.441  -4.730  0.00  0.00     0.275 HD
HETATM   24  H           1     -19.474  -3.504  -6.115  0.00  0.00     0.275 HD
ENDBRANCH   1  21
TORSDOF 8
ENDMDL
MODEL 6
REMARK VINA RESULT:      -6.5      4.921      7.031
REMARK  8 active torsions:
REMARK  status: ('A' for Active; 'I' for Inactive)
REMARK    1  A    between atoms: C_4  and  C_20 
REMARK    2  A    between atoms: C_4  and  C_16 
REMARK    3  A    between atoms: C_4  and  N_14 
REMARK    4  A    between atoms: O_6  and  C_19 
REMARK    5  A    between atoms: C_8  and  C_16 
REMARK    6  A    between atoms: C_9  and  C_13 
REMARK    7  A    between atoms: C_13  and  C_19 
REMARK    8  A    between atoms: C_13  and  N_17 
REMARK       I    between atoms: N_17  and  C_20 
ROOT
HETATM    1  C           1     -33.166  -4.480 -16.642  0.00  0.00     0.278 C 
ENDROOT
BRANCH   1   2
HETATM    2  C           1     -33.966  -4.551 -15.364  0.00  0.00     0.249 C 
HETATM    3  N           1     -33.466  -4.001 -14.214  0.00  0.00    -0.343 N 
HETATM    4  H           1     -32.562  -3.547 -14.221  0.00  0.00     0.163 HD
HETATM    5  O           1     -35.045  -5.092 -15.357  0.00  0.00    -0.271 OA
BRANCH   3   6
HETATM    6  C           1     -34.235  -4.069 -12.986  0.00  0.00     0.214 C 
BRANCH   6   7
HETATM    7  C           1     -34.866  -2.724 -12.714  0.00  0.00     0.199 C 
HETATM    8  O           1     -34.638  -1.761 -13.476  0.00  0.00    -0.646 OA
HETATM    9  O           1     -35.615  -2.575 -11.725  0.00  0.00    -0.646 OA
ENDBRANCH   6   7
BRANCH   6  10
HETATM   10  C           1     -33.316  -4.441 -11.830  0.00  0.00     0.147 C 
HETATM   11  C           1     -33.916  -5.610 -11.061  0.00  0.00     0.042 C 
BRANCH  10  12
HETATM   12  O           1     -32.060  -4.808 -12.333  0.00  0.00    -0.393 OA
HETATM   13  H           1     -31.948  -5.725 -12.146  0.00  0.00     0.210 HD
ENDBRANCH  10  12
ENDBRANCH   6  10
ENDBRANCH   3   6
ENDBRANCH   1   2
BRANCH   1  14
HETATM   14  C           1     -31.682  -4.394 -16.309  0.00  0.00     0.081 C 
BRANCH  14  15
HETATM   15  C           1     -30.983  -5.616 -16.817  0.00  0.00    -0.056 A 
HETATM   16  C           1     -31.610  -6.442 -17.749  0.00  0.00     0.007 A 
HETATM   17  C           1     -30.958  -7.581 -18.222  0.00  0.00     0.001 A 
HETATM   18  C           1     -29.678  -7.893 -17.764  0.00  0.00     0.000 A 
HETATM   19  C           1     -29.050  -7.065 -16.832  0.00  0.00     0.001 A 
HETATM   20  C           1     -29.702  -5.927 -16.359  0.00  0.00     0.007 A 
ENDBRANCH  14  15
ENDBRANCH   1  14
BRANCH   1  21
HETATM   21  N           1     -33.574  -3.264 -17.420  0.00  0.00    -0.066 N 
HETATM   22  H           1     -33.877  -3.550 -18.378  0.00  0.00     0.275 HD
HETATM   23  H           1     -32.764  -2.608 -17.489  0.00  0.00     0.275 HD
HETATM   24  H           1     -34.366  -2.788 -16.932  0.00  0.00     0.275 HD
ENDBRANCH   1  21
TORSDOF 8
ENDMDL
MODEL 7
REMARK VINA RESULT:      -6.5     15.278     17.636
REMARK  8 active torsions:
REMARK  status: ('A' for Active; 'I' for Inactive)
REMARK    1  A    between atoms: C_4  and  C_20 
REMARK    2  A    between atoms: C_4  and  C_16 
REMARK    3  A    between atoms: C_4  and  N_14 
REMARK    4  A    between atoms: O_6  and  C_19 
REMARK    5  A    between atoms: C_8  and  C_16 
REMARK    6  A    between atoms: C_9  and  C_13 
REMARK    7  A    between atoms: C_13  and  C_19 
REMARK    8  A    between atoms: C_13  and  N_17 
REMARK       I    between atoms: N_17  and  C_20 
ROOT
HETATM    1  C           1     -21.539  -7.924  -4.409  0.00  0.00     0.278 C 
ENDROOT
BRANCH   1   2
HETATM    2  C           1     -21.438  -6.495  -4.884  0.00  0.00     0.249 C 
HETATM    3  N           1     -21.494  -6.214  -6.222  0.00  0.00    -0.343 N 
HETATM    4  H           1     -21.604  -6.963  -6.893  0.00  0.00     0.163 HD
HETATM    5  O           1     -21.307  -5.601  -4.083  0.00  0.00    -0.271 OA
BRANCH   3   6
HETATM    6  C           1     -21.396  -4.841  -6.678  0.00  0.00     0.214 C 
BRANCH   6   7
HETATM    7  C           1     -22.697  -4.433  -7.328  0.00  0.00     0.199 C 
HETATM    8  O           1     -23.765  -4.495  -6.681  0.00  0.00    -0.646 OA
HETATM    9  O           1     -22.705  -4.036  -8.512  0.00  0.00    -0.646 OA
ENDBRANCH   6   7
BRANCH   6  10
HETATM   10  C           1     -20.265  -4.719  -7.690  0.00  0.00     0.147 C 
HETATM   11  C           1     -18.947  -4.512  -6.956  0.00  0.00     0.042 C 
BRANCH  10  12
HETATM   12  O           1     -20.194  -5.894  -8.453  0.00  0.00    -0.393 OA
HETATM   13  H           1     -21.031  -5.999  -8.872  0.00  0.00     0.210 HD
ENDBRANCH  10  12
ENDBRANCH   6  10
ENDBRANCH   3   6
ENDBRANCH   1   2
BRANCH   1  14
HETATM   14  C           1     -20.667  -8.113  -3.175  0.00  0.00     0.081 C 
BRANCH  14  15
HETATM   15  C           1     -21.534  -8.385  -1.986  0.00  0.00    -0.056 A 
HETATM   16  C           1     -21.934  -9.690  -1.697  0.00  0.00     0.007 A 
HETATM   17  C           1     -22.741  -9.943  -0.588  0.00  0.00     0.001 A 
HETATM   18  C           1     -23.150  -8.890   0.232  0.00  0.00     0.000 A 
HETATM   19  C           1     -22.749  -7.586  -0.057  0.00  0.00     0.001 A 
HETATM   20  C           1     -21.941  -7.333  -1.165  0.00  0.00     0.007 A 
ENDBRANCH  14  15
ENDBRANCH   1  14
BRANCH   1  21
HETATM   21  N           1     -21.072  -8.846  -5.497  0.00  0.00    -0.066 N 
HETATM   22  H           1     -21.663  -8.708  -6.347  0.00  0.00     0.275 HD
HETATM   23  H           1     -21.152  -9.836  -5.171  0.00  0.00     0.275 HD
HETATM   24  H           1     -20.075  -8.635  -5.728  0.00  0.00     0.275 HD
ENDBRANCH   1  21
TORSDOF 8
ENDMDL
MODEL 8
REMARK VINA RESULT:      -6.5     17.305     19.339
REMARK  8 active torsions:
REMARK  status: ('A' for Active; 'I' for Inactive)
REMARK    1  A    between atoms: C_4  and  C_20 
REMARK    2  A    between atoms: C_4  and  C_16 
REMARK    3  A    between atoms: C_4  and  N_14 
REMARK    4  A    between atoms: O_6  and  C_19 
REMARK    5  A    between atoms: C_8  and  C_16 
REMARK    6  A    between atoms: C_9  and  C_13 
REMARK    7  A    between atoms: C_13  and  C_19 
REMARK    8  A    between atoms: C_13  and  N_17 
REMARK       I    between atoms: N_17  and  C_20 
ROOT
HETATM    1  C           1     -20.516  -8.356  -5.011  0.00  0.00     0.278 C 
ENDROOT
BRANCH   1   2
HETATM    2  C           1     -20.360  -8.576  -3.526  0.00  0.00     0.249 C 
HETATM    3  N           1     -21.439  -8.429  -2.697  0.00  0.00    -0.343 N 
HETATM    4  H           1     -22.340  -8.174  -3.078  0.00  0.00     0.163 HD
HETATM    5  O           1     -19.283  -8.881  -3.071  0.00  0.00    -0.271 OA
BRANCH   3   6
HETATM    6  C           1     -21.288  -8.641  -1.270  0.00  0.00     0.214 C 
BRANCH   6   7
HETATM    7  C           1     -21.951  -9.941  -0.882  0.00  0.00     0.199 C 
HETATM    8  O           1     -22.855 -10.419  -1.600  0.00  0.00    -0.646 OA
HETATM    9  O           1     -21.597 -10.536   0.157  0.00  0.00    -0.646 OA
ENDBRANCH   6   7
BRANCH   6  10
HETATM   10  C           1     -21.942  -7.493  -0.513  0.00  0.00     0.147 C 
HETATM   11  C           1     -22.305  -6.382  -1.490  0.00  0.00     0.042 C 
BRANCH  10  12
HETATM   12  O           1     -23.105  -7.955   0.121  0.00  0.00    -0.393 OA
HETATM   13  H           1     -23.560  -7.195   0.444  0.00  0.00     0.210 HD
ENDBRANCH  10  12
ENDBRANCH   6  10
ENDBRANCH   3   6
ENDBRANCH   1   2
BRANCH   1  14
HETATM   14  C           1     -21.690  -7.420  -5.266  0.00  0.00     0.081 C 
BRANCH  14  15
HETATM   15  C           1     -21.227  -6.243  -6.066  0.00  0.00    -0.056 A 
HETATM   16  C           1     -22.126  -5.231  -6.405  0.00  0.00     0.007 A 
HETATM   17  C           1     -21.694  -4.135  -7.151  0.00  0.00     0.001 A 
HETATM   18  C           1     -20.363  -4.050  -7.558  0.00  0.00     0.000 A 
HETATM   19  C           1     -19.463  -5.060  -7.219  0.00  0.00     0.001 A 
HETATM   20  C           1     -19.895  -6.157  -6.473  0.00  0.00     0.007 A 
ENDBRANCH  14  15
ENDBRANCH   1  14
BRANCH   1  21
HETATM   21  N           1     -20.771  -9.671  -5.687  0.00  0.00    -0.066 N 
HETATM   22  H           1     -20.416 -10.447  -5.083  0.00  0.00     0.275 HD
HETATM   23  H           1     -20.278  -9.690  -6.608  0.00  0.00     0.275 HD
HETATM   24  H           1     -21.798  -9.791  -5.840  0.00  0.00     0.275 HD
ENDBRANCH   1  21
TORSDOF 8
ENDMDL
MODEL 9
REMARK VINA RESULT:      -6.1     26.647     28.342
REMARK  8 active torsions:
REMARK  status: ('A' for Active; 'I' for Inactive)
REMARK    1  A    between atoms: C_4  and  C_20 
REMARK    2  A    between atoms: C_4  and  C_16 
REMARK    3  A    between atoms: C_4  and  N_14 
REMARK    4  A    between atoms: O_6  and  C_19 
REMARK    5  A    between atoms: C_8  and  C_16 
REMARK    6  A    between atoms: C_9  and  C_13 
REMARK    7  A    between atoms: C_13  and  C_19 
REMARK    8  A    between atoms: C_13  and  N_17 
REMARK       I    between atoms: N_17  and  C_20 
ROOT
HETATM    1  C           1     -15.014   9.314   5.608  0.00  0.00     0.278 C 
ENDROOT
BRANCH   1   2
HETATM    2  C           1     -16.319  10.021   5.333  0.00  0.00     0.249 C 
HETATM    3  N           1     -17.466   9.294   5.159  0.00  0.00    -0.343 N 
HETATM    4  H           1     -17.440   8.285   5.215  0.00  0.00     0.163 HD
HETATM    5  O           1     -16.350  11.226   5.267  0.00  0.00    -0.271 OA
BRANCH   3   6
HETATM    6  C           1     -18.720   9.974   4.894  0.00  0.00     0.214 C 
BRANCH   6   7
HETATM    7  C           1     -19.616   9.864   6.104  0.00  0.00     0.199 C 
HETATM    8  O           1     -20.706  10.474   6.132  0.00  0.00    -0.646 OA
HETATM    9  O           1     -19.267   9.163   7.078  0.00  0.00    -0.646 OA
ENDBRANCH   6   7
BRANCH   6  10
HETATM   10  C           1     -19.405   9.330   3.696  0.00  0.00     0.147 C 
HETATM   11  C           1     -18.374   9.053   2.610  0.00  0.00     0.042 C 
BRANCH  10  12
HETATM   12  O           1     -20.001   8.124   4.092  0.00  0.00    -0.393 OA
HETATM   13  H           1     -19.392   7.437   3.882  0.00  0.00     0.210 HD
ENDBRANCH  10  12
ENDBRANCH   6  10
ENDBRANCH   3   6
ENDBRANCH   1   2
BRANCH   1  14
HETATM   14  C           1     -14.893   8.099   4.698  0.00  0.00     0.081 C 
BRANCH  14  15
HETATM   15  C           1     -14.381   8.527   3.358  0.00  0.00    -0.056 A 
HETATM   16  C           1     -14.933   7.990   2.195  0.00  0.00     0.007 A 
HETATM   17  C           1     -14.456   8.389   0.947  0.00  0.00     0.001 A 
HETATM   18  C           1     -13.426   9.326   0.862  0.00  0.00     0.000 A 
HETATM   19  C           1     -12.874   9.864   2.024  0.00  0.00     0.001 A 
HETATM   20  C           1     -13.351   9.465   3.272  0.00  0.00     0.007 A 
ENDBRANCH  14  15
ENDBRANCH   1  14
BRANCH   1  21
HETATM   21  N           1     -14.980   8.869   7.041  0.00  0.00    -0.066 N 
HETATM   22  H           1     -15.935   8.960   7.456  0.00  0.00     0.275 HD
HETATM   23  H           1     -14.308   9.467   7.574  0.00  0.00     0.275 HD
HETATM   24  H           1     -14.673   7.872   7.089  0.00  0.00     0.275 HD
ENDBRANCH   1  21
TORSDOF 8
ENDMDL
