MODEL 1
REMARK VINA RESULT:      -5.9      0.000      0.000
REMARK  6 active torsions:
REMARK  status: ('A' for Active; 'I' for Inactive)
REMARK    1  A    between atoms: C_2  and  C_4 
REMARK    2  A    between atoms: C_2  and  C_16 
REMARK    3  A    between atoms: C_2  and  N_6 
REMARK    4  A    between atoms: O_3  and  C_4 
REMARK       I    between atoms: N_6  and  C_11 
REMARK    5  A    between atoms: C_10  and  C_11 
REMARK    6  A    between atoms: C_10  and  N_18 
ROOT
HETATM    1  N           1     -34.999  -2.127 -11.807  0.00  0.00    -0.343 N 
HETATM    2  C           1     -33.954  -2.478 -10.995  0.00  0.00     0.248 C 
HETATM    3  H           1     -35.532  -2.845 -12.284  0.00  0.00     0.163 HD
HETATM    4  O           1     -33.319  -1.622 -10.427  0.00  0.00    -0.271 OA
ENDROOT
BRANCH   1   5
HETATM    5  C           1     -35.342  -0.730 -11.986  0.00  0.00     0.214 C 
BRANCH   5   6
HETATM    6  C           1     -35.616  -0.461 -13.460  0.00  0.00     0.147 C 
HETATM    7  C           1     -34.877   0.799 -13.891  0.00  0.00     0.042 C 
BRANCH   6   8
HETATM    8  O           1     -35.172  -1.548 -14.224  0.00  0.00    -0.393 OA
HETATM    9  H           1     -35.367  -2.327 -13.732  0.00  0.00     0.210 HD
ENDBRANCH   6   8
ENDBRANCH   5   6
BRANCH   5  10
HETATM   10  C           1     -36.573  -0.407 -11.177  0.00  0.00     0.199 C 
HETATM   11  O           1     -37.618  -1.074 -11.336  0.00  0.00    -0.646 OA
HETATM   12  O           1     -36.549   0.528 -10.347  0.00  0.00    -0.646 OA
ENDBRANCH   5  10
ENDBRANCH   1   5
BRANCH   2  13
HETATM   13  C           1     -33.598  -3.932 -10.809  0.00  0.00     0.270 C 
HETATM   14  C           1     -32.671  -4.377 -11.933  0.00  0.00     0.050 C 
BRANCH  13  15
HETATM   15  N           1     -34.849  -4.759 -10.836  0.00  0.00    -0.067 N 
HETATM   16  H           1     -34.667  -5.681 -10.379  0.00  0.00     0.275 HD
HETATM   17  H           1     -35.143  -4.913 -11.827  0.00  0.00     0.275 HD
HETATM   18  H           1     -35.608  -4.259 -10.322  0.00  0.00     0.275 HD
ENDBRANCH  13  15
ENDBRANCH   2  13
TORSDOF 6
ENDMDL
MODEL 2
REMARK VINA RESULT:      -5.8      1.975      2.292
REMARK  6 active torsions:
REMARK  status: ('A' for Active; 'I' for Inactive)
REMARK    1  A    between atoms: C_2  and  C_4 
REMARK    2  A    between atoms: C_2  and  C_16 
REMARK    3  A    between atoms: C_2  and  N_6 
REMARK    4  A    between atoms: O_3  and  C_4 
REMARK       I    between atoms: N_6  and  C_11 
REMARK    5  A    between atoms: C_10  and  C_11 
REMARK    6  A    between atoms: C_10  and  N_18 
ROOT
HETATM    1  N           1     -35.139  -1.632 -13.557  0.00  0.00    -0.343 N 
HETATM    2  C           1     -34.562  -2.172 -12.440  0.00  0.00     0.248 C 
HETATM    3  H           1     -35.240  -2.192 -14.395  0.00  0.00     0.163 HD
HETATM    4  O           1     -34.441  -1.504 -11.440  0.00  0.00    -0.271 OA
ENDROOT
BRANCH   1   5
HETATM    5  C           1     -35.602  -0.258 -13.542  0.00  0.00     0.214 C 
BRANCH   5   6
HETATM    6  C           1     -35.451   0.343 -14.934  0.00  0.00     0.147 C 
HETATM    7  C           1     -35.448  -0.773 -15.970  0.00  0.00     0.042 C 
BRANCH   6   8
HETATM    8  O           1     -36.520   1.213 -15.186  0.00  0.00    -0.393 OA
HETATM    9  H           1     -36.527   1.378 -16.113  0.00  0.00     0.210 HD
ENDBRANCH   6   8
ENDBRANCH   5   6
BRANCH   5  10
HETATM   10  C           1     -37.054  -0.222 -13.134  0.00  0.00     0.199 C 
HETATM   11  O           1     -37.393   0.361 -12.082  0.00  0.00    -0.646 OA
HETATM   12  O           1     -37.918  -0.777 -13.847  0.00  0.00    -0.646 OA
ENDBRANCH   5  10
ENDBRANCH   1   5
BRANCH   2  13
HETATM   13  C           1     -34.080  -3.602 -12.455  0.00  0.00     0.270 C 
HETATM   14  C           1     -32.813  -3.720 -11.617  0.00  0.00     0.050 C 
BRANCH  13  15
HETATM   15  N           1     -33.785  -4.013 -13.867  0.00  0.00    -0.067 N 
HETATM   16  H           1     -33.964  -5.036 -13.976  0.00  0.00     0.275 HD
HETATM   17  H           1     -32.784  -3.809 -14.087  0.00  0.00     0.275 HD
HETATM   18  H           1     -34.401  -3.479 -14.521  0.00  0.00     0.275 HD
ENDBRANCH  13  15
ENDBRANCH   2  13
TORSDOF 6
ENDMDL
MODEL 3
REMARK VINA RESULT:      -5.8      2.169      3.683
REMARK  6 active torsions:
REMARK  status: ('A' for Active; 'I' for Inactive)
REMARK    1  A    between atoms: C_2  and  C_4 
REMARK    2  A    between atoms: C_2  and  C_16 
REMARK    3  A    between atoms: C_2  and  N_6 
REMARK    4  A    between atoms: O_3  and  C_4 
REMARK       I    between atoms: N_6  and  C_11 
REMARK    5  A    between atoms: C_10  and  C_11 
REMARK    6  A    between atoms: C_10  and  N_18 
ROOT
HETATM    1  N           1     -34.999  -1.254 -13.971  0.00  0.00    -0.343 N 
HETATM    2  C           1     -35.292  -1.764 -12.735  0.00  0.00     0.248 C 
HETATM    3  H           1     -34.063  -1.342 -14.346  0.00  0.00     0.163 HD
HETATM    4  O           1     -36.409  -1.659 -12.288  0.00  0.00    -0.271 OA
ENDROOT
BRANCH   1   5
HETATM    5  C           1     -36.030  -0.588 -14.744  0.00  0.00     0.214 C 
BRANCH   5   6
HETATM    6  C           1     -35.888   0.920 -14.584  0.00  0.00     0.147 C 
HETATM    7  C           1     -34.523   1.240 -13.988  0.00  0.00     0.042 C 
BRANCH   6   8
HETATM    8  O           1     -36.007   1.535 -15.838  0.00  0.00    -0.393 OA
HETATM    9  H           1     -36.280   2.423 -15.683  0.00  0.00     0.210 HD
ENDBRANCH   6   8
ENDBRANCH   5   6
BRANCH   5  10
HETATM   10  C           1     -35.885  -0.957 -16.199  0.00  0.00     0.199 C 
HETATM   11  O           1     -34.805  -1.425 -16.621  0.00  0.00    -0.646 OA
HETATM   12  O           1     -36.844  -0.795 -16.984  0.00  0.00    -0.646 OA
ENDBRANCH   5  10
ENDBRANCH   1   5
BRANCH   2  13
HETATM   13  C           1     -34.219  -2.457 -11.931  0.00  0.00     0.270 C 
HETATM   14  C           1     -34.769  -3.760 -11.366  0.00  0.00     0.050 C 
BRANCH  13  15
HETATM   15  N           1     -33.787  -1.567 -10.804  0.00  0.00    -0.067 N 
HETATM   16  H           1     -34.282  -1.848  -9.929  0.00  0.00     0.275 HD
HETATM   17  H           1     -34.022  -0.575 -11.035  0.00  0.00     0.275 HD
HETATM   18  H           1     -32.755  -1.656 -10.666  0.00  0.00     0.275 HD
ENDBRANCH  13  15
ENDBRANCH   2  13
TORSDOF 6
ENDMDL
MODEL 4
REMARK VINA RESULT:      -5.8     11.716     13.613
REMARK  6 active torsions:
REMARK  status: ('A' for Active; 'I' for Inactive)
REMARK    1  A    between atoms: C_2  and  C_4 
REMARK    2  A    between atoms: C_2  and  C_16 
REMARK    3  A    between atoms: C_2  and  N_6 
REMARK    4  A    between atoms: O_3  and  C_4 
REMARK       I    between atoms: N_6  and  C_11 
REMARK    5  A    between atoms: C_10  and  C_11 
REMARK    6  A    between atoms: C_10  and  N_18 
ROOT
HETATM    1  N           1     -22.078  -4.741  -8.943  0.00  0.00    -0.343 N 
HETATM    2  C           1     -21.626  -4.433  -7.689  0.00  0.00     0.248 C 
HETATM    3  H           1     -22.067  -5.702  -9.263  0.00  0.00     0.163 HD
HETATM    4  O           1     -21.639  -3.287  -7.307  0.00  0.00    -0.271 OA
ENDROOT
BRANCH   1   5
HETATM    5  C           1     -22.572  -3.692  -9.814  0.00  0.00     0.214 C 
BRANCH   5   6
HETATM    6  C           1     -21.817  -3.734 -11.136  0.00  0.00     0.147 C 
HETATM    7  C           1     -20.439  -4.344 -10.914  0.00  0.00     0.042 C 
BRANCH   6   8
HETATM    8  O           1     -22.531  -4.513 -12.057  0.00  0.00    -0.393 OA
HETATM    9  H           1     -22.273  -4.226 -12.917  0.00  0.00     0.210 HD
ENDBRANCH   6   8
ENDBRANCH   5   6
BRANCH   5  10
HETATM   10  C           1     -24.045  -3.902 -10.068  0.00  0.00     0.199 C 
HETATM   11  O           1     -24.758  -2.945 -10.437  0.00  0.00    -0.646 OA
HETATM   12  O           1     -24.551  -5.035  -9.909  0.00  0.00    -0.646 OA
ENDBRANCH   5  10
ENDBRANCH   1   5
BRANCH   2  13
HETATM   13  C           1     -21.112  -5.524  -6.782  0.00  0.00     0.270 C 
HETATM   14  C           1     -20.537  -4.905  -5.515  0.00  0.00     0.050 C 
BRANCH  13  15
HETATM   15  N           1     -20.039  -6.296  -7.491  0.00  0.00    -0.067 N 
HETATM   16  H           1     -20.473  -7.065  -8.049  0.00  0.00     0.275 HD
HETATM   17  H           1     -19.381  -6.704  -6.788  0.00  0.00     0.275 HD
HETATM   18  H           1     -19.513  -5.657  -8.129  0.00  0.00     0.275 HD
ENDBRANCH  13  15
ENDBRANCH   2  13
TORSDOF 6
ENDMDL
MODEL 5
REMARK VINA RESULT:      -5.7      2.015      4.506
REMARK  6 active torsions:
REMARK  status: ('A' for Active; 'I' for Inactive)
REMARK    1  A    between atoms: C_2  and  C_4 
REMARK    2  A    between atoms: C_2  and  C_16 
REMARK    3  A    between atoms: C_2  and  N_6 
REMARK    4  A    between atoms: O_3  and  C_4 
REMARK       I    between atoms: N_6  and  C_11 
REMARK    5  A    between atoms: C_10  and  C_11 
REMARK    6  A    between atoms: C_10  and  N_18 
ROOT
HETATM    1  N           1     -34.779  -1.562 -13.319  0.00  0.00    -0.343 N 
HETATM    2  C           1     -35.878  -0.833 -13.686  0.00  0.00     0.248 C 
HETATM    3  H           1     -33.898  -1.425 -13.799  0.00  0.00     0.163 HD
HETATM    4  O           1     -36.929  -0.997 -13.114  0.00  0.00    -0.271 OA
ENDROOT
BRANCH   1   5
HETATM    5  C           1     -34.877  -2.531 -12.245  0.00  0.00     0.214 C 
BRANCH   5   6
HETATM    6  C           1     -33.971  -3.718 -12.549  0.00  0.00     0.147 C 
HETATM    7  C           1     -34.539  -4.970 -11.895  0.00  0.00     0.042 C 
BRANCH   6   8
HETATM    8  O           1     -33.899  -3.906 -13.936  0.00  0.00    -0.393 OA
HETATM    9  H           1     -34.745  -4.210 -14.216  0.00  0.00     0.210 HD
ENDBRANCH   6   8
ENDBRANCH   5   6
BRANCH   5  10
HETATM   10  C           1     -34.448  -1.889 -10.949  0.00  0.00     0.199 C 
HETATM   11  O           1     -35.300  -1.369 -10.197  0.00  0.00    -0.646 OA
HETATM   12  O           1     -33.240  -1.879 -10.626  0.00  0.00    -0.646 OA
ENDBRANCH   5  10
ENDBRANCH   1   5
BRANCH   2  13
HETATM   13  C           1     -35.776   0.175 -14.804  0.00  0.00     0.270 C 
HETATM   14  C           1     -34.874   1.324 -14.372  0.00  0.00     0.050 C 
BRANCH  13  15
HETATM   15  N           1     -37.142   0.706 -15.123  0.00  0.00    -0.067 N 
HETATM   16  H           1     -37.333   0.587 -16.143  0.00  0.00     0.275 HD
HETATM   17  H           1     -37.188   1.720 -14.874  0.00  0.00     0.275 HD
HETATM   18  H           1     -37.857   0.180 -14.571  0.00  0.00     0.275 HD
ENDBRANCH  13  15
ENDBRANCH   2  13
TORSDOF 6
ENDMDL
MODEL 6
REMARK VINA RESULT:      -5.5      9.108     10.942
REMARK  6 active torsions:
REMARK  status: ('A' for Active; 'I' for Inactive)
REMARK    1  A    between atoms: C_2  and  C_4 
REMARK    2  A    between atoms: C_2  and  C_16 
REMARK    3  A    between atoms: C_2  and  N_6 
REMARK    4  A    between atoms: O_3  and  C_4 
REMARK       I    between atoms: N_6  and  C_11 
REMARK    5  A    between atoms: C_10  and  C_11 
REMARK    6  A    between atoms: C_10  and  N_18 
ROOT
HETATM    1  N           1     -27.740  -6.874 -17.852  0.00  0.00    -0.343 N 
HETATM    2  C           1     -27.511  -6.180 -19.009  0.00  0.00     0.248 C 
HETATM    3  H           1     -27.110  -7.617 -17.575  0.00  0.00     0.163 HD
HETATM    4  O           1     -28.263  -5.294 -19.340  0.00  0.00    -0.271 OA
ENDROOT
BRANCH   1   5
HETATM    5  C           1     -28.885  -6.548 -17.024  0.00  0.00     0.214 C 
BRANCH   5   6
HETATM    6  C           1     -29.965  -7.605 -17.214  0.00  0.00     0.147 C 
HETATM    7  C           1     -31.291  -6.925 -17.530  0.00  0.00     0.042 C 
BRANCH   6   8
HETATM    8  O           1     -29.609  -8.451 -18.273  0.00  0.00    -0.393 OA
HETATM    9  H           1     -30.366  -8.529 -18.829  0.00  0.00     0.210 HD
ENDBRANCH   6   8
ENDBRANCH   5   6
BRANCH   5  10
HETATM   10  C           1     -28.464  -6.511 -15.576  0.00  0.00     0.199 C 
HETATM   11  O           1     -28.691  -5.495 -14.885  0.00  0.00    -0.646 OA
HETATM   12  O           1     -27.889  -7.498 -15.067  0.00  0.00    -0.646 OA
ENDBRANCH   5  10
ENDBRANCH   1   5
BRANCH   2  13
HETATM   13  C           1     -26.319  -6.520 -19.870  0.00  0.00     0.270 C 
HETATM   14  C           1     -26.687  -7.647 -20.826  0.00  0.00     0.050 C 
BRANCH  13  15
HETATM   15  N           1     -25.182  -6.957 -18.996  0.00  0.00    -0.067 N 
HETATM   16  H           1     -25.542  -7.588 -18.245  0.00  0.00     0.275 HD
HETATM   17  H           1     -24.733  -6.119 -18.563  0.00  0.00     0.275 HD
HETATM   18  H           1     -24.477  -7.470 -19.573  0.00  0.00     0.275 HD
ENDBRANCH  13  15
ENDBRANCH   2  13
TORSDOF 6
ENDMDL
MODEL 7
REMARK VINA RESULT:      -5.2      2.563      3.504
REMARK  6 active torsions:
REMARK  status: ('A' for Active; 'I' for Inactive)
REMARK    1  A    between atoms: C_2  and  C_4 
REMARK    2  A    between atoms: C_2  and  C_16 
REMARK    3  A    between atoms: C_2  and  N_6 
REMARK    4  A    between atoms: O_3  and  C_4 
REMARK       I    between atoms: N_6  and  C_11 
REMARK    5  A    between atoms: C_10  and  C_11 
REMARK    6  A    between atoms: C_10  and  N_18 
ROOT
HETATM    1  N           1     -35.458  -1.350 -14.070  0.00  0.00    -0.343 N 
HETATM    2  C           1     -35.023  -0.969 -12.829  0.00  0.00     0.248 C 
HETATM    3  H           1     -35.577  -2.332 -14.285  0.00  0.00     0.163 HD
HETATM    4  O           1     -34.881   0.203 -12.573  0.00  0.00    -0.271 OA
ENDROOT
BRANCH   1   5
HETATM    5  C           1     -35.746  -0.347 -15.077  0.00  0.00     0.214 C 
BRANCH   5   6
HETATM    6  C           1     -35.333  -0.870 -16.446  0.00  0.00     0.147 C 
HETATM    7  C           1     -34.898  -2.325 -16.323  0.00  0.00     0.042 C 
BRANCH   6   8
HETATM    8  O           1     -36.418  -0.780 -17.328  0.00  0.00    -0.393 OA
HETATM    9  H           1     -36.598  -1.653 -17.633  0.00  0.00     0.210 HD
ENDBRANCH   6   8
ENDBRANCH   5   6
BRANCH   5  10
HETATM   10  C           1     -37.225  -0.046 -15.078  0.00  0.00     0.199 C 
HETATM   11  O           1     -38.017  -0.805 -14.480  0.00  0.00    -0.646 OA
HETATM   12  O           1     -37.657   0.963 -15.677  0.00  0.00    -0.646 OA
ENDBRANCH   5  10
ENDBRANCH   1   5
BRANCH   2  13
HETATM   13  C           1     -34.724  -2.013 -11.782  0.00  0.00     0.270 C 
HETATM   14  C           1     -35.939  -2.193 -10.881  0.00  0.00     0.050 C 
BRANCH  13  15
HETATM   15  N           1     -33.552  -1.569 -10.957  0.00  0.00    -0.067 N 
HETATM   16  H           1     -32.897  -2.371 -10.822  0.00  0.00     0.275 HD
HETATM   17  H           1     -33.889  -1.233 -10.026  0.00  0.00     0.275 HD
HETATM   18  H           1     -33.055  -0.792 -11.448  0.00  0.00     0.275 HD
ENDBRANCH  13  15
ENDBRANCH   2  13
TORSDOF 6
ENDMDL
MODEL 8
REMARK VINA RESULT:      -5.0     11.160     12.441
REMARK  6 active torsions:
REMARK  status: ('A' for Active; 'I' for Inactive)
REMARK    1  A    between atoms: C_2  and  C_4 
REMARK    2  A    between atoms: C_2  and  C_16 
REMARK    3  A    between atoms: C_2  and  N_6 
REMARK    4  A    between atoms: O_3  and  C_4 
REMARK       I    between atoms: N_6  and  C_11 
REMARK    5  A    between atoms: C_10  and  C_11 
REMARK    6  A    between atoms: C_10  and  N_18 
ROOT
HETATM    1  N           1     -23.136  -3.334 -12.304  0.00  0.00    -0.343 N 
HETATM    2  C           1     -23.869  -3.540 -13.441  0.00  0.00     0.248 C 
HETATM    3  H           1     -22.565  -2.503 -12.214  0.00  0.00     0.163 HD
HETATM    4  O           1     -24.550  -4.533 -13.548  0.00  0.00    -0.271 OA
ENDROOT
BRANCH   1   5
HETATM    5  C           1     -23.176  -4.307 -11.229  0.00  0.00     0.214 C 
BRANCH   5   6
HETATM    6  C           1     -21.869  -4.253 -10.448  0.00  0.00     0.147 C 
HETATM    7  C           1     -20.876  -3.363 -11.184  0.00  0.00     0.042 C 
BRANCH   6   8
HETATM    8  O           1     -22.109  -3.729  -9.171  0.00  0.00    -0.393 OA
HETATM    9  H           1     -23.024  -3.861  -8.987  0.00  0.00     0.210 HD
ENDBRANCH   6   8
ENDBRANCH   5   6
BRANCH   5  10
HETATM   10  C           1     -24.327  -3.989 -10.306  0.00  0.00     0.199 C 
HETATM   11  O           1     -24.689  -2.804 -10.143  0.00  0.00    -0.646 OA
HETATM   12  O           1     -24.920  -4.912  -9.706  0.00  0.00    -0.646 OA
ENDBRANCH   5  10
ENDBRANCH   1   5
BRANCH   2  13
HETATM   13  C           1     -23.828  -2.529 -14.560  0.00  0.00     0.270 C 
HETATM   14  C           1     -22.485  -2.616 -15.275  0.00  0.00     0.050 C 
BRANCH  13  15
HETATM   15  N           1     -24.003  -1.151 -13.993  0.00  0.00    -0.067 N 
HETATM   16  H           1     -24.610  -1.199 -13.144  0.00  0.00     0.275 HD
HETATM   17  H           1     -24.450  -0.535 -14.708  0.00  0.00     0.275 HD
HETATM   18  H           1     -23.070  -0.761 -13.732  0.00  0.00     0.275 HD
ENDBRANCH  13  15
ENDBRANCH   2  13
TORSDOF 6
ENDMDL
MODEL 9
REMARK VINA RESULT:      -5.0     11.627     13.596
REMARK  6 active torsions:
REMARK  status: ('A' for Active; 'I' for Inactive)
REMARK    1  A    between atoms: C_2  and  C_4 
REMARK    2  A    between atoms: C_2  and  C_16 
REMARK    3  A    between atoms: C_2  and  N_6 
REMARK    4  A    between atoms: O_3  and  C_4 
REMARK       I    between atoms: N_6  and  C_11 
REMARK    5  A    between atoms: C_10  and  C_11 
REMARK    6  A    between atoms: C_10  and  N_18 
ROOT
HETATM    1  N           1     -22.030  -3.845  -9.877  0.00  0.00    -0.343 N 
HETATM    2  C           1     -20.791  -4.244  -9.452  0.00  0.00     0.248 C 
HETATM    3  H           1     -22.619  -3.290  -9.269  0.00  0.00     0.163 HD
HETATM    4  O           1     -20.088  -4.906 -10.179  0.00  0.00    -0.271 OA
ENDROOT
BRANCH   1   5
HETATM    5  C           1     -22.498  -4.218 -11.198  0.00  0.00     0.214 C 
BRANCH   5   6
HETATM    6  C           1     -23.991  -4.514 -11.141  0.00  0.00     0.147 C 
HETATM    7  C           1     -24.435  -4.602  -9.686  0.00  0.00     0.042 C 
BRANCH   6   8
HETATM    8  O           1     -24.696  -3.488 -11.784  0.00  0.00    -0.393 OA
HETATM    9  H           1     -25.547  -3.831 -11.997  0.00  0.00     0.210 HD
ENDBRANCH   6   8
ENDBRANCH   5   6
BRANCH   5  10
HETATM   10  C           1     -22.247  -3.083 -12.159  0.00  0.00     0.199 C 
HETATM   11  O           1     -21.999  -1.938 -11.724  0.00  0.00    -0.646 OA
HETATM   12  O           1     -22.286  -3.287 -13.392  0.00  0.00    -0.646 OA
ENDBRANCH   5  10
ENDBRANCH   1   5
BRANCH   2  13
HETATM   13  C           1     -20.303  -3.856  -8.078  0.00  0.00     0.270 C 
HETATM   14  C           1     -19.680  -5.068  -7.399  0.00  0.00     0.050 C 
BRANCH  13  15
HETATM   15  N           1     -21.460  -3.364  -7.259  0.00  0.00    -0.067 N 
HETATM   16  H           1     -21.922  -4.174  -6.789  0.00  0.00     0.275 HD
HETATM   17  H           1     -22.147  -2.882  -7.882  0.00  0.00     0.275 HD
HETATM   18  H           1     -21.114  -2.693  -6.537  0.00  0.00     0.275 HD
ENDBRANCH  13  15
ENDBRANCH   2  13
TORSDOF 6
ENDMDL
