MODEL 1
REMARK VINA RESULT:      -6.2      0.000      0.000
REMARK  6 active torsions:
REMARK  status: ('A' for Active; 'I' for Inactive)
REMARK    1  A    between atoms: S_2  and  C_10 
REMARK    2  A    between atoms: C_3  and  C_14 
REMARK       I    between atoms: C_8  and  N_15 
REMARK    3  A    between atoms: C_8  and  C_12 
REMARK    4  A    between atoms: C_10  and  C_11 
REMARK    5  A    between atoms: C_11  and  C_14 
REMARK    6  A    between atoms: C_14  and  N_15 
ROOT
HETATM    1  O           1     -22.420  -3.647  -7.521  0.00  0.00    -0.271 OA
HETATM    2  C           1     -22.013  -4.615  -8.118  0.00  0.00     0.251 C 
HETATM    3  H           1     -21.858  -5.525  -9.970  0.00  0.00     0.163 HD
HETATM    4  N           1     -22.199  -4.715  -9.471  0.00  0.00    -0.345 N 
ENDROOT
BRANCH   4   5
HETATM    5  C           1     -22.885  -3.657 -10.187  0.00  0.00     0.186 C 
BRANCH   5   6
HETATM    6  C           1     -24.372  -3.773  -9.949  0.00  0.00     0.196 C 
HETATM    7  O           1     -24.940  -4.878 -10.076  0.00  0.00    -0.646 OA
HETATM    8  O           1     -25.033  -2.762  -9.625  0.00  0.00    -0.646 OA
ENDBRANCH   5   6
BRANCH   5   9
HETATM    9  C           1     -22.600  -3.784 -11.677  0.00  0.00     0.046 C 
BRANCH   9  10
HETATM   10  C           1     -23.288  -2.648 -12.425  0.00  0.00     0.076 C 
BRANCH  10  11
HETATM   11  S           1     -23.044  -2.863 -14.210  0.00  0.00    -0.173 SA
HETATM   12  C           1     -23.832  -1.306 -14.707  0.00  0.00     0.089 C 
ENDBRANCH  10  11
ENDBRANCH   9  10
ENDBRANCH   5   9
ENDBRANCH   4   5
BRANCH   2  13
HETATM   13  C           1     -21.299  -5.716  -7.372  0.00  0.00     0.311 C 
HETATM   14  C           1     -21.175  -5.378  -5.897  0.00  0.00     0.047 C 
HETATM   15  C           1     -19.801  -4.734  -5.751  0.00  0.00     0.033 C 
HETATM   16  C           1     -19.207  -4.746  -7.149  0.00  0.00     0.271 C 
HETATM   17  N           1     -19.914  -5.833  -7.820  0.00  0.00     0.097 N 
HETATM   18  H           1     -19.516  -6.727  -7.531  0.00  0.00     0.317 HD
ENDBRANCH   2  13
TORSDOF 6
ENDMDL
MODEL 2
REMARK VINA RESULT:      -5.3      4.612      7.407
REMARK  6 active torsions:
REMARK  status: ('A' for Active; 'I' for Inactive)
REMARK    1  A    between atoms: S_2  and  C_10 
REMARK    2  A    between atoms: C_3  and  C_14 
REMARK       I    between atoms: C_8  and  N_15 
REMARK    3  A    between atoms: C_8  and  C_12 
REMARK    4  A    between atoms: C_10  and  C_11 
REMARK    5  A    between atoms: C_11  and  C_14 
REMARK    6  A    between atoms: C_14  and  N_15 
ROOT
HETATM    1  O           1     -22.729  -5.395  -5.966  0.00  0.00    -0.271 OA
HETATM    2  C           1     -21.540  -5.293  -5.776  0.00  0.00     0.251 C 
HETATM    3  H           1     -19.918  -6.043  -4.732  0.00  0.00     0.163 HD
HETATM    4  N           1     -20.913  -6.129  -4.891  0.00  0.00    -0.345 N 
ENDROOT
BRANCH   4   5
HETATM    5  C           1     -21.677  -7.137  -4.182  0.00  0.00     0.186 C 
BRANCH   5   6
HETATM    6  C           1     -21.683  -6.817  -2.707  0.00  0.00     0.196 C 
HETATM    7  O           1     -22.460  -5.946  -2.260  0.00  0.00    -0.646 OA
HETATM    8  O           1     -20.911  -7.423  -1.933  0.00  0.00    -0.646 OA
ENDBRANCH   5   6
BRANCH   5   9
HETATM    9  C           1     -21.041  -8.504  -4.401  0.00  0.00     0.046 C 
BRANCH   9  10
HETATM   10  C           1     -19.682  -8.331  -5.067  0.00  0.00     0.076 C 
BRANCH  10  11
HETATM   11  S           1     -18.482  -9.451  -4.293  0.00  0.00    -0.173 SA
HETATM   12  C           1     -17.603  -9.886  -5.820  0.00  0.00     0.089 C 
ENDBRANCH  10  11
ENDBRANCH   9  10
ENDBRANCH   5   9
ENDBRANCH   4   5
BRANCH   2  13
HETATM   13  C           1     -20.746  -4.243  -6.513  0.00  0.00     0.311 C 
HETATM   14  C           1     -21.558  -3.650  -7.651  0.00  0.00     0.047 C 
HETATM   15  C           1     -21.160  -4.453  -8.884  0.00  0.00     0.033 C 
HETATM   16  C           1     -20.135  -5.458  -8.388  0.00  0.00     0.271 C 
HETATM   17  N           1     -19.593  -4.838  -7.182  0.00  0.00     0.097 N 
HETATM   18  H           1     -18.917  -4.121  -7.443  0.00  0.00     0.317 HD
ENDBRANCH   2  13
TORSDOF 6
ENDMDL
MODEL 3
REMARK VINA RESULT:      -5.2      5.109      7.603
REMARK  6 active torsions:
REMARK  status: ('A' for Active; 'I' for Inactive)
REMARK    1  A    between atoms: S_2  and  C_10 
REMARK    2  A    between atoms: C_3  and  C_14 
REMARK       I    between atoms: C_8  and  N_15 
REMARK    3  A    between atoms: C_8  and  C_12 
REMARK    4  A    between atoms: C_10  and  C_11 
REMARK    5  A    between atoms: C_11  and  C_14 
REMARK    6  A    between atoms: C_14  and  N_15 
ROOT
HETATM    1  O           1     -19.596  -4.553  -5.461  0.00  0.00    -0.271 OA
HETATM    2  C           1     -20.664  -4.754  -5.987  0.00  0.00     0.251 C 
HETATM    3  H           1     -22.279  -6.044  -6.111  0.00  0.00     0.163 HD
HETATM    4  N           1     -21.384  -5.875  -5.671  0.00  0.00    -0.345 N 
ENDROOT
BRANCH   4   5
HETATM    5  C           1     -20.861  -6.822  -4.705  0.00  0.00     0.186 C 
BRANCH   5   6
HETATM    6  C           1     -20.470  -8.097  -5.412  0.00  0.00     0.196 C 
HETATM    7  O           1     -19.279  -8.290  -5.738  0.00  0.00    -0.646 OA
HETATM    8  O           1     -21.338  -8.959  -5.671  0.00  0.00    -0.646 OA
ENDBRANCH   5   6
BRANCH   5   9
HETATM    9  C           1     -21.929  -7.128  -3.663  0.00  0.00     0.046 C 
BRANCH   9  10
HETATM   10  C           1     -21.790  -6.163  -2.493  0.00  0.00     0.076 C 
BRANCH  10  11
HETATM   11  S           1     -22.235  -7.011  -0.952  0.00  0.00    -0.173 SA
HETATM   12  C           1     -21.007  -8.339  -1.094  0.00  0.00     0.089 C 
ENDBRANCH  10  11
ENDBRANCH   9  10
ENDBRANCH   5   9
ENDBRANCH   4   5
BRANCH   2  13
HETATM   13  C           1     -21.208  -3.769  -6.993  0.00  0.00     0.311 C 
HETATM   14  C           1     -22.448  -4.320  -7.675  0.00  0.00     0.047 C 
HETATM   15  C           1     -21.941  -4.966  -8.959  0.00  0.00     0.033 C 
HETATM   16  C           1     -20.438  -4.743  -8.949  0.00  0.00     0.271 C 
HETATM   17  N           1     -20.265  -3.574  -8.091  0.00  0.00     0.097 N 
HETATM   18  H           1     -20.491  -2.730  -8.616  0.00  0.00     0.317 HD
ENDBRANCH   2  13
TORSDOF 6
ENDMDL
MODEL 4
REMARK VINA RESULT:      -5.2     17.619     19.457
REMARK  6 active torsions:
REMARK  status: ('A' for Active; 'I' for Inactive)
REMARK    1  A    between atoms: S_2  and  C_10 
REMARK    2  A    between atoms: C_3  and  C_14 
REMARK       I    between atoms: C_8  and  N_15 
REMARK    3  A    between atoms: C_8  and  C_12 
REMARK    4  A    between atoms: C_10  and  C_11 
REMARK    5  A    between atoms: C_11  and  C_14 
REMARK    6  A    between atoms: C_14  and  N_15 
ROOT
HETATM    1  O           1     -13.316   6.816 -21.085  0.00  0.00    -0.271 OA
HETATM    2  C           1     -12.537   6.204 -20.395  0.00  0.00     0.251 C 
HETATM    3  H           1     -10.756   6.306 -19.345  0.00  0.00     0.163 HD
HETATM    4  N           1     -11.408   6.819 -19.923  0.00  0.00    -0.345 N 
ENDROOT
BRANCH   4   5
HETATM    5  C           1     -11.149   8.207 -20.254  0.00  0.00     0.186 C 
BRANCH   5   6
HETATM    6  C           1      -9.703   8.365 -20.659  0.00  0.00     0.196 C 
HETATM    7  O           1      -9.254   9.496 -20.942  0.00  0.00    -0.646 OA
HETATM    8  O           1      -8.956   7.363 -20.711  0.00  0.00    -0.646 OA
ENDBRANCH   5   6
BRANCH   5   9
HETATM    9  C           1     -11.432   9.081 -19.039  0.00  0.00     0.046 C 
BRANCH   9  10
HETATM   10  C           1     -12.776   9.776 -19.215  0.00  0.00     0.076 C 
BRANCH  10  11
HETATM   11  S           1     -12.820  10.608 -20.827  0.00  0.00    -0.173 SA
HETATM   12  C           1     -13.766  12.056 -20.278  0.00  0.00     0.089 C 
ENDBRANCH  10  11
ENDBRANCH   9  10
ENDBRANCH   5   9
ENDBRANCH   4   5
BRANCH   2  13
HETATM   13  C           1     -12.807   4.759 -20.052  0.00  0.00     0.311 C 
HETATM   14  C           1     -11.509   4.010 -19.802  0.00  0.00     0.047 C 
HETATM   15  C           1     -11.159   3.365 -21.137  0.00  0.00     0.033 C 
HETATM   16  C           1     -12.280   3.770 -22.079  0.00  0.00     0.271 C 
HETATM   17  N           1     -13.400   4.058 -21.187  0.00  0.00     0.097 N 
HETATM   18  H           1     -13.829   3.183 -20.887  0.00  0.00     0.317 HD
ENDBRANCH   2  13
TORSDOF 6
ENDMDL
MODEL 5
REMARK VINA RESULT:      -5.1      7.125      8.927
REMARK  6 active torsions:
REMARK  status: ('A' for Active; 'I' for Inactive)
REMARK    1  A    between atoms: S_2  and  C_10 
REMARK    2  A    between atoms: C_3  and  C_14 
REMARK       I    between atoms: C_8  and  N_15 
REMARK    3  A    between atoms: C_8  and  C_12 
REMARK    4  A    between atoms: C_10  and  C_11 
REMARK    5  A    between atoms: C_11  and  C_14 
REMARK    6  A    between atoms: C_14  and  N_15 
ROOT
HETATM    1  O           1     -19.761  -8.362  -1.551  0.00  0.00    -0.271 OA
HETATM    2  C           1     -20.871  -8.834  -1.610  0.00  0.00     0.251 C 
HETATM    3  H           1     -22.583  -9.004  -2.762  0.00  0.00     0.163 HD
HETATM    4  N           1     -21.653  -8.610  -2.712  0.00  0.00    -0.345 N 
ENDROOT
BRANCH   4   5
HETATM    5  C           1     -21.147  -7.805  -3.807  0.00  0.00     0.186 C 
BRANCH   5   6
HETATM    6  C           1     -21.881  -6.487  -3.843  0.00  0.00     0.196 C 
HETATM    7  O           1     -22.303  -5.978  -2.782  0.00  0.00    -0.646 OA
HETATM    8  O           1     -22.065  -5.903  -4.933  0.00  0.00    -0.646 OA
ENDBRANCH   5   6
BRANCH   5   9
HETATM    9  C           1     -21.366  -8.542  -5.122  0.00  0.00     0.046 C 
BRANCH   9  10
HETATM   10  C           1     -20.527  -9.813  -5.139  0.00  0.00     0.076 C 
BRANCH  10  11
HETATM   11  S           1     -18.775  -9.385  -4.940  0.00  0.00    -0.173 SA
HETATM   12  C           1     -18.126 -10.698  -6.011  0.00  0.00     0.089 C 
ENDBRANCH  10  11
ENDBRANCH   9  10
ENDBRANCH   5   9
ENDBRANCH   4   5
BRANCH   2  13
HETATM   13  C           1     -21.398  -9.670  -0.470  0.00  0.00     0.311 C 
HETATM   14  C           1     -22.917  -9.689  -0.469  0.00  0.00     0.047 C 
HETATM   15  C           1     -23.328  -8.577   0.489  0.00  0.00     0.033 C 
HETATM   16  C           1     -22.023  -7.986   0.994  0.00  0.00     0.271 C 
HETATM   17  N           1     -21.058  -9.068   0.816  0.00  0.00     0.097 N 
HETATM   18  H           1     -21.163  -9.745   1.571  0.00  0.00     0.317 HD
ENDBRANCH   2  13
TORSDOF 6
ENDMDL
MODEL 6
REMARK VINA RESULT:      -4.9      6.163      8.302
REMARK  6 active torsions:
REMARK  status: ('A' for Active; 'I' for Inactive)
REMARK    1  A    between atoms: S_2  and  C_10 
REMARK    2  A    between atoms: C_3  and  C_14 
REMARK       I    between atoms: C_8  and  N_15 
REMARK    3  A    between atoms: C_8  and  C_12 
REMARK    4  A    between atoms: C_10  and  C_11 
REMARK    5  A    between atoms: C_11  and  C_14 
REMARK    6  A    between atoms: C_14  and  N_15 
ROOT
HETATM    1  O           1     -22.284  -9.895  -2.862  0.00  0.00    -0.271 OA
HETATM    2  C           1     -21.514  -9.278  -2.166  0.00  0.00     0.251 C 
HETATM    3  H           1     -20.061  -7.804  -2.138  0.00  0.00     0.163 HD
HETATM    4  N           1     -20.706  -8.321  -2.720  0.00  0.00    -0.345 N 
ENDROOT
BRANCH   4   5
HETATM    5  C           1     -20.776  -8.050  -4.143  0.00  0.00     0.186 C 
BRANCH   5   6
HETATM    6  C           1     -19.502  -8.514  -4.805  0.00  0.00     0.196 C 
HETATM    7  O           1     -18.610  -9.066  -4.126  0.00  0.00    -0.646 OA
HETATM    8  O           1     -19.339  -8.346  -6.034  0.00  0.00    -0.646 OA
ENDBRANCH   5   6
BRANCH   5   9
HETATM    9  C           1     -20.948  -6.553  -4.368  0.00  0.00     0.046 C 
BRANCH   9  10
HETATM   10  C           1     -22.120  -6.312  -5.310  0.00  0.00     0.076 C 
BRANCH  10  11
HETATM   11  S           1     -21.592  -5.235  -6.671  0.00  0.00    -0.173 SA
HETATM   12  C           1     -20.029  -4.709  -5.913  0.00  0.00     0.089 C 
ENDBRANCH  10  11
ENDBRANCH   9  10
ENDBRANCH   5   9
ENDBRANCH   4   5
BRANCH   2  13
HETATM   13  C           1     -21.441  -9.561  -0.686  0.00  0.00     0.311 C 
HETATM   14  C           1     -22.797  -9.982  -0.147  0.00  0.00     0.047 C 
HETATM   15  C           1     -23.428  -8.701   0.386  0.00  0.00     0.033 C 
HETATM   16  C           1     -22.396  -7.615   0.133  0.00  0.00     0.271 C 
HETATM   17  N           1     -21.132  -8.345   0.061  0.00  0.00     0.097 N 
HETATM   18  H           1     -20.816  -8.570   1.004  0.00  0.00     0.317 HD
ENDBRANCH   2  13
TORSDOF 6
ENDMDL
MODEL 7
REMARK VINA RESULT:      -4.9      2.855      5.806
REMARK  6 active torsions:
REMARK  status: ('A' for Active; 'I' for Inactive)
REMARK    1  A    between atoms: S_2  and  C_10 
REMARK    2  A    between atoms: C_3  and  C_14 
REMARK       I    between atoms: C_8  and  N_15 
REMARK    3  A    between atoms: C_8  and  C_12 
REMARK    4  A    between atoms: C_10  and  C_11 
REMARK    5  A    between atoms: C_11  and  C_14 
REMARK    6  A    between atoms: C_14  and  N_15 
ROOT
HETATM    1  O           1     -20.481  -4.968 -10.275  0.00  0.00    -0.271 OA
HETATM    2  C           1     -21.197  -3.998 -10.356  0.00  0.00     0.251 C 
HETATM    3  H           1     -22.562  -2.809  -9.355  0.00  0.00     0.163 HD
HETATM    4  N           1     -21.964  -3.621  -9.287  0.00  0.00    -0.345 N 
ENDROOT
BRANCH   4   5
HETATM    5  C           1     -21.917  -4.386  -8.056  0.00  0.00     0.186 C 
BRANCH   5   6
HETATM    6  C           1     -23.305  -4.482  -7.472  0.00  0.00     0.196 C 
HETATM    7  O           1     -24.297  -4.173  -8.165  0.00  0.00    -0.646 OA
HETATM    8  O           1     -23.462  -4.871  -6.293  0.00  0.00    -0.646 OA
ENDBRANCH   5   6
BRANCH   5   9
HETATM    9  C           1     -20.995  -3.693  -7.061  0.00  0.00     0.046 C 
BRANCH   9  10
HETATM   10  C           1     -19.721  -4.512  -6.893  0.00  0.00     0.076 C 
BRANCH  10  11
HETATM   11  S           1     -20.152  -6.235  -6.523  0.00  0.00    -0.173 SA
HETATM   12  C           1     -20.719  -5.937  -4.824  0.00  0.00     0.089 C 
ENDBRANCH  10  11
ENDBRANCH   9  10
ENDBRANCH   5   9
ENDBRANCH   4   5
BRANCH   2  13
HETATM   13  C           1     -21.246  -3.203 -11.637  0.00  0.00     0.311 C 
HETATM   14  C           1     -22.314  -2.125 -11.565  0.00  0.00     0.047 C 
HETATM   15  C           1     -23.550  -2.747 -12.201  0.00  0.00     0.033 C 
HETATM   16  C           1     -23.123  -4.146 -12.613  0.00  0.00     0.271 C 
HETATM   17  N           1     -21.673  -4.041 -12.754  0.00  0.00     0.097 N 
HETATM   18  H           1     -21.450  -3.598 -13.645  0.00  0.00     0.317 HD
ENDBRANCH   2  13
TORSDOF 6
ENDMDL
MODEL 8
REMARK VINA RESULT:      -4.9      8.816     11.297
REMARK  6 active torsions:
REMARK  status: ('A' for Active; 'I' for Inactive)
REMARK    1  A    between atoms: S_2  and  C_10 
REMARK    2  A    between atoms: C_3  and  C_14 
REMARK       I    between atoms: C_8  and  N_15 
REMARK    3  A    between atoms: C_8  and  C_12 
REMARK    4  A    between atoms: C_10  and  C_11 
REMARK    5  A    between atoms: C_11  and  C_14 
REMARK    6  A    between atoms: C_14  and  N_15 
ROOT
HETATM    1  O           1     -28.075  -5.237 -19.143  0.00  0.00    -0.271 OA
HETATM    2  C           1     -27.197  -6.050 -19.306  0.00  0.00     0.251 C 
HETATM    3  H           1     -25.860  -7.315 -18.359  0.00  0.00     0.163 HD
HETATM    4  N           1     -26.595  -6.634 -18.223  0.00  0.00    -0.345 N 
ENDROOT
BRANCH   4   5
HETATM    5  C           1     -27.012  -6.274 -16.882  0.00  0.00     0.186 C 
BRANCH   5   6
HETATM    6  C           1     -25.855  -6.458 -15.930  0.00  0.00     0.196 C 
HETATM    7  O           1     -25.685  -7.557 -15.359  0.00  0.00    -0.646 OA
HETATM    8  O           1     -25.067  -5.512 -15.714  0.00  0.00    -0.646 OA
ENDBRANCH   5   6
BRANCH   5   9
HETATM    9  C           1     -28.168  -7.167 -16.452  0.00  0.00     0.046 C 
BRANCH   9  10
HETATM   10  C           1     -29.245  -6.319 -15.787  0.00  0.00     0.076 C 
BRANCH  10  11
HETATM   11  S           1     -30.601  -6.035 -16.959  0.00  0.00    -0.173 SA
HETATM   12  C           1     -30.341  -7.543 -17.934  0.00  0.00     0.089 C 
ENDBRANCH  10  11
ENDBRANCH   9  10
ENDBRANCH   5   9
ENDBRANCH   4   5
BRANCH   2  13
HETATM   13  C           1     -26.763  -6.424 -20.702  0.00  0.00     0.311 C 
HETATM   14  C           1     -26.432  -7.903 -20.788  0.00  0.00     0.047 C 
HETATM   15  C           1     -24.927  -7.988 -20.570  0.00  0.00     0.033 C 
HETATM   16  C           1     -24.473  -6.551 -20.379  0.00  0.00     0.271 C 
HETATM   17  N           1     -25.506  -5.766 -21.048  0.00  0.00     0.097 N 
HETATM   18  H           1     -25.352  -5.790 -22.056  0.00  0.00     0.317 HD
ENDBRANCH   2  13
TORSDOF 6
ENDMDL
MODEL 9
REMARK VINA RESULT:      -4.8      6.864      9.166
REMARK  6 active torsions:
REMARK  status: ('A' for Active; 'I' for Inactive)
REMARK    1  A    between atoms: S_2  and  C_10 
REMARK    2  A    between atoms: C_3  and  C_14 
REMARK       I    between atoms: C_8  and  N_15 
REMARK    3  A    between atoms: C_8  and  C_12 
REMARK    4  A    between atoms: C_10  and  C_11 
REMARK    5  A    between atoms: C_11  and  C_14 
REMARK    6  A    between atoms: C_14  and  N_15 
ROOT
HETATM    1  O           1     -20.057  -7.791  -1.545  0.00  0.00    -0.271 OA
HETATM    2  C           1     -21.191  -8.130  -1.788  0.00  0.00     0.251 C 
HETATM    3  H           1     -22.571  -8.482  -3.290  0.00  0.00     0.163 HD
HETATM    4  N           1     -21.622  -8.198  -3.086  0.00  0.00    -0.345 N 
ENDROOT
BRANCH   4   5
HETATM    5  C           1     -20.717  -7.861  -4.168  0.00  0.00     0.186 C 
BRANCH   5   6
HETATM    6  C           1     -21.433  -6.986  -5.167  0.00  0.00     0.196 C 
HETATM    7  O           1     -22.236  -6.114  -4.771  0.00  0.00    -0.646 OA
HETATM    8  O           1     -21.223  -7.133  -6.391  0.00  0.00    -0.646 OA
ENDBRANCH   5   6
BRANCH   5   9
HETATM    9  C           1     -20.250  -9.137  -4.856  0.00  0.00     0.046 C 
BRANCH   9  10
HETATM   10  C           1     -18.738  -9.262  -4.723  0.00  0.00     0.076 C 
BRANCH  10  11
HETATM   11  S           1     -18.340 -10.397  -3.365  0.00  0.00    -0.173 SA
HETATM   12  C           1     -16.819  -9.557  -2.842  0.00  0.00     0.089 C 
ENDBRANCH  10  11
ENDBRANCH   9  10
ENDBRANCH   5   9
ENDBRANCH   4   5
BRANCH   2  13
HETATM   13  C           1     -22.132  -8.480  -0.662  0.00  0.00     0.311 C 
HETATM   14  C           1     -21.389  -8.559   0.660  0.00  0.00     0.047 C 
HETATM   15  C           1     -21.041 -10.032   0.833  0.00  0.00     0.033 C 
HETATM   16  C           1     -21.611 -10.721  -0.396  0.00  0.00     0.271 C 
HETATM   17  N           1     -22.675  -9.824  -0.837  0.00  0.00     0.097 N 
HETATM   18  H           1     -23.499  -9.960  -0.251  0.00  0.00     0.317 HD
ENDBRANCH   2  13
TORSDOF 6
ENDMDL
