MODEL 1
REMARK VINA RESULT:      -8.6      0.000      0.000
REMARK  9 active torsions:
REMARK  status: ('A' for Active; 'I' for Inactive)
REMARK       I    between atoms: C_2  and  N_10 
REMARK    1  A    between atoms: C_2  and  C_26 
REMARK    2  A    between atoms: C_8  and  C_11 
REMARK    3  A    between atoms: C_8  and  C_13 
REMARK    4  A    between atoms: N_10  and  C_13 
REMARK    5  A    between atoms: C_13  and  C_14 
REMARK    6  A    between atoms: O_19  and  C_20 
REMARK    7  A    between atoms: N_24  and  C_26 
REMARK    8  A    between atoms: C_26  and  C_27 
REMARK    9  A    between atoms: C_27  and  C_28 
ROOT
HETATM    1  C           1     -20.608  -7.613  -5.833  0.00  0.00     0.249 C 
HETATM    2  N           1     -21.404  -6.554  -6.177  0.00  0.00    -0.344 N 
HETATM    3  O           1     -19.486  -7.692  -6.272  0.00  0.00    -0.271 OA
HETATM    4  H           1     -22.345  -6.488  -5.810  0.00  0.00     0.163 HD
ENDROOT
BRANCH   2   5
HETATM    5  C           1     -20.901  -5.527  -7.068  0.00  0.00     0.189 C 
BRANCH   5   6
HETATM    6  C           1     -22.043  -4.611  -7.483  0.00  0.00     0.074 C 
BRANCH   6   7
HETATM    7  C           1     -21.976  -4.364  -8.959  0.00  0.00    -0.056 A 
HETATM    8  C           1     -23.142  -4.086  -9.673  0.00  0.00     0.010 A 
HETATM    9  C           1     -23.079  -3.856 -11.047  0.00  0.00     0.037 A 
HETATM   10  C           1     -21.851  -3.904 -11.707  0.00  0.00     0.065 A 
HETATM   11  C           1     -20.686  -4.182 -10.992  0.00  0.00     0.037 A 
HETATM   12  C           1     -20.748  -4.412  -9.618  0.00  0.00     0.010 A 
BRANCH  10  13
HETATM   13  O           1     -21.789  -3.681 -13.042  0.00  0.00    -0.361 OA
HETATM   14  H           1     -22.542  -4.134 -13.457  0.00  0.00     0.217 HD
ENDBRANCH  10  13
ENDBRANCH   6   7
ENDBRANCH   5   6
BRANCH   5  15
HETATM   15  C           1     -19.841  -4.722  -6.358  0.00  0.00     0.197 C 
HETATM   16  O           1     -18.772  -4.442  -6.942  0.00  0.00    -0.646 OA
HETATM   17  O           1     -20.032  -4.336  -5.185  0.00  0.00    -0.646 OA
ENDBRANCH   5  15
ENDBRANCH   2   5
BRANCH   1  18
HETATM   18  C           1     -21.133  -8.682  -4.905  0.00  0.00     0.278 C 
BRANCH  18  19
HETATM   19  N           1     -21.066 -10.014  -5.592  0.00  0.00    -0.066 N 
HETATM   20  H           1     -21.071 -10.776  -4.875  0.00  0.00     0.275 HD
HETATM   21  H           1     -20.188 -10.072  -6.156  0.00  0.00     0.275 HD
HETATM   22  H           1     -21.893 -10.125  -6.221  0.00  0.00     0.275 HD
ENDBRANCH  18  19
BRANCH  18  23
HETATM   23  C           1     -20.284  -8.720  -3.642  0.00  0.00     0.081 C 
BRANCH  23  24
HETATM   24  C           1     -21.105  -8.267  -2.475  0.00  0.00    -0.056 A 
HETATM   25  C           1     -21.470  -9.179  -1.483  0.00  0.00     0.007 A 
HETATM   26  C           1     -22.235  -8.757  -0.397  0.00  0.00     0.001 A 
HETATM   27  C           1     -22.637  -7.425  -0.301  0.00  0.00     0.000 A 
HETATM   28  C           1     -22.273  -6.513  -1.293  0.00  0.00     0.001 A 
HETATM   29  C           1     -21.507  -6.934  -2.379  0.00  0.00     0.007 A 
ENDBRANCH  23  24
ENDBRANCH  18  23
ENDBRANCH   1  18
TORSDOF 9
ENDMDL
MODEL 2
REMARK VINA RESULT:      -8.3      2.139      8.340
REMARK  9 active torsions:
REMARK  status: ('A' for Active; 'I' for Inactive)
REMARK       I    between atoms: C_2  and  N_10 
REMARK    1  A    between atoms: C_2  and  C_26 
REMARK    2  A    between atoms: C_8  and  C_11 
REMARK    3  A    between atoms: C_8  and  C_13 
REMARK    4  A    between atoms: N_10  and  C_13 
REMARK    5  A    between atoms: C_13  and  C_14 
REMARK    6  A    between atoms: O_19  and  C_20 
REMARK    7  A    between atoms: N_24  and  C_26 
REMARK    8  A    between atoms: C_26  and  C_27 
REMARK    9  A    between atoms: C_27  and  C_28 
ROOT
HETATM    1  C           1     -21.412  -6.013  -5.610  0.00  0.00     0.249 C 
HETATM    2  N           1     -21.309  -7.376  -5.537  0.00  0.00    -0.344 N 
HETATM    3  O           1     -20.917  -5.324  -4.750  0.00  0.00    -0.271 OA
HETATM    4  H           1     -21.724  -7.953  -6.258  0.00  0.00     0.163 HD
ENDROOT
BRANCH   2   5
HETATM    5  C           1     -20.607  -7.993  -4.429  0.00  0.00     0.189 C 
BRANCH   5   6
HETATM    6  C           1     -21.460  -9.113  -3.849  0.00  0.00     0.074 C 
BRANCH   6   7
HETATM    7  C           1     -21.835  -8.775  -2.439  0.00  0.00    -0.056 A 
HETATM    8  C           1     -22.200  -9.790  -1.553  0.00  0.00     0.010 A 
HETATM    9  C           1     -22.549  -9.475  -0.240  0.00  0.00     0.037 A 
HETATM   10  C           1     -22.534  -8.148   0.188  0.00  0.00     0.065 A 
HETATM   11  C           1     -22.170  -7.135  -0.699  0.00  0.00     0.037 A 
HETATM   12  C           1     -21.820  -7.448  -2.012  0.00  0.00     0.010 A 
BRANCH  10  13
HETATM   13  O           1     -22.875  -7.842   1.463  0.00  0.00    -0.361 OA
HETATM   14  H           1     -22.291  -8.342   2.058  0.00  0.00     0.217 HD
ENDBRANCH  10  13
ENDBRANCH   6   7
ENDBRANCH   5   6
BRANCH   5  15
HETATM   15  C           1     -19.297  -8.559  -4.918  0.00  0.00     0.197 C 
HETATM   16  O           1     -18.509  -9.100  -4.111  0.00  0.00    -0.646 OA
HETATM   17  O           1     -18.998  -8.487  -6.130  0.00  0.00    -0.646 OA
ENDBRANCH   5  15
ENDBRANCH   2   5
BRANCH   1  18
HETATM   18  C           1     -22.142  -5.371  -6.764  0.00  0.00     0.278 C 
BRANCH  18  19
HETATM   19  N           1     -23.517  -4.966  -6.320  0.00  0.00    -0.066 N 
HETATM   20  H           1     -23.789  -4.076  -6.798  0.00  0.00     0.275 HD
HETATM   21  H           1     -23.521  -4.821  -5.285  0.00  0.00     0.275 HD
HETATM   22  H           1     -24.200  -5.716  -6.570  0.00  0.00     0.275 HD
ENDBRANCH  18  19
BRANCH  18  23
HETATM   23  C           1     -21.376  -4.140  -7.228  0.00  0.00     0.081 C 
BRANCH  23  24
HETATM   24  C           1     -21.391  -4.078  -8.724  0.00  0.00    -0.056 A 
HETATM   25  C           1     -20.243  -4.401  -9.447  0.00  0.00     0.007 A 
HETATM   26  C           1     -20.257  -4.343 -10.841  0.00  0.00     0.001 A 
HETATM   27  C           1     -21.419  -3.961 -11.511  0.00  0.00     0.000 A 
HETATM   28  C           1     -22.568  -3.638 -10.788  0.00  0.00     0.001 A 
HETATM   29  C           1     -22.554  -3.697  -9.395  0.00  0.00     0.007 A 
ENDBRANCH  23  24
ENDBRANCH  18  23
ENDBRANCH   1  18
TORSDOF 9
ENDMDL
MODEL 3
REMARK VINA RESULT:      -8.1      2.062      8.159
REMARK  9 active torsions:
REMARK  status: ('A' for Active; 'I' for Inactive)
REMARK       I    between atoms: C_2  and  N_10 
REMARK    1  A    between atoms: C_2  and  C_26 
REMARK    2  A    between atoms: C_8  and  C_11 
REMARK    3  A    between atoms: C_8  and  C_13 
REMARK    4  A    between atoms: N_10  and  C_13 
REMARK    5  A    between atoms: C_13  and  C_14 
REMARK    6  A    between atoms: O_19  and  C_20 
REMARK    7  A    between atoms: N_24  and  C_26 
REMARK    8  A    between atoms: C_26  and  C_27 
REMARK    9  A    between atoms: C_27  and  C_28 
ROOT
HETATM    1  C           1     -20.360  -5.359  -6.174  0.00  0.00     0.249 C 
HETATM    2  N           1     -20.211  -6.718  -6.221  0.00  0.00    -0.344 N 
HETATM    3  O           1     -20.388  -4.791  -5.108  0.00  0.00    -0.271 OA
HETATM    4  H           1     -20.187  -7.194  -7.114  0.00  0.00     0.163 HD
ENDROOT
BRANCH   2   5
HETATM    5  C           1     -20.087  -7.478  -4.992  0.00  0.00     0.189 C 
BRANCH   5   6
HETATM    6  C           1     -21.426  -8.118  -4.655  0.00  0.00     0.074 C 
BRANCH   6   7
HETATM    7  C           1     -21.685  -7.991  -3.185  0.00  0.00    -0.056 A 
HETATM    8  C           1     -21.970  -6.742  -2.633  0.00  0.00     0.010 A 
HETATM    9  C           1     -22.211  -6.624  -1.265  0.00  0.00     0.037 A 
HETATM   10  C           1     -22.167  -7.753  -0.448  0.00  0.00     0.065 A 
HETATM   11  C           1     -21.881  -9.002  -1.001  0.00  0.00     0.037 A 
HETATM   12  C           1     -21.640  -9.121  -2.370  0.00  0.00     0.010 A 
BRANCH  10  13
HETATM   13  O           1     -22.400  -7.638   0.882  0.00  0.00    -0.361 OA
HETATM   14  H           1     -21.816  -6.944   1.230  0.00  0.00     0.217 HD
ENDBRANCH  10  13
ENDBRANCH   6   7
ENDBRANCH   5   6
BRANCH   5  15
HETATM   15  C           1     -19.045  -8.554  -5.170  0.00  0.00     0.197 C 
HETATM   16  O           1     -18.584  -8.797  -6.307  0.00  0.00    -0.646 OA
HETATM   17  O           1     -18.641  -9.203  -4.181  0.00  0.00    -0.646 OA
ENDBRANCH   5  15
ENDBRANCH   2   5
BRANCH   1  18
HETATM   18  C           1     -20.488  -4.568  -7.453  0.00  0.00     0.278 C 
BRANCH  18  19
HETATM   19  N           1     -19.133  -4.087  -7.881  0.00  0.00    -0.066 N 
HETATM   20  H           1     -19.079  -3.050  -7.765  0.00  0.00     0.275 HD
HETATM   21  H           1     -18.976  -4.335  -8.884  0.00  0.00     0.275 HD
HETATM   22  H           1     -18.400  -4.541  -7.290  0.00  0.00     0.275 HD
ENDBRANCH  18  19
BRANCH  18  23
HETATM   23  C           1     -21.079  -5.454  -8.542  0.00  0.00     0.081 C 
BRANCH  23  24
HETATM   24  C           1     -21.744  -4.599  -9.575  0.00  0.00    -0.056 A 
HETATM   25  C           1     -23.054  -4.160  -9.379  0.00  0.00     0.007 A 
HETATM   26  C           1     -23.674  -3.364 -10.342  0.00  0.00     0.001 A 
HETATM   27  C           1     -22.985  -3.006 -11.500  0.00  0.00     0.000 A 
HETATM   28  C           1     -21.675  -3.445 -11.697  0.00  0.00     0.001 A 
HETATM   29  C           1     -21.055  -4.241 -10.734  0.00  0.00     0.007 A 
ENDBRANCH  23  24
ENDBRANCH  18  23
ENDBRANCH   1  18
TORSDOF 9
ENDMDL
MODEL 4
REMARK VINA RESULT:      -8.0      2.259      8.159
REMARK  9 active torsions:
REMARK  status: ('A' for Active; 'I' for Inactive)
REMARK       I    between atoms: C_2  and  N_10 
REMARK    1  A    between atoms: C_2  and  C_26 
REMARK    2  A    between atoms: C_8  and  C_11 
REMARK    3  A    between atoms: C_8  and  C_13 
REMARK    4  A    between atoms: N_10  and  C_13 
REMARK    5  A    between atoms: C_13  and  C_14 
REMARK    6  A    between atoms: O_19  and  C_20 
REMARK    7  A    between atoms: N_24  and  C_26 
REMARK    8  A    between atoms: C_26  and  C_27 
REMARK    9  A    between atoms: C_27  and  C_28 
ROOT
HETATM    1  C           1     -20.553  -7.317  -5.587  0.00  0.00     0.249 C 
HETATM    2  N           1     -20.818  -8.066  -4.473  0.00  0.00    -0.344 N 
HETATM    3  O           1     -19.535  -7.501  -6.210  0.00  0.00    -0.271 OA
HETATM    4  H           1     -21.671  -7.911  -3.951  0.00  0.00     0.163 HD
ENDROOT
BRANCH   2   5
HETATM    5  C           1     -19.877  -9.080  -4.039  0.00  0.00     0.189 C 
BRANCH   5   6
HETATM    6  C           1     -19.387  -8.750  -2.636  0.00  0.00     0.074 C 
BRANCH   6   7
HETATM    7  C           1     -20.560  -8.462  -1.751  0.00  0.00    -0.056 A 
HETATM    8  C           1     -21.190  -7.219  -1.811  0.00  0.00     0.010 A 
HETATM    9  C           1     -22.283  -6.952  -0.986  0.00  0.00     0.037 A 
HETATM   10  C           1     -22.746  -7.926  -0.102  0.00  0.00     0.065 A 
HETATM   11  C           1     -22.115  -9.169  -0.043  0.00  0.00     0.037 A 
HETATM   12  C           1     -21.022  -9.437  -0.867  0.00  0.00     0.010 A 
BRANCH  10  13
HETATM   13  O           1     -23.807  -7.666   0.699  0.00  0.00    -0.361 OA
HETATM   14  H           1     -23.516  -7.756   1.622  0.00  0.00     0.217 HD
ENDBRANCH  10  13
ENDBRANCH   6   7
ENDBRANCH   5   6
BRANCH   5  15
HETATM   15  C           1     -20.558 -10.426  -4.031  0.00  0.00     0.197 C 
HETATM   16  O           1     -19.909 -11.453  -3.737  0.00  0.00    -0.646 OA
HETATM   17  O           1     -21.771 -10.514  -4.319  0.00  0.00    -0.646 OA
ENDBRANCH   5  15
ENDBRANCH   2   5
BRANCH   1  18
HETATM   18  C           1     -21.533  -6.262  -6.039  0.00  0.00     0.278 C 
BRANCH  18  19
HETATM   19  N           1     -22.525  -6.000  -4.944  0.00  0.00    -0.066 N 
HETATM   20  H           1     -23.227  -6.774  -4.918  0.00  0.00     0.275 HD
HETATM   21  H           1     -23.011  -5.093  -5.124  0.00  0.00     0.275 HD
HETATM   22  H           1     -22.027  -5.953  -4.026  0.00  0.00     0.275 HD
ENDBRANCH  18  19
BRANCH  18  23
HETATM   23  C           1     -20.784  -4.977  -6.362  0.00  0.00     0.081 C 
BRANCH  23  24
HETATM   24  C           1     -21.061  -4.580  -7.779  0.00  0.00    -0.056 A 
HETATM   25  C           1     -20.055  -4.680  -8.741  0.00  0.00     0.007 A 
HETATM   26  C           1     -20.314  -4.310 -10.060  0.00  0.00     0.001 A 
HETATM   27  C           1     -21.577  -3.839 -10.418  0.00  0.00     0.000 A 
HETATM   28  C           1     -22.582  -3.738  -9.456  0.00  0.00     0.001 A 
HETATM   29  C           1     -22.324  -4.109  -8.137  0.00  0.00     0.007 A 
ENDBRANCH  23  24
ENDBRANCH  18  23
ENDBRANCH   1  18
TORSDOF 9
ENDMDL
MODEL 5
REMARK VINA RESULT:      -7.6     13.425     16.001
REMARK  9 active torsions:
REMARK  status: ('A' for Active; 'I' for Inactive)
REMARK       I    between atoms: C_2  and  N_10 
REMARK    1  A    between atoms: C_2  and  C_26 
REMARK    2  A    between atoms: C_8  and  C_11 
REMARK    3  A    between atoms: C_8  and  C_13 
REMARK    4  A    between atoms: N_10  and  C_13 
REMARK    5  A    between atoms: C_13  and  C_14 
REMARK    6  A    between atoms: O_19  and  C_20 
REMARK    7  A    between atoms: N_24  and  C_26 
REMARK    8  A    between atoms: C_26  and  C_27 
REMARK    9  A    between atoms: C_27  and  C_28 
ROOT
HETATM    1  C           1     -33.954  -4.536 -15.292  0.00  0.00     0.249 C 
HETATM    2  N           1     -33.497  -3.891 -14.175  0.00  0.00    -0.344 N 
HETATM    3  O           1     -35.027  -5.089 -15.274  0.00  0.00    -0.271 OA
HETATM    4  H           1     -32.598  -3.427 -14.191  0.00  0.00     0.163 HD
ENDROOT
BRANCH   2   5
HETATM    5  C           1     -34.301  -3.871 -12.969  0.00  0.00     0.189 C 
BRANCH   5   6
HETATM    6  C           1     -33.398  -4.039 -11.755  0.00  0.00     0.074 C 
BRANCH   6   7
HETATM    7  C           1     -33.682  -5.356 -11.099  0.00  0.00    -0.056 A 
HETATM    8  C           1     -32.744  -6.386 -11.170  0.00  0.00     0.010 A 
HETATM    9  C           1     -33.009  -7.612 -10.560  0.00  0.00     0.037 A 
HETATM   10  C           1     -34.210  -7.807  -9.878  0.00  0.00     0.065 A 
HETATM   11  C           1     -35.147  -6.776  -9.808  0.00  0.00     0.037 A 
HETATM   12  C           1     -34.883  -5.550 -10.418  0.00  0.00     0.010 A 
BRANCH  10  13
HETATM   13  O           1     -34.468  -8.999  -9.285  0.00  0.00    -0.361 OA
HETATM   14  H           1     -34.942  -9.556  -9.925  0.00  0.00     0.217 HD
ENDBRANCH  10  13
ENDBRANCH   6   7
ENDBRANCH   5   6
BRANCH   5  15
HETATM   15  C           1     -35.033  -2.555 -12.874  0.00  0.00     0.197 C 
HETATM   16  O           1     -34.876  -1.688 -13.760  0.00  0.00    -0.646 OA
HETATM   17  O           1     -35.794  -2.332 -11.908  0.00  0.00    -0.646 OA
ENDBRANCH   5  15
ENDBRANCH   2   5
BRANCH   1  18
HETATM   18  C           1     -33.117  -4.556 -16.548  0.00  0.00     0.278 C 
BRANCH  18  19
HETATM   19  N           1     -33.461  -3.366 -17.395  0.00  0.00    -0.066 N 
HETATM   20  H           1     -32.669  -3.163 -18.048  0.00  0.00     0.275 HD
HETATM   21  H           1     -33.628  -2.537 -16.781  0.00  0.00     0.275 HD
HETATM   22  H           1     -34.324  -3.569 -17.949  0.00  0.00     0.275 HD
ENDBRANCH  18  19
BRANCH  18  23
HETATM   23  C           1     -31.642  -4.505 -16.177  0.00  0.00     0.081 C 
BRANCH  23  24
HETATM   24  C           1     -30.940  -5.695 -16.755  0.00  0.00    -0.056 A 
HETATM   25  C           1     -29.658  -6.029 -16.318  0.00  0.00     0.007 A 
HETATM   26  C           1     -29.005  -7.137 -16.856  0.00  0.00     0.001 A 
HETATM   27  C           1     -29.633  -7.911 -17.832  0.00  0.00     0.000 A 
HETATM   28  C           1     -30.916  -7.577 -18.269  0.00  0.00     0.001 A 
HETATM   29  C           1     -31.569  -6.470 -17.730  0.00  0.00     0.007 A 
ENDBRANCH  23  24
ENDBRANCH  18  23
ENDBRANCH   1  18
TORSDOF 9
ENDMDL
MODEL 6
REMARK VINA RESULT:      -7.6      2.635      7.399
REMARK  9 active torsions:
REMARK  status: ('A' for Active; 'I' for Inactive)
REMARK       I    between atoms: C_2  and  N_10 
REMARK    1  A    between atoms: C_2  and  C_26 
REMARK    2  A    between atoms: C_8  and  C_11 
REMARK    3  A    between atoms: C_8  and  C_13 
REMARK    4  A    between atoms: N_10  and  C_13 
REMARK    5  A    between atoms: C_13  and  C_14 
REMARK    6  A    between atoms: O_19  and  C_20 
REMARK    7  A    between atoms: N_24  and  C_26 
REMARK    8  A    between atoms: C_26  and  C_27 
REMARK    9  A    between atoms: C_27  and  C_28 
ROOT
HETATM    1  C           1     -21.624  -6.262  -4.995  0.00  0.00     0.249 C 
HETATM    2  N           1     -21.001  -6.470  -3.795  0.00  0.00    -0.344 N 
HETATM    3  O           1     -22.582  -6.931  -5.302  0.00  0.00    -0.271 OA
HETATM    4  H           1     -20.198  -5.911  -3.538  0.00  0.00     0.163 HD
ENDROOT
BRANCH   2   5
HETATM    5  C           1     -21.489  -7.493  -2.891  0.00  0.00     0.189 C 
BRANCH   5   6
HETATM    6  C           1     -20.344  -8.419  -2.505  0.00  0.00     0.074 C 
BRANCH   6   7
HETATM    7  C           1     -19.937  -9.233  -3.695  0.00  0.00    -0.056 A 
HETATM    8  C           1     -18.609  -9.226  -4.123  0.00  0.00     0.010 A 
HETATM    9  C           1     -18.231  -9.984  -5.230  0.00  0.00     0.037 A 
HETATM   10  C           1     -19.179 -10.748  -5.911  0.00  0.00     0.065 A 
HETATM   11  C           1     -20.506 -10.753  -5.483  0.00  0.00     0.037 A 
HETATM   12  C           1     -20.886  -9.996  -4.375  0.00  0.00     0.010 A 
BRANCH  10  13
HETATM   13  O           1     -18.811 -11.484  -6.988  0.00  0.00    -0.361 OA
HETATM   14  H           1     -19.541 -11.464  -7.629  0.00  0.00     0.217 HD
ENDBRANCH  10  13
ENDBRANCH   6   7
ENDBRANCH   5   6
BRANCH   5  15
HETATM   15  C           1     -22.049  -6.841  -1.651  0.00  0.00     0.197 C 
HETATM   16  O           1     -22.380  -5.636  -1.673  0.00  0.00    -0.646 OA
HETATM   17  O           1     -22.182  -7.506  -0.601  0.00  0.00    -0.646 OA
ENDBRANCH   5  15
ENDBRANCH   2   5
BRANCH   1  18
HETATM   18  C           1     -21.115  -5.197  -5.936  0.00  0.00     0.278 C 
BRANCH  18  19
HETATM   19  N           1     -19.980  -4.460  -5.288  0.00  0.00    -0.066 N 
HETATM   20  H           1     -19.073  -4.806  -5.677  0.00  0.00     0.275 HD
HETATM   21  H           1     -20.002  -4.625  -4.256  0.00  0.00     0.275 HD
HETATM   22  H           1     -20.073  -3.437  -5.481  0.00  0.00     0.275 HD
ENDBRANCH  18  19
BRANCH  18  23
HETATM   23  C           1     -20.628  -5.847  -7.224  0.00  0.00     0.081 C 
BRANCH  23  24
HETATM   24  C           1     -21.064  -5.022  -8.395  0.00  0.00    -0.056 A 
HETATM   25  C           1     -20.168  -4.750  -9.429  0.00  0.00     0.007 A 
HETATM   26  C           1     -20.575  -3.982 -10.520  0.00  0.00     0.001 A 
HETATM   27  C           1     -21.877  -3.485 -10.576  0.00  0.00     0.000 A 
HETATM   28  C           1     -22.773  -3.757  -9.542  0.00  0.00     0.001 A 
HETATM   29  C           1     -22.367  -4.525  -8.452  0.00  0.00     0.007 A 
ENDBRANCH  23  24
ENDBRANCH  18  23
ENDBRANCH   1  18
TORSDOF 9
ENDMDL
MODEL 7
REMARK VINA RESULT:      -7.5      3.375      8.050
REMARK  9 active torsions:
REMARK  status: ('A' for Active; 'I' for Inactive)
REMARK       I    between atoms: C_2  and  N_10 
REMARK    1  A    between atoms: C_2  and  C_26 
REMARK    2  A    between atoms: C_8  and  C_11 
REMARK    3  A    between atoms: C_8  and  C_13 
REMARK    4  A    between atoms: N_10  and  C_13 
REMARK    5  A    between atoms: C_13  and  C_14 
REMARK    6  A    between atoms: O_19  and  C_20 
REMARK    7  A    between atoms: N_24  and  C_26 
REMARK    8  A    between atoms: C_26  and  C_27 
REMARK    9  A    between atoms: C_27  and  C_28 
ROOT
HETATM    1  C           1     -20.390  -7.475  -5.089  0.00  0.00     0.249 C 
HETATM    2  N           1     -20.377  -8.328  -4.020  0.00  0.00    -0.344 N 
HETATM    3  O           1     -19.715  -7.714  -6.061  0.00  0.00    -0.271 OA
HETATM    4  H           1     -20.943  -8.128  -3.205  0.00  0.00     0.163 HD
ENDROOT
BRANCH   2   5
HETATM    5  C           1     -19.552  -9.520  -4.053  0.00  0.00     0.189 C 
BRANCH   5   6
HETATM    6  C           1     -18.310  -9.301  -3.200  0.00  0.00     0.074 C 
BRANCH   6   7
HETATM    7  C           1     -17.143  -9.997  -3.830  0.00  0.00    -0.056 A 
HETATM    8  C           1     -16.262 -10.734  -3.039  0.00  0.00     0.010 A 
HETATM    9  C           1     -15.175 -11.382  -3.625  0.00  0.00     0.037 A 
HETATM   10  C           1     -14.969 -11.294  -5.002  0.00  0.00     0.065 A 
HETATM   11  C           1     -15.850 -10.556  -5.792  0.00  0.00     0.037 A 
HETATM   12  C           1     -16.938  -9.908  -5.206  0.00  0.00     0.010 A 
BRANCH  10  13
HETATM   13  O           1     -13.912 -11.923  -5.571  0.00  0.00    -0.361 OA
HETATM   14  H           1     -14.248 -12.694  -6.057  0.00  0.00     0.217 HD
ENDBRANCH  10  13
ENDBRANCH   6   7
ENDBRANCH   5   6
BRANCH   5  15
HETATM   15  C           1     -20.337 -10.689  -3.509  0.00  0.00     0.197 C 
HETATM   16  O           1     -20.965 -11.437  -4.289  0.00  0.00    -0.646 OA
HETATM   17  O           1     -20.359 -10.908  -2.278  0.00  0.00    -0.646 OA
ENDBRANCH   5  15
ENDBRANCH   2   5
BRANCH   1  18
HETATM   18  C           1     -21.249  -6.234  -5.055  0.00  0.00     0.278 C 
BRANCH  18  19
HETATM   19  N           1     -21.718  -5.990  -3.651  0.00  0.00    -0.066 N 
HETATM   20  H           1     -22.112  -6.875  -3.257  0.00  0.00     0.275 HD
HETATM   21  H           1     -22.456  -5.251  -3.653  0.00  0.00     0.275 HD
HETATM   22  H           1     -20.912  -5.677  -3.063  0.00  0.00     0.275 HD
ENDBRANCH  18  19
BRANCH  18  23
HETATM   23  C           1     -20.436  -5.039  -5.533  0.00  0.00     0.081 C 
BRANCH  23  24
HETATM   24  C           1     -20.837  -4.690  -6.932  0.00  0.00    -0.056 A 
HETATM   25  C           1     -22.181  -4.482  -7.242  0.00  0.00     0.007 A 
HETATM   26  C           1     -22.554  -4.157  -8.546  0.00  0.00     0.001 A 
HETATM   27  C           1     -21.584  -4.040  -9.540  0.00  0.00     0.000 A 
HETATM   28  C           1     -20.239  -4.247  -9.231  0.00  0.00     0.001 A 
HETATM   29  C           1     -19.866  -4.572  -7.927  0.00  0.00     0.007 A 
ENDBRANCH  23  24
ENDBRANCH  18  23
ENDBRANCH   1  18
TORSDOF 9
ENDMDL
MODEL 8
REMARK VINA RESULT:      -7.5      2.893      7.794
REMARK  9 active torsions:
REMARK  status: ('A' for Active; 'I' for Inactive)
REMARK       I    between atoms: C_2  and  N_10 
REMARK    1  A    between atoms: C_2  and  C_26 
REMARK    2  A    between atoms: C_8  and  C_11 
REMARK    3  A    between atoms: C_8  and  C_13 
REMARK    4  A    between atoms: N_10  and  C_13 
REMARK    5  A    between atoms: C_13  and  C_14 
REMARK    6  A    between atoms: O_19  and  C_20 
REMARK    7  A    between atoms: N_24  and  C_26 
REMARK    8  A    between atoms: C_26  and  C_27 
REMARK    9  A    between atoms: C_27  and  C_28 
ROOT
HETATM    1  C           1     -20.799  -7.050  -5.730  0.00  0.00     0.249 C 
HETATM    2  N           1     -20.218  -7.362  -4.531  0.00  0.00    -0.344 N 
HETATM    3  O           1     -21.310  -7.918  -6.398  0.00  0.00    -0.271 OA
HETATM    4  H           1     -19.789  -6.635  -3.972  0.00  0.00     0.163 HD
ENDROOT
BRANCH   2   5
HETATM    5  C           1     -20.215  -8.733  -4.061  0.00  0.00     0.189 C 
BRANCH   5   6
HETATM    6  C           1     -18.929  -9.003  -3.292  0.00  0.00     0.074 C 
BRANCH   6   7
HETATM    7  C           1     -17.939  -9.674  -4.193  0.00  0.00    -0.056 A 
HETATM    8  C           1     -18.366 -10.256  -5.387  0.00  0.00     0.010 A 
HETATM    9  C           1     -17.444 -10.881  -6.226  0.00  0.00     0.037 A 
HETATM   10  C           1     -16.096 -10.926  -5.872  0.00  0.00     0.065 A 
HETATM   11  C           1     -15.670 -10.345  -4.677  0.00  0.00     0.037 A 
HETATM   12  C           1     -16.592  -9.719  -3.838  0.00  0.00     0.010 A 
BRANCH  10  13
HETATM   13  O           1     -15.200 -11.534  -6.686  0.00  0.00    -0.361 OA
HETATM   14  H           1     -14.670 -10.844  -7.119  0.00  0.00     0.217 HD
ENDBRANCH  10  13
ENDBRANCH   6   7
ENDBRANCH   5   6
BRANCH   5  15
HETATM   15  C           1     -21.400  -8.955  -3.154  0.00  0.00     0.197 C 
HETATM   16  O           1     -21.693  -8.103  -2.288  0.00  0.00    -0.646 OA
HETATM   17  O           1     -22.089  -9.992  -3.269  0.00  0.00    -0.646 OA
ENDBRANCH   5  15
ENDBRANCH   2   5
BRANCH   1  18
HETATM   18  C           1     -20.802  -5.622  -6.220  0.00  0.00     0.278 C 
BRANCH  18  19
HETATM   19  N           1     -20.268  -4.725  -5.143  0.00  0.00    -0.066 N 
HETATM   20  H           1     -19.395  -5.140  -4.745  0.00  0.00     0.275 HD
HETATM   21  H           1     -20.982  -4.624  -4.387  0.00  0.00     0.275 HD
HETATM   22  H           1     -20.053  -3.785  -5.547  0.00  0.00     0.275 HD
ENDBRANCH  18  19
BRANCH  18  23
HETATM   23  C           1     -19.923  -5.507  -7.458  0.00  0.00     0.081 C 
BRANCH  23  24
HETATM   24  C           1     -20.688  -4.830  -8.552  0.00  0.00    -0.056 A 
HETATM   25  C           1     -20.110  -4.670  -9.812  0.00  0.00     0.007 A 
HETATM   26  C           1     -20.824  -4.039 -10.831  0.00  0.00     0.001 A 
HETATM   27  C           1     -22.114  -3.568 -10.591  0.00  0.00     0.000 A 
HETATM   28  C           1     -22.693  -3.728  -9.331  0.00  0.00     0.001 A 
HETATM   29  C           1     -21.980  -4.359  -8.313  0.00  0.00     0.007 A 
ENDBRANCH  23  24
ENDBRANCH  18  23
ENDBRANCH   1  18
TORSDOF 9
ENDMDL
MODEL 9
REMARK VINA RESULT:      -7.4      2.810      8.601
REMARK  9 active torsions:
REMARK  status: ('A' for Active; 'I' for Inactive)
REMARK       I    between atoms: C_2  and  N_10 
REMARK    1  A    between atoms: C_2  and  C_26 
REMARK    2  A    between atoms: C_8  and  C_11 
REMARK    3  A    between atoms: C_8  and  C_13 
REMARK    4  A    between atoms: N_10  and  C_13 
REMARK    5  A    between atoms: C_13  and  C_14 
REMARK    6  A    between atoms: O_19  and  C_20 
REMARK    7  A    between atoms: N_24  and  C_26 
REMARK    8  A    between atoms: C_26  and  C_27 
REMARK    9  A    between atoms: C_27  and  C_28 
ROOT
HETATM    1  C           1     -20.532  -6.946  -6.004  0.00  0.00     0.249 C 
HETATM    2  N           1     -20.761  -7.774  -4.938  0.00  0.00    -0.344 N 
HETATM    3  O           1     -19.502  -7.035  -6.628  0.00  0.00    -0.271 OA
HETATM    4  H           1     -21.623  -7.699  -4.415  0.00  0.00     0.163 HD
ENDROOT
BRANCH   2   5
HETATM    5  C           1     -19.766  -8.758  -4.558  0.00  0.00     0.189 C 
BRANCH   5   6
HETATM    6  C           1     -19.729  -8.881  -3.041  0.00  0.00     0.074 C 
BRANCH   6   7
HETATM    7  C           1     -18.572  -9.743  -2.638  0.00  0.00    -0.056 A 
HETATM    8  C           1     -18.795 -10.912  -1.910  0.00  0.00     0.010 A 
HETATM    9  C           1     -17.717 -11.714  -1.534  0.00  0.00     0.037 A 
HETATM   10  C           1     -16.418 -11.348  -1.886  0.00  0.00     0.065 A 
HETATM   11  C           1     -16.197 -10.179  -2.613  0.00  0.00     0.037 A 
HETATM   12  C           1     -17.274  -9.376  -2.989  0.00  0.00     0.010 A 
BRANCH  10  13
HETATM   13  O           1     -15.371 -12.127  -1.520  0.00  0.00    -0.361 OA
HETATM   14  H           1     -14.725 -11.565  -1.061  0.00  0.00     0.217 HD
ENDBRANCH  10  13
ENDBRANCH   6   7
ENDBRANCH   5   6
BRANCH   5  15
HETATM   15  C           1     -20.124 -10.093  -5.163  0.00  0.00     0.197 C 
HETATM   16  O           1     -19.389 -10.600  -6.037  0.00  0.00    -0.646 OA
HETATM   17  O           1     -21.157 -10.691  -4.791  0.00  0.00    -0.646 OA
ENDBRANCH   5  15
ENDBRANCH   2   5
BRANCH   1  18
HETATM   18  C           1     -21.568  -5.922  -6.400  0.00  0.00     0.278 C 
BRANCH  18  19
HETATM   19  N           1     -22.474  -5.652  -5.235  0.00  0.00    -0.066 N 
HETATM   20  H           1     -22.804  -6.560  -4.834  0.00  0.00     0.275 HD
HETATM   21  H           1     -23.296  -5.092  -5.555  0.00  0.00     0.275 HD
HETATM   22  H           1     -21.952  -5.119  -4.503  0.00  0.00     0.275 HD
ENDBRANCH  18  19
BRANCH  18  23
HETATM   23  C           1     -20.874  -4.631  -6.812  0.00  0.00     0.081 C 
BRANCH  23  24
HETATM   24  C           1     -21.113  -4.378  -8.268  0.00  0.00    -0.056 A 
HETATM   25  C           1     -20.101  -4.628  -9.195  0.00  0.00     0.007 A 
HETATM   26  C           1     -20.325  -4.392 -10.551  0.00  0.00     0.001 A 
HETATM   27  C           1     -21.560  -3.906 -10.981  0.00  0.00     0.000 A 
HETATM   28  C           1     -22.572  -3.655 -10.054  0.00  0.00     0.001 A 
HETATM   29  C           1     -22.349  -3.892  -8.698  0.00  0.00     0.007 A 
ENDBRANCH  23  24
ENDBRANCH  18  23
ENDBRANCH   1  18
TORSDOF 9
ENDMDL
