MODEL 1
REMARK VINA RESULT:      -6.3      0.000      0.000
REMARK  9 active torsions:
REMARK  status: ('A' for Active; 'I' for Inactive)
REMARK    1  A    between atoms: C_1  and  C_19 
REMARK       I    between atoms: C_5  and  N_6 
REMARK    2  A    between atoms: C_5  and  C_7 
REMARK    3  A    between atoms: C_7  and  C_18 
REMARK    4  A    between atoms: N_12  and  C_15 
REMARK    5  A    between atoms: Se_13  and  C_14 
REMARK    6  A    between atoms: C_14  and  C_15 
REMARK    7  A    between atoms: C_15  and  C_16 
REMARK       I    between atoms: C_16  and  N_17 
REMARK    8  A    between atoms: N_17  and  C_19 
REMARK    9  A    between atoms: C_18  and  C_19 
ROOT
HETATM    1  H           1     -22.289  -5.831  -9.198  0.00  0.00     0.163 HD
HETATM    2  O           1     -21.560  -3.425  -7.321  0.00  0.00    -0.271 OA
HETATM    3  C           1     -21.642  -4.574  -7.687  0.00  0.00     0.249 C 
HETATM    4  N           1     -22.221  -4.869  -8.891  0.00  0.00    -0.345 N 
ENDROOT
BRANCH   4   5
HETATM    5  C           1     -22.737  -3.804  -9.729  0.00  0.00     0.186 C 
BRANCH   5   6
HETATM    6  C           1     -24.245  -3.843  -9.720  0.00  0.00     0.196 C 
HETATM    7  O           1     -24.843  -4.920  -9.935  0.00  0.00    -0.646 OA
HETATM    8  O           1     -24.897  -2.800  -9.498  0.00  0.00    -0.646 OA
ENDBRANCH   5   6
BRANCH   5   9
HETATM    9  C           1     -22.231  -3.987 -11.154  0.00  0.00     0.045 C 
BRANCH   9  10
HETATM   10  C           1     -22.405  -2.687 -11.927  0.00  0.00     0.105 C 
BRANCH  10  11
HETATM   11  C           1     -23.208  -2.948 -13.178  0.00  0.00     0.215 C 
HETATM   12  O           1     -24.405  -3.092 -13.109  0.00  0.00    -0.274 OA
HETATM   13  N           1     -22.578  -3.023 -14.391  0.00  0.00    -0.370 N 
HETATM   14  H           1     -21.575  -2.903 -14.449  0.00  0.00     0.159 HD
HETATM   15  H           1     -23.116  -3.198 -15.231  0.00  0.00     0.159 HD
ENDBRANCH  10  11
ENDBRANCH   9  10
ENDBRANCH   5   9
ENDBRANCH   4   5
BRANCH   3  16
HETATM   16  C           1     -21.105  -5.682  -6.816  0.00  0.00     0.274 C 
BRANCH  16  17
HETATM   17  N           1     -19.857  -6.242  -7.431  0.00  0.00    -0.067 N 
HETATM   18  H           1     -19.903  -6.137  -8.470  0.00  0.00     0.275 HD
HETATM   19  H           1     -19.026  -5.724  -7.065  0.00  0.00     0.275 HD
HETATM   20  H           1     -19.772  -7.255  -7.186  0.00  0.00     0.275 HD
ENDBRANCH  16  17
BRANCH  16  21
HETATM   21  C           1     -20.785  -5.132  -5.432  0.00  0.00     0.045 C 
BRANCH  21  22
HETATM   22 Se           1     -21.429  -6.374  -4.075  0.00  0.00     0.000 Se
HETATM   23  H           1     -20.086  -6.860  -3.717  0.00  0.00     0.000 HD
ENDBRANCH  21  22
ENDBRANCH  16  21
ENDBRANCH   3  16
TORSDOF 9
ENDMDL
MODEL 2
REMARK VINA RESULT:      -6.2     12.347     13.858
REMARK  9 active torsions:
REMARK  status: ('A' for Active; 'I' for Inactive)
REMARK    1  A    between atoms: C_1  and  C_19 
REMARK       I    between atoms: C_5  and  N_6 
REMARK    2  A    between atoms: C_5  and  C_7 
REMARK    3  A    between atoms: C_7  and  C_18 
REMARK    4  A    between atoms: N_12  and  C_15 
REMARK    5  A    between atoms: Se_13  and  C_14 
REMARK    6  A    between atoms: C_14  and  C_15 
REMARK    7  A    between atoms: C_15  and  C_16 
REMARK       I    between atoms: C_16  and  N_17 
REMARK    8  A    between atoms: N_17  and  C_19 
REMARK    9  A    between atoms: C_18  and  C_19 
ROOT
HETATM    1  H           1     -35.427  -1.962 -13.892  0.00  0.00     0.163 HD
HETATM    2  O           1     -33.824  -1.966 -11.195  0.00  0.00    -0.271 OA
HETATM    3  C           1     -34.326  -2.414 -12.199  0.00  0.00     0.249 C 
HETATM    4  N           1     -35.006  -1.587 -13.051  0.00  0.00    -0.345 N 
ENDROOT
BRANCH   4   5
HETATM    5  C           1     -35.124  -0.173 -12.751  0.00  0.00     0.186 C 
BRANCH   5   6
HETATM    6  C           1     -36.338   0.057 -11.886  0.00  0.00     0.196 C 
HETATM    7  O           1     -36.203   0.482 -10.719  0.00  0.00    -0.646 OA
HETATM    8  O           1     -37.481  -0.178 -12.337  0.00  0.00    -0.646 OA
ENDBRANCH   5   6
BRANCH   5   9
HETATM    9  C           1     -35.267   0.612 -14.049  0.00  0.00     0.045 C 
BRANCH   9  10
HETATM   10  C           1     -35.449  -0.355 -15.211  0.00  0.00     0.105 C 
BRANCH  10  11
HETATM   11  C           1     -36.774  -0.092 -15.883  0.00  0.00     0.215 C 
HETATM   12  O           1     -37.065  -0.680 -16.897  0.00  0.00    -0.274 OA
HETATM   13  N           1     -37.646   0.814 -15.342  0.00  0.00    -0.370 N 
HETATM   14  H           1     -37.403   1.307 -14.492  0.00  0.00     0.159 HD
HETATM   15  H           1     -38.536   0.992 -15.793  0.00  0.00     0.159 HD
ENDBRANCH  10  11
ENDBRANCH   9  10
ENDBRANCH   5   9
ENDBRANCH   4   5
BRANCH   3  16
HETATM   16  C           1     -34.204  -3.885 -12.512  0.00  0.00     0.274 C 
BRANCH  16  17
HETATM   17  N           1     -33.575  -4.058 -13.863  0.00  0.00    -0.067 N 
HETATM   18  H           1     -33.222  -5.036 -13.960  0.00  0.00     0.275 HD
HETATM   19  H           1     -34.287  -3.869 -14.604  0.00  0.00     0.275 HD
HETATM   20  H           1     -32.780  -3.387 -13.964  0.00  0.00     0.275 HD
ENDBRANCH  16  17
BRANCH  16  21
HETATM   21  C           1     -33.335  -4.558 -11.458  0.00  0.00     0.045 C 
BRANCH  21  22
HETATM   22 Se           1     -34.324  -6.025 -10.640  0.00  0.00     0.000 Se
HETATM   23  H           1     -35.579  -5.265 -10.521  0.00  0.00     0.000 HD
ENDBRANCH  21  22
ENDBRANCH  16  21
ENDBRANCH   3  16
TORSDOF 9
ENDMDL
MODEL 3
REMARK VINA RESULT:      -5.8     12.744     14.753
REMARK  9 active torsions:
REMARK  status: ('A' for Active; 'I' for Inactive)
REMARK    1  A    between atoms: C_1  and  C_19 
REMARK       I    between atoms: C_5  and  N_6 
REMARK    2  A    between atoms: C_5  and  C_7 
REMARK    3  A    between atoms: C_7  and  C_18 
REMARK    4  A    between atoms: N_12  and  C_15 
REMARK    5  A    between atoms: Se_13  and  C_14 
REMARK    6  A    between atoms: C_14  and  C_15 
REMARK    7  A    between atoms: C_15  and  C_16 
REMARK       I    between atoms: C_16  and  N_17 
REMARK    8  A    between atoms: N_17  and  C_19 
REMARK    9  A    between atoms: C_18  and  C_19 
ROOT
HETATM    1  H           1     -34.631  -0.065 -12.084  0.00  0.00     0.163 HD
HETATM    2  O           1     -37.426  -0.687 -13.365  0.00  0.00    -0.271 OA
HETATM    3  C           1     -36.329  -0.191 -13.260  0.00  0.00     0.249 C 
HETATM    4  N           1     -35.549  -0.480 -12.173  0.00  0.00    -0.345 N 
ENDROOT
BRANCH   4   5
HETATM    5  C           1     -36.039  -1.380 -11.147  0.00  0.00     0.186 C 
BRANCH   5   6
HETATM    6  C           1     -36.573  -0.578  -9.987  0.00  0.00     0.196 C 
HETATM    7  O           1     -37.759  -0.183  -9.993  0.00  0.00    -0.646 OA
HETATM    8  O           1     -35.829  -0.306  -9.019  0.00  0.00    -0.646 OA
ENDBRANCH   5   6
BRANCH   5   9
HETATM    9  C           1     -34.901  -2.272 -10.668  0.00  0.00     0.045 C 
BRANCH   9  10
HETATM   10  C           1     -35.010  -3.638 -11.333  0.00  0.00     0.105 C 
BRANCH  10  11
HETATM   11  C           1     -34.064  -3.704 -12.507  0.00  0.00     0.215 C 
HETATM   12  O           1     -34.325  -3.112 -13.528  0.00  0.00    -0.274 OA
HETATM   13  N           1     -32.910  -4.434 -12.414  0.00  0.00    -0.370 N 
HETATM   14  H           1     -32.691  -4.929 -11.559  0.00  0.00     0.159 HD
HETATM   15  H           1     -32.274  -4.478 -13.201  0.00  0.00     0.159 HD
ENDBRANCH  10  11
ENDBRANCH   9  10
ENDBRANCH   5   9
ENDBRANCH   4   5
BRANCH   3  16
HETATM   16  C           1     -35.819   0.745 -14.327  0.00  0.00     0.274 C 
BRANCH  16  17
HETATM   17  N           1     -34.355   0.503 -14.548  0.00  0.00    -0.067 N 
HETATM   18  H           1     -34.200  -0.504 -14.780  0.00  0.00     0.275 HD
HETATM   19  H           1     -34.019   1.099 -15.338  0.00  0.00     0.275 HD
HETATM   20  H           1     -33.828   0.746 -13.678  0.00  0.00     0.275 HD
ENDBRANCH  16  17
BRANCH  16  21
HETATM   21  C           1     -36.576   0.497 -15.625  0.00  0.00     0.045 C 
BRANCH  21  22
HETATM   22 Se           1     -35.824  -1.057 -16.529  0.00  0.00     0.000 Se
HETATM   23  H           1     -34.427  -0.625 -16.359  0.00  0.00     0.000 HD
ENDBRANCH  21  22
ENDBRANCH  16  21
ENDBRANCH   3  16
TORSDOF 9
ENDMDL
MODEL 4
REMARK VINA RESULT:      -5.7     11.865     13.645
REMARK  9 active torsions:
REMARK  status: ('A' for Active; 'I' for Inactive)
REMARK    1  A    between atoms: C_1  and  C_19 
REMARK       I    between atoms: C_5  and  N_6 
REMARK    2  A    between atoms: C_5  and  C_7 
REMARK    3  A    between atoms: C_7  and  C_18 
REMARK    4  A    between atoms: N_12  and  C_15 
REMARK    5  A    between atoms: Se_13  and  C_14 
REMARK    6  A    between atoms: C_14  and  C_15 
REMARK    7  A    between atoms: C_15  and  C_16 
REMARK       I    between atoms: C_16  and  N_17 
REMARK    8  A    between atoms: N_17  and  C_19 
REMARK    9  A    between atoms: C_18  and  C_19 
ROOT
HETATM    1  H           1     -36.170  -3.228 -12.014  0.00  0.00     0.163 HD
HETATM    2  O           1     -34.546  -1.434 -10.018  0.00  0.00    -0.271 OA
HETATM    3  C           1     -35.433  -1.740 -10.778  0.00  0.00     0.249 C 
HETATM    4  N           1     -35.427  -2.971 -11.377  0.00  0.00    -0.345 N 
ENDROOT
BRANCH   4   5
HETATM    5  C           1     -34.354  -3.907 -11.101  0.00  0.00     0.186 C 
BRANCH   5   6
HETATM    6  C           1     -33.392  -3.926 -12.262  0.00  0.00     0.196 C 
HETATM    7  O           1     -32.167  -4.074 -12.056  0.00  0.00    -0.646 OA
HETATM    8  O           1     -33.817  -3.792 -13.429  0.00  0.00    -0.646 OA
ENDBRANCH   5   6
BRANCH   5   9
HETATM    9  C           1     -34.935  -5.300 -10.898  0.00  0.00     0.045 C 
BRANCH   9  10
HETATM   10  C           1     -33.804  -6.317 -10.819  0.00  0.00     0.105 C 
BRANCH  10  11
HETATM   11  C           1     -34.315  -7.591 -10.191  0.00  0.00     0.215 C 
HETATM   12  O           1     -35.345  -7.583  -9.560  0.00  0.00    -0.274 OA
HETATM   13  N           1     -33.611  -8.755 -10.339  0.00  0.00    -0.370 N 
HETATM   14  H           1     -32.748  -8.762 -10.868  0.00  0.00     0.159 HD
HETATM   15  H           1     -33.953  -9.610  -9.918  0.00  0.00     0.159 HD
ENDBRANCH  10  11
ENDBRANCH   9  10
ENDBRANCH   5   9
ENDBRANCH   4   5
BRANCH   3  16
HETATM   16  C           1     -36.550  -0.767 -11.066  0.00  0.00     0.274 C 
BRANCH  16  17
HETATM   17  N           1     -36.288   0.522 -10.344  0.00  0.00    -0.067 N 
HETATM   18  H           1     -35.958   1.242 -11.026  0.00  0.00     0.275 HD
HETATM   19  H           1     -37.170   0.851  -9.889  0.00  0.00     0.275 HD
HETATM   20  H           1     -35.555   0.369  -9.615  0.00  0.00     0.275 HD
ENDBRANCH  16  17
BRANCH  16  21
HETATM   21  C           1     -36.621  -0.504 -12.564  0.00  0.00     0.045 C 
BRANCH  21  22
HETATM   22 Se           1     -34.999   0.408 -13.142  0.00  0.00     0.000 Se
HETATM   23  H           1     -34.368  -0.809 -13.680  0.00  0.00     0.000 HD
ENDBRANCH  21  22
ENDBRANCH  16  21
ENDBRANCH   3  16
TORSDOF 9
ENDMDL
MODEL 5
REMARK VINA RESULT:      -5.2     13.412     15.119
REMARK  9 active torsions:
REMARK  status: ('A' for Active; 'I' for Inactive)
REMARK    1  A    between atoms: C_1  and  C_19 
REMARK       I    between atoms: C_5  and  N_6 
REMARK    2  A    between atoms: C_5  and  C_7 
REMARK    3  A    between atoms: C_7  and  C_18 
REMARK    4  A    between atoms: N_12  and  C_15 
REMARK    5  A    between atoms: Se_13  and  C_14 
REMARK    6  A    between atoms: C_14  and  C_15 
REMARK    7  A    between atoms: C_15  and  C_16 
REMARK       I    between atoms: C_16  and  N_17 
REMARK    8  A    between atoms: N_17  and  C_19 
REMARK    9  A    between atoms: C_18  and  C_19 
ROOT
HETATM    1  H           1     -36.169  -1.807 -13.266  0.00  0.00     0.163 HD
HETATM    2  O           1     -34.919   0.821 -12.095  0.00  0.00    -0.271 OA
HETATM    3  C           1     -35.411   0.087 -12.919  0.00  0.00     0.249 C 
HETATM    4  N           1     -35.757  -1.192 -12.576  0.00  0.00    -0.345 N 
ENDROOT
BRANCH   4   5
HETATM    5  C           1     -35.533  -1.666 -11.224  0.00  0.00     0.186 C 
BRANCH   5   6
HETATM    6  C           1     -34.935  -3.050 -11.269  0.00  0.00     0.196 C 
HETATM    7  O           1     -35.364  -3.890 -12.090  0.00  0.00    -0.646 OA
HETATM    8  O           1     -34.011  -3.357 -10.486  0.00  0.00    -0.646 OA
ENDBRANCH   5   6
BRANCH   5   9
HETATM    9  C           1     -36.859  -1.709 -10.475  0.00  0.00     0.045 C 
BRANCH   9  10
HETATM   10  C           1     -36.757  -0.868  -9.210  0.00  0.00     0.105 C 
BRANCH  10  11
HETATM   11  C           1     -37.167   0.552  -9.515  0.00  0.00     0.215 C 
HETATM   12  O           1     -38.017   0.771 -10.346  0.00  0.00    -0.274 OA
HETATM   13  N           1     -36.576   1.593  -8.850  0.00  0.00    -0.370 N 
HETATM   14  H           1     -35.864   1.410  -8.155  0.00  0.00     0.159 HD
HETATM   15  H           1     -36.851   2.545  -9.055  0.00  0.00     0.159 HD
ENDBRANCH  10  11
ENDBRANCH   9  10
ENDBRANCH   5   9
ENDBRANCH   4   5
BRANCH   3  16
HETATM   16  C           1     -35.643   0.581 -14.326  0.00  0.00     0.274 C 
BRANCH  16  17
HETATM   17  N           1     -34.365   0.488 -15.106  0.00  0.00    -0.067 N 
HETATM   18  H           1     -33.741  -0.227 -14.669  0.00  0.00     0.275 HD
HETATM   19  H           1     -34.578   0.209 -16.091  0.00  0.00     0.275 HD
HETATM   20  H           1     -33.888   1.418 -15.102  0.00  0.00     0.275 HD
ENDBRANCH  16  17
BRANCH  16  21
HETATM   21  C           1     -36.710  -0.275 -14.995  0.00  0.00     0.045 C 
BRANCH  21  22
HETATM   22 Se           1     -35.982  -1.067 -16.621  0.00  0.00     0.000 Se
HETATM   23  H           1     -35.366   0.184 -17.092  0.00  0.00     0.000 HD
ENDBRANCH  21  22
ENDBRANCH  16  21
ENDBRANCH   3  16
TORSDOF 9
ENDMDL
MODEL 6
REMARK VINA RESULT:      -5.1      4.298      7.848
REMARK  9 active torsions:
REMARK  status: ('A' for Active; 'I' for Inactive)
REMARK    1  A    between atoms: C_1  and  C_19 
REMARK       I    between atoms: C_5  and  N_6 
REMARK    2  A    between atoms: C_5  and  C_7 
REMARK    3  A    between atoms: C_7  and  C_18 
REMARK    4  A    between atoms: N_12  and  C_15 
REMARK    5  A    between atoms: Se_13  and  C_14 
REMARK    6  A    between atoms: C_14  and  C_15 
REMARK    7  A    between atoms: C_15  and  C_16 
REMARK       I    between atoms: C_16  and  N_17 
REMARK    8  A    between atoms: N_17  and  C_19 
REMARK    9  A    between atoms: C_18  and  C_19 
ROOT
HETATM    1  H           1     -21.557  -7.181  -7.143  0.00  0.00     0.163 HD
HETATM    2  O           1     -20.621  -4.348  -6.177  0.00  0.00    -0.271 OA
HETATM    3  C           1     -21.070  -5.181  -6.927  0.00  0.00     0.249 C 
HETATM    4  N           1     -21.181  -6.482  -6.515  0.00  0.00    -0.345 N 
ENDROOT
BRANCH   4   5
HETATM    5  C           1     -20.761  -6.860  -5.180  0.00  0.00     0.186 C 
BRANCH   5   6
HETATM    6  C           1     -20.265  -8.284  -5.193  0.00  0.00     0.196 C 
HETATM    7  O           1     -19.190  -8.566  -5.765  0.00  0.00    -0.646 OA
HETATM    8  O           1     -20.929  -9.183  -4.632  0.00  0.00    -0.646 OA
ENDBRANCH   5   6
BRANCH   5   9
HETATM    9  C           1     -21.940  -6.740  -4.223  0.00  0.00     0.045 C 
BRANCH   9  10
HETATM   10  C           1     -21.468  -6.138  -2.907  0.00  0.00     0.105 C 
BRANCH  10  11
HETATM   11  C           1     -21.867  -7.043  -1.767  0.00  0.00     0.215 C 
HETATM   12  O           1     -22.663  -6.661  -0.942  0.00  0.00    -0.274 OA
HETATM   13  N           1     -21.327  -8.297  -1.669  0.00  0.00    -0.370 N 
HETATM   14  H           1     -20.661  -8.617  -2.360  0.00  0.00     0.159 HD
HETATM   15  H           1     -21.595  -8.904  -0.904  0.00  0.00     0.159 HD
ENDBRANCH  10  11
ENDBRANCH   9  10
ENDBRANCH   5   9
ENDBRANCH   4   5
BRANCH   3  16
HETATM   16  C           1     -21.507  -4.789  -8.316  0.00  0.00     0.274 C 
BRANCH  16  17
HETATM   17  N           1     -22.392  -3.580  -8.239  0.00  0.00    -0.067 N 
HETATM   18  H           1     -22.829  -3.528  -7.291  0.00  0.00     0.275 HD
HETATM   19  H           1     -21.822  -2.720  -8.408  0.00  0.00     0.275 HD
HETATM   20  H           1     -23.140  -3.650  -8.965  0.00  0.00     0.275 HD
ENDBRANCH  16  17
BRANCH  16  21
HETATM   21  C           1     -20.283  -4.469  -9.163  0.00  0.00     0.045 C 
BRANCH  21  22
HETATM   22 Se           1     -20.841  -4.074 -10.989  0.00  0.00     0.000 Se
HETATM   23  H           1     -19.725  -3.151 -11.253  0.00  0.00     0.000 HD
ENDBRANCH  21  22
ENDBRANCH  16  21
ENDBRANCH   3  16
TORSDOF 9
ENDMDL
MODEL 7
REMARK VINA RESULT:      -5.0      3.319      6.375
REMARK  9 active torsions:
REMARK  status: ('A' for Active; 'I' for Inactive)
REMARK    1  A    between atoms: C_1  and  C_19 
REMARK       I    between atoms: C_5  and  N_6 
REMARK    2  A    between atoms: C_5  and  C_7 
REMARK    3  A    between atoms: C_7  and  C_18 
REMARK    4  A    between atoms: N_12  and  C_15 
REMARK    5  A    between atoms: Se_13  and  C_14 
REMARK    6  A    between atoms: C_14  and  C_15 
REMARK    7  A    between atoms: C_15  and  C_16 
REMARK       I    between atoms: C_16  and  N_17 
REMARK    8  A    between atoms: N_17  and  C_19 
REMARK    9  A    between atoms: C_18  and  C_19 
ROOT
HETATM    1  H           1     -22.370  -5.819  -8.090  0.00  0.00     0.163 HD
HETATM    2  O           1     -22.706  -2.897  -9.178  0.00  0.00    -0.271 OA
HETATM    3  C           1     -22.932  -4.077  -9.055  0.00  0.00     0.249 C 
HETATM    4  N           1     -22.181  -4.831  -8.193  0.00  0.00    -0.345 N 
ENDROOT
BRANCH   4   5
HETATM    5  C           1     -21.114  -4.213  -7.430  0.00  0.00     0.186 C 
BRANCH   5   6
HETATM    6  C           1     -19.790  -4.500  -8.093  0.00  0.00     0.196 C 
HETATM    7  O           1     -19.727  -4.625  -9.335  0.00  0.00    -0.646 OA
HETATM    8  O           1     -18.756  -4.614  -7.400  0.00  0.00    -0.646 OA
ENDBRANCH   5   6
BRANCH   5   9
HETATM    9  C           1     -21.109  -4.779  -6.015  0.00  0.00     0.045 C 
BRANCH   9  10
HETATM   10  C           1     -22.015  -6.001  -5.953  0.00  0.00     0.105 C 
BRANCH  10  11
HETATM   11  C           1     -21.201  -7.213  -5.571  0.00  0.00     0.215 C 
HETATM   12  O           1     -21.676  -8.058  -4.850  0.00  0.00    -0.274 OA
HETATM   13  N           1     -19.923  -7.354  -6.042  0.00  0.00    -0.370 N 
HETATM   14  H           1     -19.525  -6.646  -6.646  0.00  0.00     0.159 HD
HETATM   15  H           1     -19.377  -8.167  -5.786  0.00  0.00     0.159 HD
ENDBRANCH  10  11
ENDBRANCH   9  10
ENDBRANCH   5   9
ENDBRANCH   4   5
BRANCH   3  16
HETATM   16  C           1     -24.042  -4.720  -9.849  0.00  0.00     0.274 C 
BRANCH  16  17
HETATM   17  N           1     -25.291  -3.900  -9.717  0.00  0.00    -0.067 N 
HETATM   18  H           1     -26.010  -4.249 -10.390  0.00  0.00     0.275 HD
HETATM   19  H           1     -25.658  -3.980  -8.742  0.00  0.00     0.275 HD
HETATM   20  H           1     -25.074  -2.899  -9.926  0.00  0.00     0.275 HD
ENDBRANCH  16  17
BRANCH  16  21
HETATM   21  C           1     -23.638  -4.798 -11.315  0.00  0.00     0.045 C 
BRANCH  21  22
HETATM   22 Se           1     -24.301  -3.225 -12.256  0.00  0.00     0.000 Se
HETATM   23  H           1     -23.964  -3.739 -13.593  0.00  0.00     0.000 HD
ENDBRANCH  21  22
ENDBRANCH  16  21
ENDBRANCH   3  16
TORSDOF 9
ENDMDL
MODEL 8
REMARK VINA RESULT:      -4.9      8.859     11.025
REMARK  9 active torsions:
REMARK  status: ('A' for Active; 'I' for Inactive)
REMARK    1  A    between atoms: C_1  and  C_19 
REMARK       I    between atoms: C_5  and  N_6 
REMARK    2  A    between atoms: C_5  and  C_7 
REMARK    3  A    between atoms: C_7  and  C_18 
REMARK    4  A    between atoms: N_12  and  C_15 
REMARK    5  A    between atoms: Se_13  and  C_14 
REMARK    6  A    between atoms: C_14  and  C_15 
REMARK    7  A    between atoms: C_15  and  C_16 
REMARK       I    between atoms: C_16  and  N_17 
REMARK    8  A    between atoms: N_17  and  C_19 
REMARK    9  A    between atoms: C_18  and  C_19 
ROOT
HETATM    1  H           1     -27.387  -6.166 -18.585  0.00  0.00     0.163 HD
HETATM    2  O           1     -27.529  -7.179 -15.620  0.00  0.00    -0.271 OA
HETATM    3  C           1     -27.036  -6.719 -16.622  0.00  0.00     0.249 C 
HETATM    4  N           1     -27.800  -6.551 -17.746  0.00  0.00    -0.345 N 
ENDROOT
BRANCH   4   5
HETATM    5  C           1     -29.200  -6.927 -17.734  0.00  0.00     0.186 C 
BRANCH   5   6
HETATM    6  C           1     -29.474  -7.884 -18.867  0.00  0.00     0.196 C 
HETATM    7  O           1     -30.598  -8.421 -18.973  0.00  0.00    -0.646 OA
HETATM    8  O           1     -28.578  -8.139 -19.701  0.00  0.00    -0.646 OA
ENDBRANCH   5   6
BRANCH   5   9
HETATM    9  C           1     -30.062  -5.682 -17.899  0.00  0.00     0.045 C 
BRANCH   9  10
HETATM   10  C           1     -30.849  -5.434 -16.619  0.00  0.00     0.105 C 
BRANCH  10  11
HETATM   11  C           1     -31.904  -4.385 -16.872  0.00  0.00     0.215 C 
HETATM   12  O           1     -33.019  -4.531 -16.431  0.00  0.00    -0.274 OA
HETATM   13  N           1     -31.596  -3.268 -17.601  0.00  0.00    -0.370 N 
HETATM   14  H           1     -30.662  -3.145 -17.971  0.00  0.00     0.159 HD
HETATM   15  H           1     -32.304  -2.564 -17.771  0.00  0.00     0.159 HD
ENDBRANCH  10  11
ENDBRANCH   9  10
ENDBRANCH   5   9
ENDBRANCH   4   5
BRANCH   3  16
HETATM   16  C           1     -25.579  -6.328 -16.635  0.00  0.00     0.274 C 
BRANCH  16  17
HETATM   17  N           1     -25.107  -6.109 -15.228  0.00  0.00    -0.067 N 
HETATM   18  H           1     -25.673  -6.696 -14.576  0.00  0.00     0.275 HD
HETATM   19  H           1     -24.099  -6.376 -15.154  0.00  0.00     0.275 HD
HETATM   20  H           1     -25.220  -5.100 -14.977  0.00  0.00     0.275 HD
ENDBRANCH  16  17
BRANCH  16  21
HETATM   21  C           1     -24.760  -7.440 -17.278  0.00  0.00     0.045 C 
BRANCH  21  22
HETATM   22 Se           1     -24.424  -7.002 -19.147  0.00  0.00     0.000 Se
HETATM   23  H           1     -24.352  -8.406 -19.583  0.00  0.00     0.000 HD
ENDBRANCH  21  22
ENDBRANCH  16  21
ENDBRANCH   3  16
TORSDOF 9
ENDMDL
MODEL 9
REMARK VINA RESULT:      -4.7      4.465      7.922
REMARK  9 active torsions:
REMARK  status: ('A' for Active; 'I' for Inactive)
REMARK    1  A    between atoms: C_1  and  C_19 
REMARK       I    between atoms: C_5  and  N_6 
REMARK    2  A    between atoms: C_5  and  C_7 
REMARK    3  A    between atoms: C_7  and  C_18 
REMARK    4  A    between atoms: N_12  and  C_15 
REMARK    5  A    between atoms: Se_13  and  C_14 
REMARK    6  A    between atoms: C_14  and  C_15 
REMARK    7  A    between atoms: C_15  and  C_16 
REMARK       I    between atoms: C_16  and  N_17 
REMARK    8  A    between atoms: N_17  and  C_19 
REMARK    9  A    between atoms: C_18  and  C_19 
ROOT
HETATM    1  H           1     -19.788  -6.398  -4.772  0.00  0.00     0.163 HD
HETATM    2  O           1     -22.603  -5.497  -5.823  0.00  0.00    -0.271 OA
HETATM    3  C           1     -21.400  -5.505  -5.714  0.00  0.00     0.249 C 
HETATM    4  N           1     -20.796  -6.391  -4.863  0.00  0.00    -0.345 N 
ENDROOT
BRANCH   4   5
HETATM    5  C           1     -21.599  -7.319  -4.091  0.00  0.00     0.186 C 
BRANCH   5   6
HETATM    6  C           1     -21.651  -6.864  -2.654  0.00  0.00     0.196 C 
HETATM    7  O           1     -20.914  -7.404  -1.801  0.00  0.00    -0.646 OA
HETATM    8  O           1     -22.431  -5.948  -2.316  0.00  0.00    -0.646 OA
ENDBRANCH   5   6
BRANCH   5   9
HETATM    9  C           1     -20.980  -8.709  -4.164  0.00  0.00     0.045 C 
BRANCH   9  10
HETATM   10  C           1     -19.643  -8.633  -4.889  0.00  0.00     0.105 C 
BRANCH  10  11
HETATM   11  C           1     -18.565  -9.239  -4.023  0.00  0.00     0.215 C 
HETATM   12  O           1     -17.581  -9.720  -4.531  0.00  0.00    -0.274 OA
HETATM   13  N           1     -18.704  -9.242  -2.661  0.00  0.00    -0.370 N 
HETATM   14  H           1     -19.528  -8.838  -2.235  0.00  0.00     0.159 HD
HETATM   15  H           1     -17.981  -9.648  -2.080  0.00  0.00     0.159 HD
ENDBRANCH  10  11
ENDBRANCH   9  10
ENDBRANCH   5   9
ENDBRANCH   4   5
BRANCH   3  16
HETATM   16  C           1     -20.564  -4.540  -6.518  0.00  0.00     0.274 C 
BRANCH  16  17
HETATM   17  N           1     -19.642  -5.307  -7.419  0.00  0.00    -0.067 N 
HETATM   18  H           1     -19.940  -5.177  -8.413  0.00  0.00     0.275 HD
HETATM   19  H           1     -18.665  -4.955  -7.299  0.00  0.00     0.275 HD
HETATM   20  H           1     -19.681  -6.322  -7.173  0.00  0.00     0.275 HD
ENDBRANCH  16  17
BRANCH  16  21
HETATM   21  C           1     -21.475  -3.654  -7.357  0.00  0.00     0.045 C 
BRANCH  21  22
HETATM   22 Se           1     -21.590  -4.370  -9.166  0.00  0.00     0.000 Se
HETATM   23  H           1     -22.436  -3.276  -9.669  0.00  0.00     0.000 HD
ENDBRANCH  21  22
ENDBRANCH  16  21
ENDBRANCH   3  16
TORSDOF 9
ENDMDL
