MODEL 1
REMARK VINA RESULT:      -5.6      0.000      0.000
REMARK  8 active torsions:
REMARK  status: ('A' for Active; 'I' for Inactive)
REMARK    1  A    between atoms: N_1  and  C_8 
REMARK       I    between atoms: N_1  and  C_14 
REMARK    2  A    between atoms: N_6  and  C_13 
REMARK    3  A    between atoms: C_8  and  C_16 
REMARK    4  A    between atoms: C_8  and  C_18 
REMARK    5  A    between atoms: C_12  and  C_13 
REMARK    6  A    between atoms: C_12  and  S_15 
REMARK    7  A    between atoms: C_13  and  C_14 
REMARK    8  A    between atoms: C_16  and  O_20 
ROOT
HETATM    1  N           1     -35.020  -1.285 -13.985  0.00  0.00    -0.343 N 
HETATM    2  O           1     -36.421  -1.631 -12.280  0.00  0.00    -0.271 OA
HETATM    3  H           1     -34.097  -1.415 -14.375  0.00  0.00     0.163 HD
HETATM    4  C           1     -35.318  -1.788 -12.746  0.00  0.00     0.249 C 
ENDROOT
BRANCH   1   5
HETATM    5  C           1     -36.030  -0.564 -14.736  0.00  0.00     0.214 C 
BRANCH   5   6
HETATM    6  C           1     -35.831   0.934 -14.545  0.00  0.00     0.147 C 
HETATM    7  C           1     -34.451   1.191 -13.954  0.00  0.00     0.042 C 
BRANCH   6   8
HETATM    8  O           1     -35.938   1.580 -15.785  0.00  0.00    -0.393 OA
HETATM    9  H           1     -35.444   1.069 -16.403  0.00  0.00     0.210 HD
ENDBRANCH   6   8
ENDBRANCH   5   6
BRANCH   5  10
HETATM   10  C           1     -35.907  -0.906 -16.201  0.00  0.00     0.199 C 
HETATM   11  O           1     -36.888  -0.760 -16.960  0.00  0.00    -0.646 OA
HETATM   12  O           1     -34.824  -1.334 -16.653  0.00  0.00    -0.646 OA
ENDBRANCH   5  10
ENDBRANCH   1   5
BRANCH   4  13
HETATM   13  C           1     -34.267  -2.538 -11.965  0.00  0.00     0.283 C 
BRANCH  13  14
HETATM   14  N           1     -33.733  -1.657 -10.874  0.00  0.00    -0.066 N 
HETATM   15  H           1     -33.564  -0.698 -11.253  0.00  0.00     0.275 HD
HETATM   16  H           1     -32.836  -2.054 -10.514  0.00  0.00     0.275 HD
HETATM   17  H           1     -34.429  -1.605 -10.096  0.00  0.00     0.275 HD
ENDBRANCH  13  14
BRANCH  13  18
HETATM   18  C           1     -34.885  -3.787 -11.351  0.00  0.00     0.113 C 
BRANCH  18  19
HETATM   19  S           1     -33.619  -5.077 -11.194  0.00  0.00    -0.180 SA
HETATM   20  H           1     -33.656  -5.468 -12.481  0.00  0.00     0.101 HD
ENDBRANCH  18  19
ENDBRANCH  13  18
ENDBRANCH   4  13
TORSDOF 8
ENDMDL
MODEL 2
REMARK VINA RESULT:      -5.5     13.380     14.568
REMARK  8 active torsions:
REMARK  status: ('A' for Active; 'I' for Inactive)
REMARK    1  A    between atoms: N_1  and  C_8 
REMARK       I    between atoms: N_1  and  C_14 
REMARK    2  A    between atoms: N_6  and  C_13 
REMARK    3  A    between atoms: C_8  and  C_16 
REMARK    4  A    between atoms: C_8  and  C_18 
REMARK    5  A    between atoms: C_12  and  C_13 
REMARK    6  A    between atoms: C_12  and  S_15 
REMARK    7  A    between atoms: C_13  and  C_14 
REMARK    8  A    between atoms: C_16  and  O_20 
ROOT
HETATM    1  N           1     -22.135  -4.792  -9.057  0.00  0.00    -0.343 N 
HETATM    2  O           1     -21.666  -3.414  -7.363  0.00  0.00    -0.271 OA
HETATM    3  H           1     -22.146  -5.738  -9.415  0.00  0.00     0.163 HD
HETATM    4  C           1     -21.679  -4.544  -7.790  0.00  0.00     0.249 C 
ENDROOT
BRANCH   1   5
HETATM    5  C           1     -22.599  -3.697  -9.887  0.00  0.00     0.214 C 
BRANCH   5   6
HETATM    6  C           1     -21.821  -3.687 -11.195  0.00  0.00     0.147 C 
HETATM    7  C           1     -20.420  -4.236 -10.956  0.00  0.00     0.042 C 
BRANCH   6   8
HETATM    8  O           1     -22.482  -4.486 -12.138  0.00  0.00    -0.393 OA
HETATM    9  H           1     -23.288  -4.769 -11.740  0.00  0.00     0.210 HD
ENDBRANCH   6   8
ENDBRANCH   5   6
BRANCH   5  10
HETATM   10  C           1     -24.070  -3.876 -10.177  0.00  0.00     0.199 C 
HETATM   11  O           1     -24.719  -2.949 -10.707  0.00  0.00    -0.646 OA
HETATM   12  O           1     -24.637  -4.951  -9.888  0.00  0.00    -0.646 OA
ENDBRANCH   5  10
ENDBRANCH   1   5
BRANCH   4  13
HETATM   13  C           1     -21.196  -5.683  -6.926  0.00  0.00     0.283 C 
BRANCH  13  14
HETATM   14  N           1     -19.950  -6.269  -7.524  0.00  0.00    -0.066 N 
HETATM   15  H           1     -19.820  -5.894  -8.491  0.00  0.00     0.275 HD
HETATM   16  H           1     -20.039  -7.309  -7.561  0.00  0.00     0.275 HD
HETATM   17  H           1     -19.126  -6.009  -6.937  0.00  0.00     0.275 HD
ENDBRANCH  13  14
BRANCH  13  18
HETATM   18  C           1     -20.891  -5.166  -5.527  0.00  0.00     0.113 C 
BRANCH  18  19
HETATM   19  S           1     -21.492  -6.356  -4.295  0.00  0.00    -0.180 SA
HETATM   20  H           1     -20.413  -7.158  -4.336  0.00  0.00     0.101 HD
ENDBRANCH  18  19
ENDBRANCH  13  18
ENDBRANCH   4  13
TORSDOF 8
ENDMDL
MODEL 3
REMARK VINA RESULT:      -5.3      3.052      5.260
REMARK  8 active torsions:
REMARK  status: ('A' for Active; 'I' for Inactive)
REMARK    1  A    between atoms: N_1  and  C_8 
REMARK       I    between atoms: N_1  and  C_14 
REMARK    2  A    between atoms: N_6  and  C_13 
REMARK    3  A    between atoms: C_8  and  C_16 
REMARK    4  A    between atoms: C_8  and  C_18 
REMARK    5  A    between atoms: C_12  and  C_13 
REMARK    6  A    between atoms: C_12  and  S_15 
REMARK    7  A    between atoms: C_13  and  C_14 
REMARK    8  A    between atoms: C_16  and  O_20 
ROOT
HETATM    1  N           1     -34.723  -1.597 -13.218  0.00  0.00    -0.343 N 
HETATM    2  O           1     -36.865  -1.052 -12.898  0.00  0.00    -0.271 OA
HETATM    3  H           1     -33.871  -1.453 -13.744  0.00  0.00     0.163 HD
HETATM    4  C           1     -35.848  -0.879 -13.526  0.00  0.00     0.249 C 
ENDROOT
BRANCH   1   5
HETATM    5  C           1     -34.755  -2.564 -12.138  0.00  0.00     0.214 C 
BRANCH   5   6
HETATM    6  C           1     -33.778  -3.693 -12.440  0.00  0.00     0.147 C 
HETATM    7  C           1     -34.172  -4.930 -11.643  0.00  0.00     0.042 C 
BRANCH   6   8
HETATM    8  O           1     -33.815  -3.988 -13.811  0.00  0.00    -0.393 OA
HETATM    9  H           1     -34.368  -3.341 -14.215  0.00  0.00     0.210 HD
ENDBRANCH   6   8
ENDBRANCH   5   6
BRANCH   5  10
HETATM   10  C           1     -34.360  -1.889 -10.847  0.00  0.00     0.199 C 
HETATM   11  O           1     -35.241  -1.442 -10.082  0.00  0.00    -0.646 OA
HETATM   12  O           1     -33.153  -1.778 -10.544  0.00  0.00    -0.646 OA
ENDBRANCH   5  10
ENDBRANCH   1   5
BRANCH   4  13
HETATM   13  C           1     -35.815   0.127 -14.650  0.00  0.00     0.283 C 
BRANCH  13  14
HETATM   14  N           1     -34.418   0.648 -14.813  0.00  0.00    -0.066 N 
HETATM   15  H           1     -34.277   1.469 -14.181  0.00  0.00     0.275 HD
HETATM   16  H           1     -34.269   0.941 -15.805  0.00  0.00     0.275 HD
HETATM   17  H           1     -33.735  -0.103 -14.565  0.00  0.00     0.275 HD
ENDBRANCH  13  14
BRANCH  13  18
HETATM   18  C           1     -36.261  -0.542 -15.944  0.00  0.00     0.113 C 
BRANCH  18  19
HETATM   19  S           1     -38.069  -0.464 -16.076  0.00  0.00    -0.180 SA
HETATM   20  H           1     -38.320  -0.894 -14.826  0.00  0.00     0.101 HD
ENDBRANCH  18  19
ENDBRANCH  13  18
ENDBRANCH   4  13
TORSDOF 8
ENDMDL
MODEL 4
REMARK VINA RESULT:      -5.2     10.041     11.145
REMARK  8 active torsions:
REMARK  status: ('A' for Active; 'I' for Inactive)
REMARK    1  A    between atoms: N_1  and  C_8 
REMARK       I    between atoms: N_1  and  C_14 
REMARK    2  A    between atoms: N_6  and  C_13 
REMARK    3  A    between atoms: C_8  and  C_16 
REMARK    4  A    between atoms: C_8  and  C_18 
REMARK    5  A    between atoms: C_12  and  C_13 
REMARK    6  A    between atoms: C_12  and  S_15 
REMARK    7  A    between atoms: C_13  and  C_14 
REMARK    8  A    between atoms: C_16  and  O_20 
ROOT
HETATM    1  N           1     -27.587  -6.810 -17.675  0.00  0.00    -0.343 N 
HETATM    2  O           1     -28.110  -5.412 -19.337  0.00  0.00    -0.271 OA
HETATM    3  H           1     -26.917  -7.454 -17.275  0.00  0.00     0.163 HD
HETATM    4  C           1     -27.310  -6.182 -18.860  0.00  0.00     0.249 C 
ENDROOT
BRANCH   1   5
HETATM    5  C           1     -28.840  -6.551 -16.994  0.00  0.00     0.214 C 
BRANCH   5   6
HETATM    6  C           1     -29.838  -7.650 -17.335  0.00  0.00     0.147 C 
HETATM    7  C           1     -31.216  -7.035 -17.545  0.00  0.00     0.042 C 
BRANCH   6   8
HETATM    8  O           1     -29.432  -8.302 -18.508  0.00  0.00    -0.393 OA
HETATM    9  H           1     -28.493  -8.370 -18.472  0.00  0.00     0.210 HD
ENDBRANCH   6   8
ENDBRANCH   5   6
BRANCH   5  10
HETATM   10  C           1     -28.607  -6.528 -15.502  0.00  0.00     0.199 C 
HETATM   11  O           1     -29.070  -5.595 -14.812  0.00  0.00    -0.646 OA
HETATM   12  O           1     -27.951  -7.442 -14.959  0.00  0.00    -0.646 OA
ENDBRANCH   5  10
ENDBRANCH   1   5
BRANCH   4  13
HETATM   13  C           1     -26.005  -6.451 -19.569  0.00  0.00     0.283 C 
BRANCH  13  14
HETATM   14  N           1     -25.018  -7.027 -18.596  0.00  0.00    -0.066 N 
HETATM   15  H           1     -25.523  -7.356 -17.742  0.00  0.00     0.275 HD
HETATM   16  H           1     -24.323  -6.294 -18.331  0.00  0.00     0.275 HD
HETATM   17  H           1     -24.524  -7.834 -19.039  0.00  0.00     0.275 HD
ENDBRANCH  13  14
BRANCH  13  18
HETATM   18  C           1     -26.237  -7.441 -20.702  0.00  0.00     0.113 C 
BRANCH  18  19
HETATM   19  S           1     -24.648  -7.877 -21.462  0.00  0.00    -0.180 SA
HETATM   20  H           1     -23.946  -7.906 -20.315  0.00  0.00     0.101 HD
ENDBRANCH  18  19
ENDBRANCH  13  18
ENDBRANCH   4  13
TORSDOF 8
ENDMDL
MODEL 5
REMARK VINA RESULT:      -5.1      2.822      4.893
REMARK  8 active torsions:
REMARK  status: ('A' for Active; 'I' for Inactive)
REMARK    1  A    between atoms: N_1  and  C_8 
REMARK       I    between atoms: N_1  and  C_14 
REMARK    2  A    between atoms: N_6  and  C_13 
REMARK    3  A    between atoms: C_8  and  C_16 
REMARK    4  A    between atoms: C_8  and  C_18 
REMARK    5  A    between atoms: C_12  and  C_13 
REMARK    6  A    between atoms: C_12  and  S_15 
REMARK    7  A    between atoms: C_13  and  C_14 
REMARK    8  A    between atoms: C_16  and  O_20 
ROOT
HETATM    1  N           1     -36.247  -0.672 -13.168  0.00  0.00    -0.343 N 
HETATM    2  O           1     -34.939   0.985 -13.895  0.00  0.00    -0.271 OA
HETATM    3  H           1     -37.096  -1.209 -13.287  0.00  0.00     0.163 HD
HETATM    4  C           1     -35.953   0.344 -14.037  0.00  0.00     0.249 C 
ENDROOT
BRANCH   1   5
HETATM    5  C           1     -35.343  -0.977 -12.076  0.00  0.00     0.214 C 
BRANCH   5   6
HETATM    6  C           1     -36.148  -1.255 -10.814  0.00  0.00     0.147 C 
HETATM    7  C           1     -37.396  -0.382 -10.806  0.00  0.00     0.042 C 
BRANCH   6   8
HETATM    8  O           1     -36.521  -2.606 -10.786  0.00  0.00    -0.393 OA
HETATM    9  H           1     -36.236  -2.985 -11.600  0.00  0.00     0.210 HD
ENDBRANCH   6   8
ENDBRANCH   5   6
BRANCH   5  10
HETATM   10  C           1     -34.522  -2.194 -12.428  0.00  0.00     0.199 C 
HETATM   11  O           1     -34.730  -2.798 -13.502  0.00  0.00    -0.646 OA
HETATM   12  O           1     -33.634  -2.595 -11.646  0.00  0.00    -0.646 OA
ENDBRANCH   5  10
ENDBRANCH   1   5
BRANCH   4  13
HETATM   13  C           1     -36.894   0.661 -15.173  0.00  0.00     0.283 C 
BRANCH  13  14
HETATM   14  N           1     -36.290   1.729 -16.038  0.00  0.00    -0.066 N 
HETATM   15  H           1     -36.004   1.314 -16.953  0.00  0.00     0.275 HD
HETATM   16  H           1     -35.454   2.132 -15.559  0.00  0.00     0.275 HD
HETATM   17  H           1     -36.995   2.482 -16.203  0.00  0.00     0.275 HD
ENDBRANCH  13  14
BRANCH  13  18
HETATM   18  C           1     -37.126  -0.593 -16.006  0.00  0.00     0.113 C 
BRANCH  18  19
HETATM   19  S           1     -35.538  -1.207 -16.635  0.00  0.00    -0.180 SA
HETATM   20  H           1     -35.270  -2.006 -15.586  0.00  0.00     0.101 HD
ENDBRANCH  18  19
ENDBRANCH  13  18
ENDBRANCH   4  13
TORSDOF 8
ENDMDL
MODEL 6
REMARK VINA RESULT:      -5.1      3.552      4.892
REMARK  8 active torsions:
REMARK  status: ('A' for Active; 'I' for Inactive)
REMARK    1  A    between atoms: N_1  and  C_8 
REMARK       I    between atoms: N_1  and  C_14 
REMARK    2  A    between atoms: N_6  and  C_13 
REMARK    3  A    between atoms: C_8  and  C_16 
REMARK    4  A    between atoms: C_8  and  C_18 
REMARK    5  A    between atoms: C_12  and  C_13 
REMARK    6  A    between atoms: C_12  and  S_15 
REMARK    7  A    between atoms: C_13  and  C_14 
REMARK    8  A    between atoms: C_16  and  O_20 
ROOT
HETATM    1  N           1     -35.146  -2.737 -11.668  0.00  0.00    -0.343 N 
HETATM    2  O           1     -34.587  -0.580 -11.814  0.00  0.00    -0.271 OA
HETATM    3  H           1     -35.800  -3.433 -11.335  0.00  0.00     0.163 HD
HETATM    4  C           1     -35.369  -1.411 -11.415  0.00  0.00     0.249 C 
ENDROOT
BRANCH   1   5
HETATM    5  C           1     -33.972  -3.145 -12.415  0.00  0.00     0.214 C 
BRANCH   5   6
HETATM    6  C           1     -33.035  -3.924 -11.502  0.00  0.00     0.147 C 
HETATM    7  C           1     -33.854  -4.690 -10.471  0.00  0.00     0.042 C 
BRANCH   6   8
HETATM    8  O           1     -32.282  -4.827 -12.266  0.00  0.00    -0.393 OA
HETATM    9  H           1     -32.411  -5.680 -11.887  0.00  0.00     0.210 HD
ENDBRANCH   6   8
ENDBRANCH   5   6
BRANCH   5  10
HETATM   10  C           1     -34.390  -4.020 -13.572  0.00  0.00     0.199 C 
HETATM   11  O           1     -34.072  -3.706 -14.739  0.00  0.00    -0.646 OA
HETATM   12  O           1     -35.054  -5.058 -13.362  0.00  0.00    -0.646 OA
ENDBRANCH   5  10
ENDBRANCH   1   5
BRANCH   4  13
HETATM   13  C           1     -36.591  -0.986 -10.638  0.00  0.00     0.283 C 
BRANCH  13  14
HETATM   14  N           1     -36.188  -0.605  -9.244  0.00  0.00    -0.066 N 
HETATM   15  H           1     -35.364   0.036  -9.283  0.00  0.00     0.275 HD
HETATM   16  H           1     -35.937  -1.466  -8.707  0.00  0.00     0.275 HD
HETATM   17  H           1     -36.984  -0.119  -8.772  0.00  0.00     0.275 HD
ENDBRANCH  13  14
BRANCH  13  18
HETATM   18  C           1     -37.238   0.210 -11.323  0.00  0.00     0.113 C 
BRANCH  18  19
HETATM   19  S           1     -37.853  -0.285 -12.957  0.00  0.00    -0.180 SA
HETATM   20  H           1     -36.917  -1.225 -13.181  0.00  0.00     0.101 HD
ENDBRANCH  18  19
ENDBRANCH  13  18
ENDBRANCH   4  13
TORSDOF 8
ENDMDL
MODEL 7
REMARK VINA RESULT:      -4.8     12.967     14.105
REMARK  8 active torsions:
REMARK  status: ('A' for Active; 'I' for Inactive)
REMARK    1  A    between atoms: N_1  and  C_8 
REMARK       I    between atoms: N_1  and  C_14 
REMARK    2  A    between atoms: N_6  and  C_13 
REMARK    3  A    between atoms: C_8  and  C_16 
REMARK    4  A    between atoms: C_8  and  C_18 
REMARK    5  A    between atoms: C_12  and  C_13 
REMARK    6  A    between atoms: C_12  and  S_15 
REMARK    7  A    between atoms: C_13  and  C_14 
REMARK    8  A    between atoms: C_16  and  O_20 
ROOT
HETATM    1  N           1     -22.258  -3.628  -9.759  0.00  0.00    -0.343 N 
HETATM    2  O           1     -20.481  -4.920 -10.159  0.00  0.00    -0.271 OA
HETATM    3  H           1     -22.731  -2.990  -9.133  0.00  0.00     0.163 HD
HETATM    4  C           1     -21.046  -4.159  -9.410  0.00  0.00     0.249 C 
ENDROOT
BRANCH   1   5
HETATM    5  C           1     -22.865  -3.980 -11.028  0.00  0.00     0.214 C 
BRANCH   5   6
HETATM    6  C           1     -24.380  -3.898 -10.906  0.00  0.00     0.147 C 
HETATM    7  C           1     -24.749  -3.353  -9.533  0.00  0.00     0.042 C 
BRANCH   6   8
HETATM    8  O           1     -24.883  -3.044 -11.899  0.00  0.00    -0.393 OA
HETATM    9  H           1     -24.142  -2.607 -12.285  0.00  0.00     0.210 HD
ENDBRANCH   6   8
ENDBRANCH   5   6
BRANCH   5  10
HETATM   10  C           1     -22.392  -3.022 -12.095  0.00  0.00     0.199 C 
HETATM   11  O           1     -22.002  -1.878 -11.778  0.00  0.00    -0.646 OA
HETATM   12  O           1     -22.391  -3.374 -13.294  0.00  0.00    -0.646 OA
ENDBRANCH   5  10
ENDBRANCH   1   5
BRANCH   4  13
HETATM   13  C           1     -20.415  -3.792  -8.089  0.00  0.00     0.283 C 
BRANCH  13  14
HETATM   14  N           1     -21.478  -3.315  -7.143  0.00  0.00    -0.066 N 
HETATM   15  H           1     -21.624  -4.031  -6.396  0.00  0.00     0.275 HD
HETATM   16  H           1     -22.369  -3.169  -7.668  0.00  0.00     0.275 HD
HETATM   17  H           1     -21.177  -2.415  -6.707  0.00  0.00     0.275 HD
ENDBRANCH  13  14
BRANCH  13  18
HETATM   18  C           1     -19.723  -5.014  -7.499  0.00  0.00     0.113 C 
BRANCH  18  19
HETATM   19  S           1     -20.359  -5.324  -5.828  0.00  0.00    -0.180 SA
HETATM   20  H           1     -20.380  -6.665  -5.932  0.00  0.00     0.101 HD
ENDBRANCH  18  19
ENDBRANCH  13  18
ENDBRANCH   4  13
TORSDOF 8
ENDMDL
MODEL 8
REMARK VINA RESULT:      -4.8     12.462     13.649
REMARK  8 active torsions:
REMARK  status: ('A' for Active; 'I' for Inactive)
REMARK    1  A    between atoms: N_1  and  C_8 
REMARK       I    between atoms: N_1  and  C_14 
REMARK    2  A    between atoms: N_6  and  C_13 
REMARK    3  A    between atoms: C_8  and  C_16 
REMARK    4  A    between atoms: C_8  and  C_18 
REMARK    5  A    between atoms: C_12  and  C_13 
REMARK    6  A    between atoms: C_12  and  S_15 
REMARK    7  A    between atoms: C_13  and  C_14 
REMARK    8  A    between atoms: C_16  and  O_20 
ROOT
HETATM    1  N           1     -23.213  -3.825  -9.347  0.00  0.00    -0.343 N 
HETATM    2  O           1     -21.036  -3.551  -8.934  0.00  0.00    -0.271 OA
HETATM    3  H           1     -24.123  -4.102  -9.002  0.00  0.00     0.163 HD
HETATM    4  C           1     -22.122  -3.882  -8.522  0.00  0.00     0.249 C 
ENDROOT
BRANCH   1   5
HETATM    5  C           1     -23.065  -3.366 -10.714  0.00  0.00     0.214 C 
BRANCH   5   6
HETATM    6  C           1     -22.399  -4.455 -11.545  0.00  0.00     0.147 C 
HETATM    7  C           1     -23.423  -5.531 -11.884  0.00  0.00     0.042 C 
BRANCH   6   8
HETATM    8  O           1     -21.896  -3.897 -12.729  0.00  0.00    -0.393 OA
HETATM    9  H           1     -22.528  -3.262 -13.022  0.00  0.00     0.210 HD
ENDBRANCH   6   8
ENDBRANCH   5   6
BRANCH   5  10
HETATM   10  C           1     -24.425  -3.053 -11.290  0.00  0.00     0.199 C 
HETATM   11  O           1     -25.448  -3.192 -10.587  0.00  0.00    -0.646 OA
HETATM   12  O           1     -24.526  -2.655 -12.470  0.00  0.00    -0.646 OA
ENDBRANCH   5  10
ENDBRANCH   1   5
BRANCH   4  13
HETATM   13  C           1     -22.276  -4.359  -7.099  0.00  0.00     0.283 C 
BRANCH  13  14
HETATM   14  N           1     -23.729  -4.597  -6.807  0.00  0.00    -0.066 N 
HETATM   15  H           1     -23.872  -4.646  -5.773  0.00  0.00     0.275 HD
HETATM   16  H           1     -24.029  -5.497  -7.245  0.00  0.00     0.275 HD
HETATM   17  H           1     -24.296  -3.811  -7.199  0.00  0.00     0.275 HD
ENDBRANCH  13  14
BRANCH  13  18
HETATM   18  C           1     -21.503  -5.658  -6.911  0.00  0.00     0.113 C 
BRANCH  18  19
HETATM   19  S           1     -20.020  -5.343  -5.913  0.00  0.00    -0.180 SA
HETATM   20  H           1     -19.338  -4.696  -6.875  0.00  0.00     0.101 HD
ENDBRANCH  18  19
ENDBRANCH  13  18
ENDBRANCH   4  13
TORSDOF 8
ENDMDL
MODEL 9
REMARK VINA RESULT:      -4.7     10.190     11.328
REMARK  8 active torsions:
REMARK  status: ('A' for Active; 'I' for Inactive)
REMARK    1  A    between atoms: N_1  and  C_8 
REMARK       I    between atoms: N_1  and  C_14 
REMARK    2  A    between atoms: N_6  and  C_13 
REMARK    3  A    between atoms: C_8  and  C_16 
REMARK    4  A    between atoms: C_8  and  C_18 
REMARK    5  A    between atoms: C_12  and  C_13 
REMARK    6  A    between atoms: C_12  and  S_15 
REMARK    7  A    between atoms: C_13  and  C_14 
REMARK    8  A    between atoms: C_16  and  O_20 
ROOT
HETATM    1  N           1     -27.364  -6.951 -18.048  0.00  0.00    -0.343 N 
HETATM    2  O           1     -28.397  -5.163 -18.900  0.00  0.00    -0.271 OA
HETATM    3  H           1     -27.437  -7.899 -17.701  0.00  0.00     0.163 HD
HETATM    4  C           1     -28.484  -6.295 -18.486  0.00  0.00     0.249 C 
ENDROOT
BRANCH   1   5
HETATM    5  C           1     -26.076  -6.287 -18.081  0.00  0.00     0.214 C 
BRANCH   5   6
HETATM    6  C           1     -25.301  -6.620 -16.813  0.00  0.00     0.147 C 
HETATM    7  C           1     -26.277  -7.009 -15.710  0.00  0.00     0.042 C 
BRANCH   6   8
HETATM    8  O           1     -24.430  -7.690 -17.065  0.00  0.00    -0.393 OA
HETATM    9  H           1     -23.810  -7.391 -17.708  0.00  0.00     0.210 HD
ENDBRANCH   6   8
ENDBRANCH   5   6
BRANCH   5  10
HETATM   10  C           1     -25.298  -6.759 -19.285  0.00  0.00     0.199 C 
HETATM   11  O           1     -24.104  -6.420 -19.429  0.00  0.00    -0.646 OA
HETATM   12  O           1     -25.848  -7.490 -20.136  0.00  0.00    -0.646 OA
ENDBRANCH   5  10
ENDBRANCH   1   5
BRANCH   4  13
HETATM   13  C           1     -29.825  -6.986 -18.451  0.00  0.00     0.283 C 
BRANCH  13  14
HETATM   14  N           1     -29.643  -8.443 -18.759  0.00  0.00    -0.066 N 
HETATM   15  H           1     -28.957  -8.857 -18.088  0.00  0.00     0.275 HD
HETATM   16  H           1     -29.287  -8.550 -19.736  0.00  0.00     0.275 HD
HETATM   17  H           1     -30.560  -8.936 -18.666  0.00  0.00     0.275 HD
ENDBRANCH  13  14
BRANCH  13  18
HETATM   18  C           1     -30.439  -6.834 -17.066  0.00  0.00     0.113 C 
BRANCH  18  19
HETATM   19  S           1     -31.335  -5.258 -16.970  0.00  0.00    -0.180 SA
HETATM   20  H           1     -30.305  -4.486 -17.360  0.00  0.00     0.101 HD
ENDBRANCH  18  19
ENDBRANCH  13  18
ENDBRANCH   4  13
TORSDOF 8
ENDMDL
