MODEL 1
REMARK VINA RESULT:      -6.0      0.000      0.000
REMARK  7 active torsions:
REMARK  status: ('A' for Active; 'I' for Inactive)
REMARK    1  A    between atoms: C_2  and  C_4 
REMARK    2  A    between atoms: C_2  and  C_12 
REMARK    3  A    between atoms: C_2  and  N_9 
REMARK    4  A    between atoms: N_5  and  C_16 
REMARK       I    between atoms: N_9  and  C_10 
REMARK    5  A    between atoms: C_10  and  C_16 
REMARK    6  A    between atoms: C_16  and  C_20 
REMARK    7  A    between atoms: O_19  and  C_20 
ROOT
HETATM    1  N           1     -22.006  -4.741  -8.920  0.00  0.00    -0.344 N 
HETATM    2  C           1     -21.485  -4.410  -7.698  0.00  0.00     0.251 C 
HETATM    3  O           1     -21.538  -3.268  -7.308  0.00  0.00    -0.271 OA
HETATM    4  H           1     -21.961  -5.698  -9.247  0.00  0.00     0.163 HD
ENDROOT
BRANCH   2   5
HETATM    5  C           1     -20.844  -5.472  -6.839  0.00  0.00     0.302 C 
BRANCH   5   6
HETATM    6  N           1     -19.722  -4.866  -6.050  0.00  0.00    -0.064 N 
HETATM    7  H           1     -19.219  -4.166  -6.640  0.00  0.00     0.275 HD
HETATM    8  H           1     -20.109  -4.392  -5.202  0.00  0.00     0.275 HD
HETATM    9  H           1     -19.057  -5.617  -5.756  0.00  0.00     0.275 HD
ENDBRANCH   5   6
BRANCH   5  10
HETATM   10  C           1     -21.881  -6.049  -5.884  0.00  0.00     0.153 C 
HETATM   11  C           1     -21.347  -5.992  -4.459  0.00  0.00     0.042 C 
BRANCH  10  12
HETATM   12  O           1     -23.064  -5.300  -5.970  0.00  0.00    -0.393 OA
HETATM   13  H           1     -23.590  -5.533  -5.225  0.00  0.00     0.210 HD
ENDBRANCH  10  12
ENDBRANCH   5  10
ENDBRANCH   2   5
BRANCH   1  14
HETATM   14  C           1     -22.621  -3.721  -9.747  0.00  0.00     0.189 C 
BRANCH  14  15
HETATM   15  C           1     -22.128  -3.864 -11.180  0.00  0.00     0.010 C 
HETATM   16  C           1     -20.606  -3.904 -11.190  0.00  0.00     0.012 C 
HETATM   17  C           1     -22.611  -2.677 -12.003  0.00  0.00     0.012 C 
ENDBRANCH  14  15
BRANCH  14  18
HETATM   18  C           1     -24.122  -3.885  -9.711  0.00  0.00     0.197 C 
HETATM   19  O           1     -24.635  -4.996  -9.964  0.00  0.00    -0.646 OA
HETATM   20  O           1     -24.850  -2.908  -9.430  0.00  0.00    -0.646 OA
ENDBRANCH  14  18
ENDBRANCH   1  14
TORSDOF 7
ENDMDL
MODEL 2
REMARK VINA RESULT:      -5.3      1.911      5.101
REMARK  7 active torsions:
REMARK  status: ('A' for Active; 'I' for Inactive)
REMARK    1  A    between atoms: C_2  and  C_4 
REMARK    2  A    between atoms: C_2  and  C_12 
REMARK    3  A    between atoms: C_2  and  N_9 
REMARK    4  A    between atoms: N_5  and  C_16 
REMARK       I    between atoms: N_9  and  C_10 
REMARK    5  A    between atoms: C_10  and  C_16 
REMARK    6  A    between atoms: C_16  and  C_20 
REMARK    7  A    between atoms: O_19  and  C_20 
ROOT
HETATM    1  N           1     -21.684  -3.791  -9.317  0.00  0.00    -0.344 N 
HETATM    2  C           1     -22.200  -4.100 -10.548  0.00  0.00     0.251 C 
HETATM    3  O           1     -22.666  -5.197 -10.748  0.00  0.00    -0.271 OA
HETATM    4  H           1     -21.294  -2.872  -9.149  0.00  0.00     0.163 HD
ENDROOT
BRANCH   2   5
HETATM    5  C           1     -22.185  -3.073 -11.652  0.00  0.00     0.302 C 
BRANCH   5   6
HETATM    6  N           1     -21.619  -3.686 -12.897  0.00  0.00    -0.064 N 
HETATM    7  H           1     -21.287  -2.931 -13.538  0.00  0.00     0.275 HD
HETATM    8  H           1     -20.816  -4.306 -12.645  0.00  0.00     0.275 HD
HETATM    9  H           1     -22.358  -4.250 -13.376  0.00  0.00     0.275 HD
ENDBRANCH   5   6
BRANCH   5  10
HETATM   10  C           1     -23.607  -2.598 -11.923  0.00  0.00     0.153 C 
HETATM   11  C           1     -24.115  -3.227 -13.214  0.00  0.00     0.042 C 
BRANCH  10  12
HETATM   12  O           1     -24.438  -2.977 -10.859  0.00  0.00    -0.393 OA
HETATM   13  H           1     -24.884  -3.762 -11.127  0.00  0.00     0.210 HD
ENDBRANCH  10  12
ENDBRANCH   5  10
ENDBRANCH   2   5
BRANCH   1  14
HETATM   14  C           1     -21.697  -4.778  -8.256  0.00  0.00     0.189 C 
BRANCH  14  15
HETATM   15  C           1     -20.462  -4.600  -7.383  0.00  0.00     0.010 C 
HETATM   16  C           1     -19.416  -3.796  -8.143  0.00  0.00     0.012 C 
HETATM   17  C           1     -19.893  -5.966  -7.025  0.00  0.00     0.012 C 
ENDBRANCH  14  15
BRANCH  14  18
HETATM   18  C           1     -22.939  -4.595  -7.416  0.00  0.00     0.197 C 
HETATM   19  O           1     -23.956  -4.067  -7.912  0.00  0.00    -0.646 OA
HETATM   20  O           1     -22.948  -4.973  -6.224  0.00  0.00    -0.646 OA
ENDBRANCH  14  18
ENDBRANCH   1  14
TORSDOF 7
ENDMDL
MODEL 3
REMARK VINA RESULT:      -5.0      2.017      5.275
REMARK  7 active torsions:
REMARK  status: ('A' for Active; 'I' for Inactive)
REMARK    1  A    between atoms: C_2  and  C_4 
REMARK    2  A    between atoms: C_2  and  C_12 
REMARK    3  A    between atoms: C_2  and  N_9 
REMARK    4  A    between atoms: N_5  and  C_16 
REMARK       I    between atoms: N_9  and  C_10 
REMARK    5  A    between atoms: C_10  and  C_16 
REMARK    6  A    between atoms: C_16  and  C_20 
REMARK    7  A    between atoms: O_19  and  C_20 
ROOT
HETATM    1  N           1     -22.056  -5.091  -8.275  0.00  0.00    -0.344 N 
HETATM    2  C           1     -22.896  -4.243  -8.946  0.00  0.00     0.251 C 
HETATM    3  O           1     -22.778  -3.048  -8.812  0.00  0.00    -0.271 OA
HETATM    4  H           1     -22.155  -6.092  -8.387  0.00  0.00     0.163 HD
ENDROOT
BRANCH   2   5
HETATM    5  C           1     -23.967  -4.799  -9.850  0.00  0.00     0.302 C 
BRANCH   5   6
HETATM    6  N           1     -25.230  -4.011  -9.673  0.00  0.00    -0.064 N 
HETATM    7  H           1     -25.197  -3.499  -8.763  0.00  0.00     0.275 HD
HETATM    8  H           1     -25.323  -3.323 -10.455  0.00  0.00     0.275 HD
HETATM    9  H           1     -26.049  -4.659  -9.679  0.00  0.00     0.275 HD
ENDBRANCH   5   6
BRANCH   5  10
HETATM   10  C           1     -23.509  -4.705 -11.299  0.00  0.00     0.153 C 
HETATM   11  C           1     -24.142  -3.484 -11.953  0.00  0.00     0.042 C 
BRANCH  10  12
HETATM   12  O           1     -22.112  -4.587 -11.342  0.00  0.00    -0.393 OA
HETATM   13  H           1     -21.776  -5.042 -10.588  0.00  0.00     0.210 HD
ENDBRANCH  10  12
ENDBRANCH   5  10
ENDBRANCH   2   5
BRANCH   1  14
HETATM   14  C           1     -21.027  -4.557  -7.405  0.00  0.00     0.189 C 
BRANCH  14  15
HETATM   15  C           1     -20.868  -5.462  -6.191  0.00  0.00     0.010 C 
HETATM   16  C           1     -20.080  -6.704  -6.584  0.00  0.00     0.012 C 
HETATM   17  C           1     -22.244  -5.872  -5.681  0.00  0.00     0.012 C 
ENDBRANCH  14  15
BRANCH  14  18
HETATM   18  C           1     -19.720  -4.489  -8.158  0.00  0.00     0.197 C 
HETATM   19  O           1     -18.671  -4.168  -7.559  0.00  0.00    -0.646 OA
HETATM   20  O           1     -19.687  -4.754  -9.379  0.00  0.00    -0.646 OA
ENDBRANCH  14  18
ENDBRANCH   1  14
TORSDOF 7
ENDMDL
MODEL 4
REMARK VINA RESULT:      -5.0     17.347     19.181
REMARK  7 active torsions:
REMARK  status: ('A' for Active; 'I' for Inactive)
REMARK    1  A    between atoms: C_2  and  C_4 
REMARK    2  A    between atoms: C_2  and  C_12 
REMARK    3  A    between atoms: C_2  and  N_9 
REMARK    4  A    between atoms: N_5  and  C_16 
REMARK       I    between atoms: N_9  and  C_10 
REMARK    5  A    between atoms: C_10  and  C_16 
REMARK    6  A    between atoms: C_16  and  C_20 
REMARK    7  A    between atoms: O_19  and  C_20 
ROOT
HETATM    1  N           1     -12.579   6.379 -20.159  0.00  0.00    -0.344 N 
HETATM    2  C           1     -12.563   7.608 -20.764  0.00  0.00     0.251 C 
HETATM    3  O           1     -13.071   7.751 -21.851  0.00  0.00    -0.271 OA
HETATM    4  H           1     -12.153   6.259 -19.249  0.00  0.00     0.163 HD
ENDROOT
BRANCH   2   5
HETATM    5  C           1     -11.910   8.780 -20.075  0.00  0.00     0.302 C 
BRANCH   5   6
HETATM    6  N           1     -12.727   9.177 -18.883  0.00  0.00    -0.064 N 
HETATM    7  H           1     -12.316  10.034 -18.448  0.00  0.00     0.275 HD
HETATM    8  H           1     -13.708   9.377 -19.184  0.00  0.00     0.275 HD
HETATM    9  H           1     -12.728   8.399 -18.186  0.00  0.00     0.275 HD
ENDBRANCH   5   6
BRANCH   5  10
HETATM   10  C           1     -10.509   8.388 -19.622  0.00  0.00     0.153 C 
HETATM   11  C           1      -9.479   9.053 -20.525  0.00  0.00     0.042 C 
BRANCH  10  12
HETATM   12  O           1     -10.312   8.807 -18.299  0.00  0.00    -0.393 OA
HETATM   13  H           1     -10.690   8.146 -17.743  0.00  0.00     0.210 HD
ENDBRANCH  10  12
ENDBRANCH   5  10
ENDBRANCH   2   5
BRANCH   1  14
HETATM   14  C           1     -13.206   5.252 -20.821  0.00  0.00     0.189 C 
BRANCH  14  15
HETATM   15  C           1     -12.592   3.957 -20.308  0.00  0.00     0.010 C 
HETATM   16  C           1     -11.081   4.116 -20.211  0.00  0.00     0.012 C 
HETATM   17  C           1     -12.924   2.823 -21.268  0.00  0.00     0.012 C 
ENDBRANCH  14  15
BRANCH  14  18
HETATM   18  C           1     -14.687   5.259 -20.529  0.00  0.00     0.197 C 
HETATM   19  O           1     -15.090   5.219 -19.347  0.00  0.00    -0.646 OA
HETATM   20  O           1     -15.509   5.303 -21.469  0.00  0.00    -0.646 OA
ENDBRANCH  14  18
ENDBRANCH   1  14
TORSDOF 7
ENDMDL
MODEL 5
REMARK VINA RESULT:      -4.9      2.316      2.904
REMARK  7 active torsions:
REMARK  status: ('A' for Active; 'I' for Inactive)
REMARK    1  A    between atoms: C_2  and  C_4 
REMARK    2  A    between atoms: C_2  and  C_12 
REMARK    3  A    between atoms: C_2  and  N_9 
REMARK    4  A    between atoms: N_5  and  C_16 
REMARK       I    between atoms: N_9  and  C_10 
REMARK    5  A    between atoms: C_10  and  C_16 
REMARK    6  A    between atoms: C_16  and  C_20 
REMARK    7  A    between atoms: O_19  and  C_20 
ROOT
HETATM    1  N           1     -21.895  -3.953  -9.694  0.00  0.00    -0.344 N 
HETATM    2  C           1     -20.687  -4.340  -9.176  0.00  0.00     0.251 C 
HETATM    3  O           1     -19.923  -4.990  -9.849  0.00  0.00    -0.271 OA
HETATM    4  H           1     -22.535  -3.408  -9.130  0.00  0.00     0.163 HD
ENDROOT
BRANCH   2   5
HETATM    5  C           1     -20.312  -3.954  -7.767  0.00  0.00     0.302 C 
BRANCH   5   6
HETATM    6  N           1     -21.449  -3.212  -7.132  0.00  0.00    -0.064 N 
HETATM    7  H           1     -21.605  -3.573  -6.164  0.00  0.00     0.275 HD
HETATM    8  H           1     -21.219  -2.193  -7.090  0.00  0.00     0.275 HD
HETATM    9  H           1     -22.316  -3.350  -7.700  0.00  0.00     0.275 HD
ENDBRANCH   5   6
BRANCH   5  10
HETATM   10  C           1     -20.013  -5.210  -6.958  0.00  0.00     0.153 C 
HETATM   11  C           1     -20.298  -4.946  -5.486  0.00  0.00     0.042 C 
BRANCH  10  12
HETATM   12  O           1     -20.824  -6.261  -7.410  0.00  0.00    -0.393 OA
HETATM   13  H           1     -20.261  -6.868  -7.860  0.00  0.00     0.210 HD
ENDBRANCH  10  12
ENDBRANCH   5  10
ENDBRANCH   2   5
BRANCH   1  14
HETATM   14  C           1     -22.256  -4.324 -11.047  0.00  0.00     0.189 C 
BRANCH  14  15
HETATM   15  C           1     -23.754  -4.591 -11.118  0.00  0.00     0.010 C 
HETATM   16  C           1     -24.510  -3.280 -10.950  0.00  0.00     0.012 C 
HETATM   17  C           1     -24.150  -5.553 -10.005  0.00  0.00     0.012 C 
ENDBRANCH  14  15
BRANCH  14  18
HETATM   18  C           1     -21.900  -3.198 -11.988  0.00  0.00     0.197 C 
HETATM   19  O           1     -22.279  -3.236 -13.178  0.00  0.00    -0.646 OA
HETATM   20  O           1     -21.226  -2.229 -11.576  0.00  0.00    -0.646 OA
ENDBRANCH  14  18
ENDBRANCH   1  14
TORSDOF 7
ENDMDL
MODEL 6
REMARK VINA RESULT:      -4.8      4.600      8.440
REMARK  7 active torsions:
REMARK  status: ('A' for Active; 'I' for Inactive)
REMARK    1  A    between atoms: C_2  and  C_4 
REMARK    2  A    between atoms: C_2  and  C_12 
REMARK    3  A    between atoms: C_2  and  N_9 
REMARK    4  A    between atoms: N_5  and  C_16 
REMARK       I    between atoms: N_9  and  C_10 
REMARK    5  A    between atoms: C_10  and  C_16 
REMARK    6  A    between atoms: C_16  and  C_20 
REMARK    7  A    between atoms: O_19  and  C_20 
ROOT
HETATM    1  N           1     -21.573  -8.381  -2.742  0.00  0.00    -0.344 N 
HETATM    2  C           1     -20.435  -8.271  -3.497  0.00  0.00     0.251 C 
HETATM    3  O           1     -19.417  -8.812  -3.134  0.00  0.00    -0.271 OA
HETATM    4  H           1     -22.426  -7.928  -3.046  0.00  0.00     0.163 HD
ENDROOT
BRANCH   2   5
HETATM    5  C           1     -20.452  -7.476  -4.778  0.00  0.00     0.302 C 
BRANCH   5   6
HETATM    6  N           1     -21.253  -8.210  -5.811  0.00  0.00    -0.064 N 
HETATM    7  H           1     -22.006  -8.761  -5.342  0.00  0.00     0.275 HD
HETATM    8  H           1     -21.684  -7.523  -6.470  0.00  0.00     0.275 HD
HETATM    9  H           1     -20.627  -8.856  -6.342  0.00  0.00     0.275 HD
ENDBRANCH   5   6
BRANCH   5  10
HETATM   10  C           1     -21.083  -6.113  -4.522  0.00  0.00     0.153 C 
HETATM   11  C           1     -20.528  -5.102  -5.516  0.00  0.00     0.042 C 
BRANCH  10  12
HETATM   12  O           1     -22.474  -6.205  -4.675  0.00  0.00    -0.393 OA
HETATM   13  H           1     -22.651  -6.149  -5.599  0.00  0.00     0.210 HD
ENDBRANCH  10  12
ENDBRANCH   5  10
ENDBRANCH   2   5
BRANCH   1  14
HETATM   14  C           1     -21.557  -9.145  -1.511  0.00  0.00     0.189 C 
BRANCH  14  15
HETATM   15  C           1     -22.278  -8.364  -0.420  0.00  0.00     0.010 C 
HETATM   16  C           1     -22.392  -6.904  -0.834  0.00  0.00     0.012 C 
HETATM   17  C           1     -21.493  -8.466   0.880  0.00  0.00     0.012 C 
ENDBRANCH  14  15
BRANCH  14  18
HETATM   18  C           1     -22.254 -10.466  -1.730  0.00  0.00     0.197 C 
HETATM   19  O           1     -21.677 -11.379  -2.359  0.00  0.00    -0.646 OA
HETATM   20  O           1     -23.407 -10.646  -1.283  0.00  0.00    -0.646 OA
ENDBRANCH  14  18
ENDBRANCH   1  14
TORSDOF 7
ENDMDL
MODEL 7
REMARK VINA RESULT:      -4.8     17.983     19.895
REMARK  7 active torsions:
REMARK  status: ('A' for Active; 'I' for Inactive)
REMARK    1  A    between atoms: C_2  and  C_4 
REMARK    2  A    between atoms: C_2  and  C_12 
REMARK    3  A    between atoms: C_2  and  N_9 
REMARK    4  A    between atoms: N_5  and  C_16 
REMARK       I    between atoms: N_9  and  C_10 
REMARK    5  A    between atoms: C_10  and  C_16 
REMARK    6  A    between atoms: C_16  and  C_20 
REMARK    7  A    between atoms: O_19  and  C_20 
ROOT
HETATM    1  N           1     -12.537   7.819 -19.837  0.00  0.00    -0.344 N 
HETATM    2  C           1     -12.499   6.764 -20.709  0.00  0.00     0.251 C 
HETATM    3  O           1     -11.921   6.875 -21.765  0.00  0.00    -0.271 OA
HETATM    4  H           1     -13.022   7.726 -18.953  0.00  0.00     0.163 HD
ENDROOT
BRANCH   2   5
HETATM    5  C           1     -13.178   5.465 -20.353  0.00  0.00     0.302 C 
BRANCH   5   6
HETATM    6  N           1     -13.526   4.723 -21.608  0.00  0.00    -0.064 N 
HETATM    7  H           1     -12.660   4.307 -22.020  0.00  0.00     0.275 HD
HETATM    8  H           1     -14.206   3.961 -21.385  0.00  0.00     0.275 HD
HETATM    9  H           1     -13.956   5.383 -22.296  0.00  0.00     0.275 HD
ENDBRANCH   5   6
BRANCH   5  10
HETATM   10  C           1     -12.238   4.616 -19.507  0.00  0.00     0.153 C 
HETATM   11  C           1     -11.553   3.582 -20.391  0.00  0.00     0.042 C 
BRANCH  10  12
HETATM   12  O           1     -11.271   5.438 -18.913  0.00  0.00    -0.393 OA
HETATM   13  H           1     -11.299   5.269 -17.986  0.00  0.00     0.210 HD
ENDBRANCH  10  12
ENDBRANCH   5  10
ENDBRANCH   2   5
BRANCH   1  14
HETATM   14  C           1     -11.886   9.068 -20.179  0.00  0.00     0.189 C 
BRANCH  14  15
HETATM   15  C           1     -12.653  10.227 -19.558  0.00  0.00     0.010 C 
HETATM   16  C           1     -13.529   9.706 -18.426  0.00  0.00     0.012 C 
HETATM   17  C           1     -13.528  10.882 -20.618  0.00  0.00     0.012 C 
ENDBRANCH  14  15
BRANCH  14  18
HETATM   18  C           1     -10.472   9.058 -19.649  0.00  0.00     0.197 C 
HETATM   19  O           1      -9.577   9.693 -20.247  0.00  0.00    -0.646 OA
HETATM   20  O           1     -10.197   8.414 -18.614  0.00  0.00    -0.646 OA
ENDBRANCH  14  18
ENDBRANCH   1  14
TORSDOF 7
ENDMDL
MODEL 8
REMARK VINA RESULT:      -4.7      1.792      5.565
REMARK  7 active torsions:
REMARK  status: ('A' for Active; 'I' for Inactive)
REMARK    1  A    between atoms: C_2  and  C_4 
REMARK    2  A    between atoms: C_2  and  C_12 
REMARK    3  A    between atoms: C_2  and  N_9 
REMARK    4  A    between atoms: N_5  and  C_16 
REMARK       I    between atoms: N_9  and  C_10 
REMARK    5  A    between atoms: C_10  and  C_16 
REMARK    6  A    between atoms: C_16  and  C_20 
REMARK    7  A    between atoms: O_19  and  C_20 
ROOT
HETATM    1  N           1     -21.587  -5.523  -7.846  0.00  0.00    -0.344 N 
HETATM    2  C           1     -22.285  -4.575  -8.546  0.00  0.00     0.251 C 
HETATM    3  O           1     -22.758  -3.626  -7.968  0.00  0.00    -0.271 OA
HETATM    4  H           1     -21.190  -6.319  -8.331  0.00  0.00     0.163 HD
ENDROOT
BRANCH   2   5
HETATM    5  C           1     -22.464  -4.717 -10.037  0.00  0.00     0.302 C 
BRANCH   5   6
HETATM    6  N           1     -23.657  -3.922 -10.475  0.00  0.00    -0.064 N 
HETATM    7  H           1     -24.134  -4.414 -11.264  0.00  0.00     0.275 HD
HETATM    8  H           1     -24.322  -3.823  -9.675  0.00  0.00     0.275 HD
HETATM    9  H           1     -23.348  -2.975 -10.791  0.00  0.00     0.275 HD
ENDBRANCH   5   6
BRANCH   5  10
HETATM   10  C           1     -21.221  -4.201 -10.750  0.00  0.00     0.153 C 
HETATM   11  C           1     -21.583  -2.972 -11.574  0.00  0.00     0.042 C 
BRANCH  10  12
HETATM   12  O           1     -20.246  -3.858  -9.802  0.00  0.00    -0.393 OA
HETATM   13  H           1     -20.375  -4.424  -9.060  0.00  0.00     0.210 HD
ENDBRANCH  10  12
ENDBRANCH   5  10
ENDBRANCH   2   5
BRANCH   1  14
HETATM   14  C           1     -21.415  -5.388  -6.414  0.00  0.00     0.189 C 
BRANCH  14  15
HETATM   15  C           1     -21.500  -6.760  -5.760  0.00  0.00     0.010 C 
HETATM   16  C           1     -22.112  -6.623  -4.373  0.00  0.00     0.012 C 
HETATM   17  C           1     -20.103  -7.355  -5.644  0.00  0.00     0.012 C 
ENDBRANCH  14  15
BRANCH  14  18
HETATM   18  C           1     -20.065  -4.775  -6.126  0.00  0.00     0.197 C 
HETATM   19  O           1     -19.803  -4.352  -4.979  0.00  0.00    -0.646 OA
HETATM   20  O           1     -19.210  -4.692  -7.034  0.00  0.00    -0.646 OA
ENDBRANCH  14  18
ENDBRANCH   1  14
TORSDOF 7
ENDMDL
MODEL 9
REMARK VINA RESULT:      -4.6      5.309      9.262
REMARK  7 active torsions:
REMARK  status: ('A' for Active; 'I' for Inactive)
REMARK    1  A    between atoms: C_2  and  C_4 
REMARK    2  A    between atoms: C_2  and  C_12 
REMARK    3  A    between atoms: C_2  and  N_9 
REMARK    4  A    between atoms: N_5  and  C_16 
REMARK       I    between atoms: N_9  and  C_10 
REMARK    5  A    between atoms: C_10  and  C_16 
REMARK    6  A    between atoms: C_16  and  C_20 
REMARK    7  A    between atoms: O_19  and  C_20 
ROOT
HETATM    1  N           1     -21.576  -9.058  -1.850  0.00  0.00    -0.344 N 
HETATM    2  C           1     -21.604  -7.775  -2.327  0.00  0.00     0.251 C 
HETATM    3  O           1     -22.207  -6.920  -1.722  0.00  0.00    -0.271 OA
HETATM    4  H           1     -21.070  -9.775  -2.356  0.00  0.00     0.163 HD
ENDROOT
BRANCH   2   5
HETATM    5  C           1     -20.884  -7.429  -3.606  0.00  0.00     0.302 C 
BRANCH   5   6
HETATM    6  N           1     -21.144  -8.493  -4.630  0.00  0.00    -0.064 N 
HETATM    7  H           1     -22.142  -8.447  -4.935  0.00  0.00     0.275 HD
HETATM    8  H           1     -20.521  -8.342  -5.455  0.00  0.00     0.275 HD
HETATM    9  H           1     -20.949  -9.432  -4.213  0.00  0.00     0.275 HD
ENDBRANCH   5   6
BRANCH   5  10
HETATM   10  C           1     -21.389  -6.090  -4.128  0.00  0.00     0.153 C 
HETATM   11  C           1     -20.554  -5.666  -5.329  0.00  0.00     0.042 C 
BRANCH  10  12
HETATM   12  O           1     -22.731  -6.214  -4.512  0.00  0.00    -0.393 OA
HETATM   13  H           1     -22.735  -6.451  -5.423  0.00  0.00     0.210 HD
ENDBRANCH  10  12
ENDBRANCH   5  10
ENDBRANCH   2   5
BRANCH   1  14
HETATM   14  C           1     -22.268  -9.392  -0.621  0.00  0.00     0.189 C 
BRANCH  14  15
HETATM   15  C           1     -22.873 -10.784  -0.741  0.00  0.00     0.010 C 
HETATM   16  C           1     -23.071 -11.125  -2.212  0.00  0.00     0.012 C 
HETATM   17  C           1     -24.218 -10.815  -0.027  0.00  0.00     0.012 C 
ENDBRANCH  14  15
BRANCH  14  18
HETATM   18  C           1     -21.290  -9.365   0.529  0.00  0.00     0.197 C 
HETATM   19  O           1     -21.219  -8.356   1.264  0.00  0.00    -0.646 OA
HETATM   20  O           1     -20.553 -10.351   0.746  0.00  0.00    -0.646 OA
ENDBRANCH  14  18
ENDBRANCH   1  14
TORSDOF 7
ENDMDL
