MODEL 1
REMARK VINA RESULT:      -6.9      0.000      0.000
REMARK  7 active torsions:
REMARK  status: ('A' for Active; 'I' for Inactive)
REMARK    1  A    between atoms: N_1  and  C_11 
REMARK    2  A    between atoms: N_4  and  C_19 
REMARK       I    between atoms: N_4  and  C_5 
REMARK    3  A    between atoms: C_5  and  C_11 
REMARK    4  A    between atoms: C_11  and  C_21 
REMARK    5  A    between atoms: C_14  and  C_21 
REMARK    6  A    between atoms: C_15  and  C_19 
REMARK    7  A    between atoms: C_18  and  C_19 
ROOT
HETATM    1  C           1     -34.217  -4.111 -12.394  0.00  0.00     0.280 C 
ENDROOT
BRANCH   1   2
HETATM    2  N           1     -33.760  -4.165 -13.821  0.00  0.00    -0.066 N 
HETATM    3  H           1     -33.293  -5.082 -14.004  0.00  0.00     0.275 HD
HETATM    4  H           1     -34.585  -4.063 -14.455  0.00  0.00     0.275 HD
HETATM    5  H           1     -33.085  -3.388 -14.001  0.00  0.00     0.275 HD
ENDBRANCH   1   2
BRANCH   1   6
HETATM    6  C           1     -34.360  -2.671 -11.967  0.00  0.00     0.249 C 
HETATM    7  O           1     -33.621  -2.212 -11.128  0.00  0.00    -0.271 OA
HETATM    8  N           1     -35.328  -1.883 -12.529  0.00  0.00    -0.344 N 
HETATM    9  H           1     -35.947  -2.266 -13.232  0.00  0.00     0.163 HD
BRANCH   8  10
HETATM   10  C           1     -35.466  -0.499 -12.119  0.00  0.00     0.189 C 
BRANCH  10  11
HETATM   11  C           1     -35.772   0.364 -13.336  0.00  0.00     0.010 C 
HETATM   12  C           1     -36.233  -0.522 -14.485  0.00  0.00     0.012 C 
HETATM   13  C           1     -34.516   1.119 -13.751  0.00  0.00     0.012 C 
ENDBRANCH  10  11
BRANCH  10  14
HETATM   14  C           1     -36.594  -0.380 -11.123  0.00  0.00     0.197 C 
HETATM   15  O           1     -36.525   0.457 -10.199  0.00  0.00    -0.646 OA
HETATM   16  O           1     -37.596  -1.121 -11.223  0.00  0.00    -0.646 OA
ENDBRANCH  10  14
ENDBRANCH   8  10
ENDBRANCH   1   6
BRANCH   1  17
HETATM   17  C           1     -33.191  -4.804 -11.507  0.00  0.00     0.101 C 
BRANCH  17  18
HETATM   18  C           1     -33.833  -5.966 -10.814  0.00  0.00     0.028 A 
HETATM   19  C           1     -35.003  -5.898 -10.096  0.00  0.00     0.114 A 
HETATM   20  N           1     -35.216  -7.170  -9.644  0.00  0.00    -0.360 N 
HETATM   21  H           1     -36.023  -7.493  -9.056  0.00  0.00     0.166 HD
HETATM   22  C           1     -34.185  -7.944 -10.096  0.00  0.00     0.180 A 
HETATM   23  N           1     -33.332  -7.242 -10.807  0.00  0.00    -0.355 N 
ATOM     24  HN          1     -32.480  -7.575 -11.258  1.00  0.00     0.166 HD
ENDBRANCH  17  18
ENDBRANCH   1  17
TORSDOF 7
ENDMDL
MODEL 2
REMARK VINA RESULT:      -6.8     12.443     14.106
REMARK  7 active torsions:
REMARK  status: ('A' for Active; 'I' for Inactive)
REMARK    1  A    between atoms: N_1  and  C_11 
REMARK    2  A    between atoms: N_4  and  C_19 
REMARK       I    between atoms: N_4  and  C_5 
REMARK    3  A    between atoms: C_5  and  C_11 
REMARK    4  A    between atoms: C_11  and  C_21 
REMARK    5  A    between atoms: C_14  and  C_21 
REMARK    6  A    between atoms: C_15  and  C_19 
REMARK    7  A    between atoms: C_18  and  C_19 
ROOT
HETATM    1  C           1     -21.086  -5.676  -6.775  0.00  0.00     0.280 C 
ENDROOT
BRANCH   1   2
HETATM    2  N           1     -19.877  -6.275  -7.429  0.00  0.00    -0.066 N 
HETATM    3  H           1     -19.190  -6.564  -6.696  0.00  0.00     0.275 HD
HETATM    4  H           1     -20.162  -7.113  -7.987  0.00  0.00     0.275 HD
HETATM    5  H           1     -19.436  -5.569  -8.061  0.00  0.00     0.275 HD
ENDBRANCH   1   2
BRANCH   1   6
HETATM    6  C           1     -21.619  -4.557  -7.635  0.00  0.00     0.249 C 
HETATM    7  O           1     -21.591  -3.418  -7.233  0.00  0.00    -0.271 OA
HETATM    8  N           1     -22.137  -4.832  -8.873  0.00  0.00    -0.344 N 
HETATM    9  H           1     -22.162  -5.786  -9.210  0.00  0.00     0.163 HD
BRANCH   8  10
HETATM   10  C           1     -22.650  -3.757  -9.700  0.00  0.00     0.189 C 
BRANCH  10  11
HETATM   11  C           1     -22.095  -3.892 -11.111  0.00  0.00     0.010 C 
HETATM   12  C           1     -20.575  -3.956 -11.055  0.00  0.00     0.012 C 
HETATM   13  C           1     -22.522  -2.690 -11.941  0.00  0.00     0.012 C 
ENDBRANCH  10  11
BRANCH  10  14
HETATM   14  C           1     -24.157  -3.832  -9.743  0.00  0.00     0.197 C 
HETATM   15  O           1     -24.721  -4.904 -10.049  0.00  0.00    -0.646 OA
HETATM   16  O           1     -24.841  -2.821  -9.475  0.00  0.00    -0.646 OA
ENDBRANCH  10  14
ENDBRANCH   8  10
ENDBRANCH   1   6
BRANCH   1  17
HETATM   17  C           1     -20.702  -5.127  -5.407  0.00  0.00     0.101 C 
BRANCH  17  18
HETATM   18  C           1     -21.095  -6.107  -4.346  0.00  0.00     0.028 A 
HETATM   19  C           1     -21.131  -7.471  -4.517  0.00  0.00     0.114 A 
HETATM   20  N           1     -21.538  -7.969  -3.311  0.00  0.00    -0.360 N 
HETATM   21  H           1     -21.678  -8.982  -3.073  0.00  0.00     0.166 HD
HETATM   22  C           1     -21.729  -6.907  -2.473  0.00  0.00     0.180 A 
HETATM   23  N           1     -21.469  -5.768  -3.072  0.00  0.00    -0.355 N 
ATOM     24  HN          1     -21.532  -4.830  -2.674  1.00  0.00     0.166 HD
ENDBRANCH  17  18
ENDBRANCH   1  17
TORSDOF 7
ENDMDL
MODEL 3
REMARK VINA RESULT:      -6.7      2.385      3.368
REMARK  7 active torsions:
REMARK  status: ('A' for Active; 'I' for Inactive)
REMARK    1  A    between atoms: N_1  and  C_11 
REMARK    2  A    between atoms: N_4  and  C_19 
REMARK       I    between atoms: N_4  and  C_5 
REMARK    3  A    between atoms: C_5  and  C_11 
REMARK    4  A    between atoms: C_11  and  C_21 
REMARK    5  A    between atoms: C_14  and  C_21 
REMARK    6  A    between atoms: C_15  and  C_19 
REMARK    7  A    between atoms: C_18  and  C_19 
ROOT
HETATM    1  C           1     -34.537  -2.436 -11.891  0.00  0.00     0.280 C 
ENDROOT
BRANCH   1   2
HETATM    2  N           1     -33.892  -1.530 -10.885  0.00  0.00    -0.066 N 
HETATM    3  H           1     -32.869  -1.457 -11.086  0.00  0.00     0.275 HD
HETATM    4  H           1     -34.326  -0.581 -10.943  0.00  0.00     0.275 HD
HETATM    5  H           1     -34.032  -1.919  -9.925  0.00  0.00     0.275 HD
ENDBRANCH   1   2
BRANCH   1   6
HETATM    6  C           1     -35.377  -1.617 -12.839  0.00  0.00     0.249 C 
HETATM    7  O           1     -36.502  -1.301 -12.531  0.00  0.00    -0.271 OA
HETATM    8  N           1     -34.865  -1.231 -14.049  0.00  0.00    -0.344 N 
HETATM    9  H           1     -33.924  -1.495 -14.307  0.00  0.00     0.163 HD
BRANCH   8  10
HETATM   10  C           1     -35.672  -0.443 -14.960  0.00  0.00     0.189 C 
BRANCH  10  11
HETATM   11  C           1     -35.058   0.941 -15.118  0.00  0.00     0.010 C 
HETATM   12  C           1     -34.619   1.460 -13.755  0.00  0.00     0.012 C 
HETATM   13  C           1     -36.089   1.889 -15.713  0.00  0.00     0.012 C 
ENDBRANCH  10  11
BRANCH  10  14
HETATM   14  C           1     -35.723  -1.127 -16.305  0.00  0.00     0.197 C 
HETATM   15  O           1     -34.777  -1.855 -16.671  0.00  0.00    -0.646 OA
HETATM   16  O           1     -36.712  -0.962 -17.052  0.00  0.00    -0.646 OA
ENDBRANCH  10  14
ENDBRANCH   8  10
ENDBRANCH   1   6
BRANCH   1  17
HETATM   17  C           1     -35.421  -3.446 -11.170  0.00  0.00     0.101 C 
BRANCH  17  18
HETATM   18  C           1     -34.690  -4.745 -11.035  0.00  0.00     0.028 A 
HETATM   19  C           1     -33.451  -5.004 -11.572  0.00  0.00     0.114 A 
HETATM   20  N           1     -33.170  -6.291 -11.209  0.00  0.00    -0.360 N 
HETATM   21  H           1     -32.299  -6.827 -11.447  0.00  0.00     0.166 HD
HETATM   22  C           1     -34.229  -6.753 -10.481  0.00  0.00     0.180 A 
HETATM   23  N           1     -35.164  -5.839 -10.359  0.00  0.00    -0.355 N 
ATOM     24  HN          1     -36.054  -5.925  -9.867  1.00  0.00     0.166 HD
ENDBRANCH  17  18
ENDBRANCH   1  17
TORSDOF 7
ENDMDL
MODEL 4
REMARK VINA RESULT:      -6.2     13.158     15.714
REMARK  7 active torsions:
REMARK  status: ('A' for Active; 'I' for Inactive)
REMARK    1  A    between atoms: N_1  and  C_11 
REMARK    2  A    between atoms: N_4  and  C_19 
REMARK       I    between atoms: N_4  and  C_5 
REMARK    3  A    between atoms: C_5  and  C_11 
REMARK    4  A    between atoms: C_11  and  C_21 
REMARK    5  A    between atoms: C_14  and  C_21 
REMARK    6  A    between atoms: C_15  and  C_19 
REMARK    7  A    between atoms: C_18  and  C_19 
ROOT
HETATM    1  C           1     -21.969  -4.410  -6.991  0.00  0.00     0.280 C 
ENDROOT
BRANCH   1   2
HETATM    2  N           1     -21.468  -2.997  -7.002  0.00  0.00    -0.066 N 
HETATM    3  H           1     -21.338  -2.680  -7.990  0.00  0.00     0.275 HD
HETATM    4  H           1     -22.163  -2.377  -6.527  0.00  0.00     0.275 HD
HETATM    5  H           1     -20.554  -2.947  -6.497  0.00  0.00     0.275 HD
ENDBRANCH   1   2
BRANCH   1   6
HETATM    6  C           1     -21.055  -5.259  -6.142  0.00  0.00     0.249 C 
HETATM    7  O           1     -19.868  -5.035  -6.120  0.00  0.00    -0.271 OA
HETATM    8  N           1     -21.571  -6.285  -5.396  0.00  0.00    -0.344 N 
HETATM    9  H           1     -22.565  -6.473  -5.415  0.00  0.00     0.163 HD
BRANCH   8  10
HETATM   10  C           1     -20.694  -7.102  -4.580  0.00  0.00     0.189 C 
BRANCH  10  11
HETATM   11  C           1     -21.406  -7.478  -3.288  0.00  0.00     0.010 C 
HETATM   12  C           1     -21.893  -6.216  -2.589  0.00  0.00     0.012 C 
HETATM   13  C           1     -20.441  -8.222  -2.375  0.00  0.00     0.012 C 
ENDBRANCH  10  11
BRANCH  10  14
HETATM   14  C           1     -20.328  -8.356  -5.336  0.00  0.00     0.197 C 
HETATM   15  O           1     -19.135  -8.580  -5.632  0.00  0.00    -0.646 OA
HETATM   16  O           1     -21.218  -9.169  -5.666  0.00  0.00    -0.646 OA
ENDBRANCH  10  14
ENDBRANCH   8  10
ENDBRANCH   1   6
BRANCH   1  17
HETATM   17  C           1     -21.989  -4.952  -8.415  0.00  0.00     0.101 C 
BRANCH  17  18
HETATM   18  C           1     -23.041  -4.240  -9.206  0.00  0.00     0.028 A 
HETATM   19  C           1     -22.919  -3.888 -10.529  0.00  0.00     0.114 A 
HETATM   20  N           1     -24.096  -3.266 -10.841  0.00  0.00    -0.360 N 
HETATM   21  H           1     -24.357  -2.863 -11.775  0.00  0.00     0.166 HD
HETATM   22  C           1     -24.870  -3.266  -9.715  0.00  0.00     0.180 A 
HETATM   23  N           1     -24.257  -3.848  -8.710  0.00  0.00    -0.355 N 
ATOM     24  HN          1     -24.611  -3.979  -7.762  1.00  0.00     0.166 HD
ENDBRANCH  17  18
ENDBRANCH   1  17
TORSDOF 7
ENDMDL
MODEL 5
REMARK VINA RESULT:      -6.1     13.274     15.856
REMARK  7 active torsions:
REMARK  status: ('A' for Active; 'I' for Inactive)
REMARK    1  A    between atoms: N_1  and  C_11 
REMARK    2  A    between atoms: N_4  and  C_19 
REMARK       I    between atoms: N_4  and  C_5 
REMARK    3  A    between atoms: C_5  and  C_11 
REMARK    4  A    between atoms: C_11  and  C_21 
REMARK    5  A    between atoms: C_14  and  C_21 
REMARK    6  A    between atoms: C_15  and  C_19 
REMARK    7  A    between atoms: C_18  and  C_19 
ROOT
HETATM    1  C           1     -21.236  -4.771  -6.573  0.00  0.00     0.280 C 
ENDROOT
BRANCH   1   2
HETATM    2  N           1     -19.791  -4.548  -6.238  0.00  0.00    -0.066 N 
HETATM    3  H           1     -19.366  -3.898  -6.938  0.00  0.00     0.275 HD
HETATM    4  H           1     -19.716  -4.127  -5.284  0.00  0.00     0.275 HD
HETATM    5  H           1     -19.284  -5.461  -6.257  0.00  0.00     0.275 HD
ENDBRANCH   1   2
BRANCH   1   6
HETATM    6  C           1     -21.828  -5.766  -5.605  0.00  0.00     0.249 C 
HETATM    7  O           1     -23.027  -5.897  -5.531  0.00  0.00    -0.271 OA
HETATM    8  N           1     -21.007  -6.520  -4.811  0.00  0.00    -0.344 N 
HETATM    9  H           1     -20.003  -6.411  -4.873  0.00  0.00     0.163 HD
BRANCH   8  10
HETATM   10  C           1     -21.575  -7.477  -3.881  0.00  0.00     0.189 C 
BRANCH  10  11
HETATM   11  C           1     -20.740  -8.750  -3.886  0.00  0.00     0.010 C 
HETATM   12  C           1     -19.627  -8.623  -4.918  0.00  0.00     0.012 C 
HETATM   13  C           1     -21.626  -9.936  -4.240  0.00  0.00     0.012 C 
ENDBRANCH  10  11
BRANCH  10  14
HETATM   14  C           1     -21.581  -6.885  -2.493  0.00  0.00     0.197 C 
HETATM   15  O           1     -22.330  -5.921  -2.227  0.00  0.00    -0.646 OA
HETATM   16  O           1     -20.834  -7.358  -1.609  0.00  0.00    -0.646 OA
ENDBRANCH  10  14
ENDBRANCH   8  10
ENDBRANCH   1   6
BRANCH   1  17
HETATM   17  C           1     -21.349  -5.312  -7.992  0.00  0.00     0.101 C 
BRANCH  17  18
HETATM   18  C           1     -22.392  -4.541  -8.740  0.00  0.00     0.028 A 
HETATM   19  C           1     -22.292  -4.169 -10.060  0.00  0.00     0.114 A 
HETATM   20  N           1     -23.450  -3.493 -10.326  0.00  0.00    -0.360 N 
HETATM   21  H           1     -23.720  -3.061 -11.244  0.00  0.00     0.166 HD
HETATM   22  C           1     -24.191  -3.481  -9.178  0.00  0.00     0.180 A 
HETATM   23  N           1     -23.576  -4.107  -8.202  0.00  0.00    -0.355 N 
ATOM     24  HN          1     -23.907  -4.242  -7.246  1.00  0.00     0.166 HD
ENDBRANCH  17  18
ENDBRANCH   1  17
TORSDOF 7
ENDMDL
MODEL 6
REMARK VINA RESULT:      -5.8     13.603     16.196
REMARK  7 active torsions:
REMARK  status: ('A' for Active; 'I' for Inactive)
REMARK    1  A    between atoms: N_1  and  C_11 
REMARK    2  A    between atoms: N_4  and  C_19 
REMARK       I    between atoms: N_4  and  C_5 
REMARK    3  A    between atoms: C_5  and  C_11 
REMARK    4  A    between atoms: C_11  and  C_21 
REMARK    5  A    between atoms: C_14  and  C_21 
REMARK    6  A    between atoms: C_15  and  C_19 
REMARK    7  A    between atoms: C_18  and  C_19 
ROOT
HETATM    1  C           1     -21.775  -5.074  -7.687  0.00  0.00     0.280 C 
ENDROOT
BRANCH   1   2
HETATM    2  N           1     -22.880  -4.415  -6.918  0.00  0.00    -0.066 N 
HETATM    3  H           1     -23.753  -4.984  -7.005  0.00  0.00     0.275 HD
HETATM    4  H           1     -22.610  -4.345  -5.910  0.00  0.00     0.275 HD
HETATM    5  H           1     -23.049  -3.457  -7.301  0.00  0.00     0.275 HD
ENDBRANCH   1   2
BRANCH   1   6
HETATM    6  C           1     -20.874  -5.818  -6.732  0.00  0.00     0.249 C 
HETATM    7  O           1     -19.674  -5.718  -6.831  0.00  0.00    -0.271 OA
HETATM    8  N           1     -21.416  -6.608  -5.754  0.00  0.00    -0.344 N 
HETATM    9  H           1     -22.421  -6.691  -5.671  0.00  0.00     0.163 HD
BRANCH   8  10
HETATM   10  C           1     -20.550  -7.323  -4.836  0.00  0.00     0.189 C 
BRANCH  10  11
HETATM   11  C           1     -21.276  -7.537  -3.515  0.00  0.00     0.010 C 
HETATM   12  C           1     -21.677  -6.189  -2.931  0.00  0.00     0.012 C 
HETATM   13  C           1     -20.353  -8.256  -2.541  0.00  0.00     0.012 C 
ENDBRANCH  10  11
BRANCH  10  14
HETATM   14  C           1     -20.184  -8.661  -5.431  0.00  0.00     0.197 C 
HETATM   15  O           1     -21.079  -9.490  -5.701  0.00  0.00    -0.646 OA
HETATM   16  O           1     -18.986  -8.939  -5.652  0.00  0.00    -0.646 OA
ENDBRANCH  10  14
ENDBRANCH   8  10
ENDBRANCH   1   6
BRANCH   1  17
HETATM   17  C           1     -20.968  -4.013  -8.425  0.00  0.00     0.101 C 
BRANCH  17  18
HETATM   18  C           1     -21.378  -3.985  -9.865  0.00  0.00     0.028 A 
HETATM   19  C           1     -20.543  -4.269 -10.920  0.00  0.00     0.114 A 
HETATM   20  N           1     -21.321  -4.124 -12.035  0.00  0.00    -0.360 N 
HETATM   21  H           1     -21.012  -4.263 -13.029  0.00  0.00     0.166 HD
HETATM   22  C           1     -22.571  -3.764 -11.620  0.00  0.00     0.180 A 
HETATM   23  N           1     -22.635  -3.672 -10.311  0.00  0.00    -0.355 N 
ATOM     24  HN          1     -23.448  -3.420  -9.747  1.00  0.00     0.166 HD
ENDBRANCH  17  18
ENDBRANCH   1  17
TORSDOF 7
ENDMDL
MODEL 7
REMARK VINA RESULT:      -5.6     14.961     17.539
REMARK  7 active torsions:
REMARK  status: ('A' for Active; 'I' for Inactive)
REMARK    1  A    between atoms: N_1  and  C_11 
REMARK    2  A    between atoms: N_4  and  C_19 
REMARK       I    between atoms: N_4  and  C_5 
REMARK    3  A    between atoms: C_5  and  C_11 
REMARK    4  A    between atoms: C_11  and  C_21 
REMARK    5  A    between atoms: C_14  and  C_21 
REMARK    6  A    between atoms: C_15  and  C_19 
REMARK    7  A    between atoms: C_18  and  C_19 
ROOT
HETATM    1  C           1     -20.498  -7.490  -4.708  0.00  0.00     0.280 C 
ENDROOT
BRANCH   1   2
HETATM    2  N           1     -21.196  -8.257  -5.791  0.00  0.00    -0.066 N 
HETATM    3  H           1     -21.896  -7.638  -6.262  0.00  0.00     0.275 HD
HETATM    4  H           1     -20.495  -8.584  -6.494  0.00  0.00     0.275 HD
HETATM    5  H           1     -21.685  -9.082  -5.376  0.00  0.00     0.275 HD
ENDBRANCH   1   2
BRANCH   1   6
HETATM    6  C           1     -20.465  -8.320  -3.448  0.00  0.00     0.249 C 
HETATM    7  O           1     -19.453  -8.900  -3.132  0.00  0.00    -0.271 OA
HETATM    8  N           1     -21.582  -8.417  -2.662  0.00  0.00    -0.344 N 
HETATM    9  H           1     -22.430  -7.932  -2.927  0.00  0.00     0.163 HD
BRANCH   8  10
HETATM   10  C           1     -21.550  -9.214  -1.452  0.00  0.00     0.189 C 
BRANCH  10  11
HETATM   11  C           1     -22.213  -8.444  -0.318  0.00  0.00     0.010 C 
HETATM   12  C           1     -22.398  -6.990  -0.731  0.00  0.00     0.012 C 
HETATM   13  C           1     -21.333  -8.510   0.923  0.00  0.00     0.012 C 
ENDBRANCH  10  11
BRANCH  10  14
HETATM   14  C           1     -22.294 -10.507  -1.682  0.00  0.00     0.197 C 
HETATM   15  O           1     -21.775 -11.412  -2.370  0.00  0.00    -0.646 OA
HETATM   16  O           1     -23.429 -10.672  -1.186  0.00  0.00    -0.646 OA
ENDBRANCH  10  14
ENDBRANCH   8  10
ENDBRANCH   1   6
BRANCH   1  17
HETATM   17  C           1     -21.249  -6.191  -4.442  0.00  0.00     0.101 C 
BRANCH  17  18
HETATM   18  C           1     -21.192  -5.322  -5.660  0.00  0.00     0.028 A 
HETATM   19  C           1     -20.040  -4.787  -6.184  0.00  0.00     0.114 A 
HETATM   20  N           1     -20.447  -4.072  -7.277  0.00  0.00    -0.360 N 
HETATM   21  H           1     -19.830  -3.525  -7.926  0.00  0.00     0.166 HD
HETATM   22  C           1     -21.804  -4.200  -7.368  0.00  0.00     0.180 A 
HETATM   23  N           1     -22.283  -4.951  -6.402  0.00  0.00    -0.355 N 
ATOM     24  HN          1     -23.258  -5.203  -6.240  1.00  0.00     0.166 HD
ENDBRANCH  17  18
ENDBRANCH   1  17
TORSDOF 7
ENDMDL
MODEL 8
REMARK VINA RESULT:      -5.5     12.080     14.558
REMARK  7 active torsions:
REMARK  status: ('A' for Active; 'I' for Inactive)
REMARK    1  A    between atoms: N_1  and  C_11 
REMARK    2  A    between atoms: N_4  and  C_19 
REMARK       I    between atoms: N_4  and  C_5 
REMARK    3  A    between atoms: C_5  and  C_11 
REMARK    4  A    between atoms: C_11  and  C_21 
REMARK    5  A    between atoms: C_14  and  C_21 
REMARK    6  A    between atoms: C_15  and  C_19 
REMARK    7  A    between atoms: C_18  and  C_19 
ROOT
HETATM    1  C           1     -23.618  -4.269  -9.129  0.00  0.00     0.280 C 
ENDROOT
BRANCH   1   2
HETATM    2  N           1     -24.656  -3.188  -9.077  0.00  0.00    -0.066 N 
HETATM    3  H           1     -24.621  -2.716  -8.144  0.00  0.00     0.275 HD
HETATM    4  H           1     -24.467  -2.487  -9.828  0.00  0.00     0.275 HD
HETATM    5  H           1     -25.603  -3.607  -9.220  0.00  0.00     0.275 HD
ENDBRANCH   1   2
BRANCH   1   6
HETATM    6  C           1     -23.124  -4.557  -7.732  0.00  0.00     0.249 C 
HETATM    7  O           1     -23.849  -4.372  -6.784  0.00  0.00    -0.271 OA
HETATM    8  N           1     -21.853  -5.028  -7.539  0.00  0.00    -0.344 N 
HETATM    9  H           1     -21.245  -5.184  -8.333  0.00  0.00     0.163 HD
BRANCH   8  10
HETATM   10  C           1     -21.378  -5.305  -6.197  0.00  0.00     0.189 C 
BRANCH  10  11
HETATM   11  C           1     -21.343  -6.811  -5.971  0.00  0.00     0.010 C 
HETATM   12  C           1     -22.195  -7.162  -4.758  0.00  0.00     0.012 C 
HETATM   13  C           1     -19.908  -7.254  -5.727  0.00  0.00     0.012 C 
ENDBRANCH  10  11
BRANCH  10  14
HETATM   14  C           1     -19.988  -4.740  -6.030  0.00  0.00     0.197 C 
HETATM   15  O           1     -19.597  -4.367  -4.903  0.00  0.00    -0.646 OA
HETATM   16  O           1     -19.230  -4.643  -7.019  0.00  0.00    -0.646 OA
ENDBRANCH  10  14
ENDBRANCH   8  10
ENDBRANCH   1   6
BRANCH   1  17
HETATM   17  C           1     -22.452  -3.812  -9.996  0.00  0.00     0.101 C 
BRANCH  17  18
HETATM   18  C           1     -22.928  -3.592 -11.398  0.00  0.00     0.028 A 
HETATM   19  C           1     -22.711  -2.446 -12.126  0.00  0.00     0.114 A 
HETATM   20  N           1     -23.310  -2.675 -13.334  0.00  0.00    -0.360 N 
HETATM   21  H           1     -23.344  -2.011 -14.146  0.00  0.00     0.166 HD
HETATM   22  C           1     -23.857  -3.926 -13.290  0.00  0.00     0.180 A 
HETATM   23  N           1     -23.643  -4.504 -12.130  0.00  0.00    -0.355 N 
ATOM     24  HN          1     -23.944  -5.434 -11.837  1.00  0.00     0.166 HD
ENDBRANCH  17  18
ENDBRANCH   1  17
TORSDOF 7
ENDMDL
MODEL 9
REMARK VINA RESULT:      -5.5     14.524     17.322
REMARK  7 active torsions:
REMARK  status: ('A' for Active; 'I' for Inactive)
REMARK    1  A    between atoms: N_1  and  C_11 
REMARK    2  A    between atoms: N_4  and  C_19 
REMARK       I    between atoms: N_4  and  C_5 
REMARK    3  A    between atoms: C_5  and  C_11 
REMARK    4  A    between atoms: C_11  and  C_21 
REMARK    5  A    between atoms: C_14  and  C_21 
REMARK    6  A    between atoms: C_15  and  C_19 
REMARK    7  A    between atoms: C_18  and  C_19 
ROOT
HETATM    1  C           1     -21.605  -6.295  -5.553  0.00  0.00     0.280 C 
ENDROOT
BRANCH   1   2
HETATM    2  N           1     -22.087  -6.120  -4.145  0.00  0.00    -0.066 N 
HETATM    3  H           1     -22.001  -5.115  -3.869  0.00  0.00     0.275 HD
HETATM    4  H           1     -23.089  -6.413  -4.081  0.00  0.00     0.275 HD
HETATM    5  H           1     -21.510  -6.708  -3.502  0.00  0.00     0.275 HD
ENDBRANCH   1   2
BRANCH   1   6
HETATM    6  C           1     -20.464  -7.282  -5.573  0.00  0.00     0.249 C 
HETATM    7  O           1     -19.627  -7.222  -6.443  0.00  0.00    -0.271 OA
HETATM    8  N           1     -20.376  -8.248  -4.606  0.00  0.00    -0.344 N 
HETATM    9  H           1     -21.076  -8.299  -3.878  0.00  0.00     0.163 HD
BRANCH   8  10
HETATM   10  C           1     -19.279  -9.196  -4.625  0.00  0.00     0.189 C 
BRANCH  10  11
HETATM   11  C           1     -18.940  -9.610  -3.200  0.00  0.00     0.010 C 
HETATM   12  C           1     -19.730  -8.753  -2.220  0.00  0.00     0.012 C 
HETATM   13  C           1     -17.450  -9.415  -2.956  0.00  0.00     0.012 C 
ENDBRANCH  10  11
BRANCH  10  14
HETATM   14  C           1     -19.683 -10.415  -5.420  0.00  0.00     0.197 C 
HETATM   15  O           1     -18.997 -10.777  -6.399  0.00  0.00    -0.646 OA
HETATM   16  O           1     -20.705 -11.060  -5.098  0.00  0.00    -0.646 OA
ENDBRANCH  10  14
ENDBRANCH   8  10
ENDBRANCH   1   6
BRANCH   1  17
HETATM   17  C           1     -21.127  -4.955  -6.096  0.00  0.00     0.101 C 
BRANCH  17  18
HETATM   18  C           1     -21.860  -4.638  -7.362  0.00  0.00     0.028 A 
HETATM   19  C           1     -21.314  -4.715  -8.621  0.00  0.00     0.114 A 
HETATM   20  N           1     -22.322  -4.343  -9.468  0.00  0.00    -0.360 N 
HETATM   21  H           1     -22.263  -4.285 -10.515  0.00  0.00     0.166 HD
HETATM   22  C           1     -23.417  -4.061  -8.702  0.00  0.00     0.180 A 
HETATM   23  N           1     -23.167  -4.230  -7.424  0.00  0.00    -0.355 N 
ATOM     24  HN          1     -23.809  -4.087  -6.644  1.00  0.00     0.166 HD
ENDBRANCH  17  18
ENDBRANCH   1  17
TORSDOF 7
ENDMDL
