MODEL 1
REMARK VINA RESULT:      -5.7      0.000      0.000
REMARK  4 active torsions:
REMARK  status: ('A' for Active; 'I' for Inactive)
REMARK    1  A    between atoms: N_1  and  C_9 
REMARK       I    between atoms: C_2  and  N_3 
REMARK    2  A    between atoms: C_2  and  C_9 
REMARK    3  A    between atoms: N_3  and  C_6 
REMARK    4  A    between atoms: C_6  and  C_8 
ROOT
HETATM    1  C           1     -23.463  -2.412 -14.222  0.00  0.00     0.243 C 
HETATM    2  N           1     -23.090  -2.373 -12.906  0.00  0.00    -0.345 N 
HETATM    3  H           1     -22.813  -1.496 -12.484  0.00  0.00     0.163 HD
HETATM    4  O           1     -23.795  -3.460 -14.725  0.00  0.00    -0.272 OA
ENDROOT
BRANCH   1   5
HETATM    5  C           1     -23.460  -1.147 -15.045  0.00  0.00     0.332 C 
BRANCH   5   6
HETATM    6  N           1     -24.678  -0.335 -14.719  0.00  0.00    -0.071 N 
HETATM    7  H           1     -24.598   0.036 -13.746  0.00  0.00     0.274 HD
HETATM    8  H           1     -24.753   0.462 -15.390  0.00  0.00     0.274 HD
HETATM    9  H           1     -25.528  -0.937 -14.795  0.00  0.00     0.274 HD
ENDBRANCH   5   6
ENDBRANCH   1   5
BRANCH   2  10
HETATM   10  C           1     -23.093  -3.589 -12.115  0.00  0.00     0.181 C 
HETATM   11  C           1     -21.665  -3.941 -11.721  0.00  0.00     0.043 C 
BRANCH  10  12
HETATM   12  C           1     -23.922  -3.377 -10.871  0.00  0.00     0.196 C 
HETATM   13  O           1     -23.383  -3.431  -9.744  0.00  0.00    -0.646 OA
HETATM   14  O           1     -25.146  -3.147 -10.967  0.00  0.00    -0.646 OA
ENDBRANCH  10  12
ENDBRANCH   2  10
TORSDOF 4
ENDMDL
MODEL 2
REMARK VINA RESULT:      -5.2      6.751      7.680
REMARK  4 active torsions:
REMARK  status: ('A' for Active; 'I' for Inactive)
REMARK    1  A    between atoms: N_1  and  C_9 
REMARK       I    between atoms: C_2  and  N_3 
REMARK    2  A    between atoms: C_2  and  C_9 
REMARK    3  A    between atoms: N_3  and  C_6 
REMARK    4  A    between atoms: C_6  and  C_8 
ROOT
HETATM    1  C           1     -26.495  -6.581 -16.542  0.00  0.00     0.243 C 
HETATM    2  N           1     -27.721  -7.145 -16.316  0.00  0.00    -0.345 N 
HETATM    3  H           1     -27.808  -7.930 -15.684  0.00  0.00     0.163 HD
HETATM    4  O           1     -26.391  -5.643 -17.297  0.00  0.00    -0.272 OA
ENDROOT
BRANCH   1   5
HETATM    5  C           1     -25.272  -7.129 -15.847  0.00  0.00     0.332 C 
BRANCH   5   6
HETATM    6  N           1     -24.332  -7.700 -16.866  0.00  0.00    -0.071 N 
HETATM    7  H           1     -23.662  -6.960 -17.175  0.00  0.00     0.274 HD
HETATM    8  H           1     -23.802  -8.495 -16.443  0.00  0.00     0.274 HD
HETATM    9  H           1     -24.877  -8.042 -17.690  0.00  0.00     0.274 HD
ENDBRANCH   5   6
ENDBRANCH   1   5
BRANCH   2  10
HETATM   10  C           1     -28.896  -6.619 -16.984  0.00  0.00     0.181 C 
HETATM   11  C           1     -29.760  -7.773 -17.475  0.00  0.00     0.043 C 
BRANCH  10  12
HETATM   12  C           1     -29.688  -5.774 -16.015  0.00  0.00     0.196 C 
HETATM   13  O           1     -30.739  -5.211 -16.390  0.00  0.00    -0.646 OA
HETATM   14  O           1     -29.291  -5.637 -14.838  0.00  0.00    -0.646 OA
ENDBRANCH  10  12
ENDBRANCH   2  10
TORSDOF 4
ENDMDL
MODEL 3
REMARK VINA RESULT:      -4.9     11.484     12.649
REMARK  4 active torsions:
REMARK  status: ('A' for Active; 'I' for Inactive)
REMARK    1  A    between atoms: N_1  and  C_9 
REMARK       I    between atoms: C_2  and  N_3 
REMARK    2  A    between atoms: C_2  and  C_9 
REMARK    3  A    between atoms: N_3  and  C_6 
REMARK    4  A    between atoms: C_6  and  C_8 
ROOT
HETATM    1  C           1     -35.278  -1.730 -12.608  0.00  0.00     0.243 C 
HETATM    2  N           1     -34.809  -1.215 -13.785  0.00  0.00    -0.345 N 
HETATM    3  H           1     -33.853  -1.389 -14.069  0.00  0.00     0.163 HD
HETATM    4  O           1     -36.419  -1.523 -12.269  0.00  0.00    -0.272 OA
ENDROOT
BRANCH   1   5
HETATM    5  C           1     -34.370  -2.558 -11.731  0.00  0.00     0.332 C 
BRANCH   5   6
HETATM    6  N           1     -33.695  -1.670 -10.729  0.00  0.00    -0.071 N 
HETATM    7  H           1     -34.411  -1.078 -10.251  0.00  0.00     0.274 HD
HETATM    8  H           1     -33.200  -2.257 -10.021  0.00  0.00     0.274 HD
HETATM    9  H           1     -33.005  -1.056 -11.217  0.00  0.00     0.274 HD
ENDBRANCH   5   6
ENDBRANCH   1   5
BRANCH   2  10
HETATM   10  C           1     -35.681  -0.419 -14.627  0.00  0.00     0.181 C 
HETATM   11  C           1     -35.169   1.014 -14.677  0.00  0.00     0.043 C 
BRANCH  10  12
HETATM   12  C           1     -35.698  -0.997 -16.022  0.00  0.00     0.196 C 
HETATM   13  O           1     -36.351  -0.432 -16.925  0.00  0.00    -0.646 OA
HETATM   14  O           1     -35.058  -2.041 -16.273  0.00  0.00    -0.646 OA
ENDBRANCH  10  12
ENDBRANCH   2  10
TORSDOF 4
ENDMDL
MODEL 4
REMARK VINA RESULT:      -4.9     12.164     13.167
REMARK  4 active torsions:
REMARK  status: ('A' for Active; 'I' for Inactive)
REMARK    1  A    between atoms: N_1  and  C_9 
REMARK       I    between atoms: C_2  and  N_3 
REMARK    2  A    between atoms: C_2  and  C_9 
REMARK    3  A    between atoms: N_3  and  C_6 
REMARK    4  A    between atoms: C_6  and  C_8 
ROOT
HETATM    1  C           1     -37.269   0.048 -10.817  0.00  0.00     0.243 C 
HETATM    2  N           1     -36.067   0.315 -11.415  0.00  0.00    -0.345 N 
HETATM    3  H           1     -35.418   0.959 -10.981  0.00  0.00     0.163 HD
HETATM    4  O           1     -38.044  -0.721 -11.335  0.00  0.00    -0.272 OA
ENDROOT
BRANCH   1   5
HETATM    5  C           1     -37.626   0.715  -9.511  0.00  0.00     0.332 C 
BRANCH   5   6
HETATM    6  N           1     -36.393   1.311  -8.899  0.00  0.00    -0.071 N 
HETATM    7  H           1     -35.549   0.953  -9.399  0.00  0.00     0.274 HD
HETATM    8  H           1     -36.433   2.352  -8.982  0.00  0.00     0.274 HD
HETATM    9  H           1     -36.341   1.043  -7.891  0.00  0.00     0.274 HD
ENDBRANCH   5   6
ENDBRANCH   1   5
BRANCH   2  10
HETATM   10  C           1     -35.724  -0.325 -12.670  0.00  0.00     0.181 C 
HETATM   11  C           1     -35.022   0.678 -13.576  0.00  0.00     0.043 C 
BRANCH  10  12
HETATM   12  C           1     -34.804  -1.493 -12.404  0.00  0.00     0.196 C 
HETATM   13  O           1     -34.150  -1.543 -11.340  0.00  0.00    -0.646 OA
HETATM   14  O           1     -34.698  -2.409 -13.247  0.00  0.00    -0.646 OA
ENDBRANCH  10  12
ENDBRANCH   2  10
TORSDOF 4
ENDMDL
MODEL 5
REMARK VINA RESULT:      -4.8     11.291     12.318
REMARK  4 active torsions:
REMARK  status: ('A' for Active; 'I' for Inactive)
REMARK    1  A    between atoms: N_1  and  C_9 
REMARK       I    between atoms: C_2  and  N_3 
REMARK    2  A    between atoms: C_2  and  C_9 
REMARK    3  A    between atoms: N_3  and  C_6 
REMARK    4  A    between atoms: C_6  and  C_8 
ROOT
HETATM    1  C           1     -34.182  -2.170 -11.962  0.00  0.00     0.243 C 
HETATM    2  N           1     -34.782  -1.529 -13.011  0.00  0.00    -0.345 N 
HETATM    3  H           1     -34.864  -1.991 -13.907  0.00  0.00     0.163 HD
HETATM    4  O           1     -34.083  -1.618 -10.892  0.00  0.00    -0.272 OA
ENDROOT
BRANCH   1   5
HETATM    5  C           1     -33.642  -3.569 -12.142  0.00  0.00     0.332 C 
BRANCH   5   6
HETATM    6  N           1     -33.780  -3.978 -13.578  0.00  0.00    -0.071 N 
HETATM    7  H           1     -34.705  -4.443 -13.720  0.00  0.00     0.274 HD
HETATM    8  H           1     -33.719  -3.132 -14.188  0.00  0.00     0.274 HD
HETATM    9  H           1     -33.014  -4.644 -13.825  0.00  0.00     0.274 HD
ENDBRANCH   5   6
ENDBRANCH   1   5
BRANCH   2  10
HETATM   10  C           1     -35.300  -0.185 -12.838  0.00  0.00     0.181 C 
HETATM   11  C           1     -34.888   0.674 -14.027  0.00  0.00     0.043 C 
BRANCH  10  12
HETATM   12  C           1     -36.806  -0.235 -12.750  0.00  0.00     0.196 C 
HETATM   13  O           1     -37.390   0.229 -11.747  0.00  0.00    -0.646 OA
HETATM   14  O           1     -37.469  -0.740 -13.682  0.00  0.00    -0.646 OA
ENDBRANCH  10  12
ENDBRANCH   2  10
TORSDOF 4
ENDMDL
MODEL 6
REMARK VINA RESULT:      -4.7      7.621      8.880
REMARK  4 active torsions:
REMARK  status: ('A' for Active; 'I' for Inactive)
REMARK    1  A    between atoms: N_1  and  C_9 
REMARK       I    between atoms: C_2  and  N_3 
REMARK    2  A    between atoms: C_2  and  C_9 
REMARK    3  A    between atoms: N_3  and  C_6 
REMARK    4  A    between atoms: C_6  and  C_8 
ROOT
HETATM    1  C           1     -27.383  -7.062 -15.890  0.00  0.00     0.243 C 
HETATM    2  N           1     -28.090  -6.827 -17.038  0.00  0.00    -0.345 N 
HETATM    3  H           1     -27.646  -6.363 -17.820  0.00  0.00     0.163 HD
HETATM    4  O           1     -27.913  -7.616 -14.956  0.00  0.00    -0.272 OA
ENDROOT
BRANCH   1   5
HETATM    5  C           1     -25.940  -6.629 -15.791  0.00  0.00     0.332 C 
BRANCH   5   6
HETATM    6  N           1     -25.198  -7.075 -17.015  0.00  0.00    -0.071 N 
HETATM    7  H           1     -25.862  -7.539 -17.675  0.00  0.00     0.274 HD
HETATM    8  H           1     -24.766  -6.246 -17.481  0.00  0.00     0.274 HD
HETATM    9  H           1     -24.450  -7.752 -16.742  0.00  0.00     0.274 HD
ENDBRANCH   5   6
ENDBRANCH   1   5
BRANCH   2  10
HETATM   10  C           1     -29.476  -7.242 -17.133  0.00  0.00     0.181 C 
HETATM   11  C           1     -30.383  -6.053 -16.844  0.00  0.00     0.043 C 
BRANCH  10  12
HETATM   12  C           1     -29.751  -7.759 -18.525  0.00  0.00     0.196 C 
HETATM   13  O           1     -30.906  -8.116 -18.842  0.00  0.00    -0.646 OA
HETATM   14  O           1     -28.823  -7.828 -19.360  0.00  0.00    -0.646 OA
ENDBRANCH  10  12
ENDBRANCH   2  10
TORSDOF 4
ENDMDL
MODEL 7
REMARK VINA RESULT:      -4.7     11.004     11.909
REMARK  4 active torsions:
REMARK  status: ('A' for Active; 'I' for Inactive)
REMARK    1  A    between atoms: N_1  and  C_9 
REMARK       I    between atoms: C_2  and  N_3 
REMARK    2  A    between atoms: C_2  and  C_9 
REMARK    3  A    between atoms: N_3  and  C_6 
REMARK    4  A    between atoms: C_6  and  C_8 
ROOT
HETATM    1  C           1     -35.554  -1.229 -11.387  0.00  0.00     0.243 C 
HETATM    2  N           1     -35.247  -2.557 -11.512  0.00  0.00    -0.345 N 
HETATM    3  H           1     -35.842  -3.256 -11.087  0.00  0.00     0.163 HD
HETATM    4  O           1     -34.844  -0.394 -11.896  0.00  0.00    -0.272 OA
ENDROOT
BRANCH   1   5
HETATM    5  C           1     -36.780  -0.807 -10.615  0.00  0.00     0.332 C 
BRANCH   5   6
HETATM    6  N           1     -36.563   0.560 -10.038  0.00  0.00    -0.071 N 
HETATM    7  H           1     -36.092   1.166 -10.747  0.00  0.00     0.274 HD
HETATM    8  H           1     -37.484   0.979  -9.779  0.00  0.00     0.274 HD
HETATM    9  H           1     -35.960   0.487  -9.188  0.00  0.00     0.274 HD
ENDBRANCH   5   6
ENDBRANCH   1   5
BRANCH   2  10
HETATM   10  C           1     -34.069  -2.962 -12.255  0.00  0.00     0.181 C 
HETATM   11  C           1     -33.038  -3.540 -11.294  0.00  0.00     0.043 C 
BRANCH  10  12
HETATM   12  C           1     -34.452  -4.008 -13.273  0.00  0.00     0.196 C 
HETATM   13  O           1     -34.180  -3.835 -14.481  0.00  0.00    -0.646 OA
HETATM   14  O           1     -35.041  -5.049 -12.908  0.00  0.00    -0.646 OA
ENDBRANCH  10  12
ENDBRANCH   2  10
TORSDOF 4
ENDMDL
MODEL 8
REMARK VINA RESULT:      -4.7     11.106     11.842
REMARK  4 active torsions:
REMARK  status: ('A' for Active; 'I' for Inactive)
REMARK    1  A    between atoms: N_1  and  C_9 
REMARK       I    between atoms: C_2  and  N_3 
REMARK    2  A    between atoms: C_2  and  C_9 
REMARK    3  A    between atoms: N_3  and  C_6 
REMARK    4  A    between atoms: C_6  and  C_8 
ROOT
HETATM    1  C           1     -35.656  -0.935 -12.858  0.00  0.00     0.243 C 
HETATM    2  N           1     -35.393  -1.985 -12.022  0.00  0.00    -0.345 N 
HETATM    3  H           1     -36.069  -2.254 -11.318  0.00  0.00     0.163 HD
HETATM    4  O           1     -34.850  -0.615 -13.699  0.00  0.00    -0.272 OA
ENDROOT
BRANCH   1   5
HETATM    5  C           1     -36.955  -0.175 -12.731  0.00  0.00     0.332 C 
BRANCH   5   6
HETATM    6  N           1     -37.441   0.217 -14.095  0.00  0.00    -0.071 N 
HETATM    7  H           1     -37.079   1.167 -14.333  0.00  0.00     0.274 HD
HETATM    8  H           1     -37.097  -0.474 -14.798  0.00  0.00     0.274 HD
HETATM    9  H           1     -38.486   0.230 -14.101  0.00  0.00     0.274 HD
ENDBRANCH   5   6
ENDBRANCH   1   5
BRANCH   2  10
HETATM   10  C           1     -34.146  -2.715 -12.145  0.00  0.00     0.181 C 
HETATM   11  C           1     -33.675  -3.150 -10.763  0.00  0.00     0.043 C 
BRANCH  10  12
HETATM   12  C           1     -34.359  -3.933 -13.011  0.00  0.00     0.196 C 
HETATM   13  O           1     -34.737  -5.008 -12.497  0.00  0.00    -0.646 OA
HETATM   14  O           1     -34.158  -3.866 -14.243  0.00  0.00    -0.646 OA
ENDBRANCH  10  12
ENDBRANCH   2  10
TORSDOF 4
ENDMDL
MODEL 9
REMARK VINA RESULT:      -4.6      3.758      5.858
REMARK  4 active torsions:
REMARK  status: ('A' for Active; 'I' for Inactive)
REMARK    1  A    between atoms: N_1  and  C_9 
REMARK       I    between atoms: C_2  and  N_3 
REMARK    2  A    between atoms: C_2  and  C_9 
REMARK    3  A    between atoms: N_3  and  C_6 
REMARK    4  A    between atoms: C_6  and  C_8 
ROOT
HETATM    1  C           1     -21.726  -4.488  -7.742  0.00  0.00     0.243 C 
HETATM    2  N           1     -22.268  -4.723  -8.975  0.00  0.00    -0.345 N 
HETATM    3  H           1     -22.404  -5.673  -9.296  0.00  0.00     0.163 HD
HETATM    4  O           1     -21.565  -3.353  -7.358  0.00  0.00    -0.272 OA
ENDROOT
BRANCH   1   5
HETATM    5  C           1     -21.330  -5.646  -6.858  0.00  0.00     0.332 C 
BRANCH   5   6
HETATM    6  N           1     -20.048  -6.243  -7.360  0.00  0.00    -0.071 N 
HETATM    7  H           1     -20.234  -6.774  -8.240  0.00  0.00     0.274 HD
HETATM    8  H           1     -19.361  -5.480  -7.552  0.00  0.00     0.274 HD
HETATM    9  H           1     -19.660  -6.890  -6.638  0.00  0.00     0.274 HD
ENDBRANCH   5   6
ENDBRANCH   1   5
BRANCH   2  10
HETATM   10  C           1     -22.649  -3.610  -9.824  0.00  0.00     0.181 C 
HETATM   11  C           1     -21.717  -3.548 -11.027  0.00  0.00     0.043 C 
BRANCH  10  12
HETATM   12  C           1     -24.070  -3.801 -10.297  0.00  0.00     0.196 C 
HETATM   13  O           1     -24.739  -4.775  -9.887  0.00  0.00    -0.646 OA
HETATM   14  O           1     -24.577  -2.986 -11.097  0.00  0.00    -0.646 OA
ENDBRANCH  10  12
ENDBRANCH   2  10
TORSDOF 4
ENDMDL
