MODEL 1
REMARK VINA RESULT:      -7.4      0.000      0.000
REMARK  11 active torsions:
REMARK  status: ('A' for Active; 'I' for Inactive)
REMARK    1  A    between atoms: N_3  and  C_9 
REMARK    2  A    between atoms: C_7  and  C_15 
REMARK    3  A    between atoms: C_7  and  C_19 
REMARK    4  A    between atoms: C_7  and  N_27 
REMARK    5  A    between atoms: C_8  and  C_11 
REMARK    6  A    between atoms: C_9  and  C_14 
REMARK    7  A    between atoms: N_10  and  C_11 
REMARK       I    between atoms: N_10  and  C_15 
REMARK    8  A    between atoms: C_11  and  C_12 
REMARK    9  A    between atoms: C_12  and  C_13 
REMARK   10  A    between atoms: C_13  and  C_14 
REMARK   11  A    between atoms: C_18  and  C_19 
ROOT
HETATM    1  H           1     -22.023  -5.720  -9.626  0.00  0.00     0.163 HD
HETATM    2  N           1     -22.172  -4.809  -9.209  0.00  0.00    -0.345 N 
HETATM    3  C           1     -21.766  -4.570  -7.924  0.00  0.00     0.249 C 
HETATM    4  O           1     -21.944  -3.484  -7.426  0.00  0.00    -0.271 OA
ENDROOT
BRANCH   2   5
HETATM    5  C           1     -22.817  -3.759  -9.973  0.00  0.00     0.185 C 
BRANCH   5   6
HETATM    6  C           1     -24.313  -3.850  -9.787  0.00  0.00     0.196 C 
HETATM    7  O           1     -24.887  -4.957  -9.873  0.00  0.00    -0.646 OA
HETATM    8  O           1     -24.976  -2.819  -9.544  0.00  0.00    -0.646 OA
ENDBRANCH   5   6
BRANCH   5   9
HETATM    9  C           1     -22.480  -3.923 -11.449  0.00  0.00     0.036 C 
BRANCH   9  10
HETATM   10  C           1     -22.615  -2.580 -12.153  0.00  0.00     0.004 C 
BRANCH  10  11
HETATM   11  C           1     -23.781  -2.634 -13.131  0.00  0.00     0.027 C 
BRANCH  11  12
HETATM   12  C           1     -23.361  -2.014 -14.458  0.00  0.00     0.229 C 
BRANCH  12  13
HETATM   13  N           1     -24.159  -0.768 -14.702  0.00  0.00    -0.079 N 
HETATM   14  H           1     -23.941  -0.395 -15.655  0.00  0.00     0.274 HD
HETATM   15  H           1     -25.178  -0.988 -14.640  0.00  0.00     0.274 HD
HETATM   16  H           1     -23.912  -0.049 -13.984  0.00  0.00     0.274 HD
ENDBRANCH  12  13
ENDBRANCH  11  12
ENDBRANCH  10  11
ENDBRANCH   9  10
ENDBRANCH   5   9
ENDBRANCH   2   5
BRANCH   3  17
HETATM   17  C           1     -21.095  -5.663  -7.129  0.00  0.00     0.278 C 
BRANCH  17  18
HETATM   18  C           1     -20.875  -5.189  -5.698  0.00  0.00     0.081 C 
BRANCH  18  19
HETATM   19  C           1     -21.126  -6.323  -4.753  0.00  0.00    -0.056 A 
HETATM   20  C           1     -21.229  -6.078  -3.383  0.00  0.00     0.007 A 
HETATM   21  C           1     -21.463  -7.134  -2.502  0.00  0.00     0.001 A 
HETATM   22  C           1     -21.593  -8.434  -2.991  0.00  0.00     0.000 A 
HETATM   23  C           1     -21.489  -8.678  -4.360  0.00  0.00     0.001 A 
HETATM   24  C           1     -21.255  -7.623  -5.241  0.00  0.00     0.007 A 
ENDBRANCH  18  19
ENDBRANCH  17  18
BRANCH  17  25
HETATM   25  N           1     -19.771  -5.993  -7.754  0.00  0.00    -0.066 N 
HETATM   26  H           1     -19.842  -5.898  -8.792  0.00  0.00     0.275 HD
HETATM   27  H           1     -19.507  -6.975  -7.511  0.00  0.00     0.275 HD
HETATM   28  H           1     -19.043  -5.336  -7.393  0.00  0.00     0.275 HD
ENDBRANCH  17  25
ENDBRANCH   3  17
TORSDOF 11
ENDMDL
MODEL 2
REMARK VINA RESULT:      -7.1      3.453      8.920
REMARK  11 active torsions:
REMARK  status: ('A' for Active; 'I' for Inactive)
REMARK    1  A    between atoms: N_3  and  C_9 
REMARK    2  A    between atoms: C_7  and  C_15 
REMARK    3  A    between atoms: C_7  and  C_19 
REMARK    4  A    between atoms: C_7  and  N_27 
REMARK    5  A    between atoms: C_8  and  C_11 
REMARK    6  A    between atoms: C_9  and  C_14 
REMARK    7  A    between atoms: N_10  and  C_11 
REMARK       I    between atoms: N_10  and  C_15 
REMARK    8  A    between atoms: C_11  and  C_12 
REMARK    9  A    between atoms: C_12  and  C_13 
REMARK   10  A    between atoms: C_13  and  C_14 
REMARK   11  A    between atoms: C_18  and  C_19 
ROOT
HETATM    1  H           1     -23.134  -6.468  -4.622  0.00  0.00     0.163 HD
HETATM    2  N           1     -22.155  -6.241  -4.501  0.00  0.00    -0.345 N 
HETATM    3  C           1     -21.485  -5.558  -5.480  0.00  0.00     0.249 C 
HETATM    4  O           1     -20.316  -5.288  -5.338  0.00  0.00    -0.271 OA
ENDROOT
BRANCH   2   5
HETATM    5  C           1     -21.461  -6.642  -3.293  0.00  0.00     0.185 C 
BRANCH   5   6
HETATM    6  C           1     -21.069  -8.096  -3.398  0.00  0.00     0.196 C 
HETATM    7  O           1     -19.896  -8.447  -3.146  0.00  0.00    -0.646 OA
HETATM    8  O           1     -21.917  -8.949  -3.736  0.00  0.00    -0.646 OA
ENDBRANCH   5   6
BRANCH   5   9
HETATM    9  C           1     -22.378  -6.450  -2.093  0.00  0.00     0.036 C 
BRANCH   9  10
HETATM   10  C           1     -21.740  -7.075  -0.860  0.00  0.00     0.004 C 
BRANCH  10  11
HETATM   11  C           1     -22.774  -7.913  -0.121  0.00  0.00     0.027 C 
BRANCH  11  12
HETATM   12  C           1     -22.284  -9.352  -0.018  0.00  0.00     0.229 C 
BRANCH  12  13
HETATM   13  N           1     -22.959 -10.186  -1.065  0.00  0.00    -0.079 N 
HETATM   14  H           1     -23.510 -10.946  -0.604  0.00  0.00     0.274 HD
HETATM   15  H           1     -23.600  -9.585  -1.630  0.00  0.00     0.274 HD
HETATM   16  H           1     -22.237 -10.612  -1.690  0.00  0.00     0.274 HD
ENDBRANCH  12  13
ENDBRANCH  11  12
ENDBRANCH  10  11
ENDBRANCH   9  10
ENDBRANCH   5   9
ENDBRANCH   2   5
BRANCH   3  17
HETATM   17  C           1     -22.207  -5.142  -6.738  0.00  0.00     0.278 C 
BRANCH  17  18
HETATM   18  C           1     -21.566  -3.878  -7.297  0.00  0.00     0.081 C 
BRANCH  18  19
HETATM   19  C           1     -21.515  -3.963  -8.792  0.00  0.00    -0.056 A 
HETATM   20  C           1     -20.325  -4.313  -9.430  0.00  0.00     0.007 A 
HETATM   21  C           1     -20.278  -4.392 -10.822  0.00  0.00     0.001 A 
HETATM   22  C           1     -21.420  -4.120 -11.575  0.00  0.00     0.000 A 
HETATM   23  C           1     -22.609  -3.769 -10.937  0.00  0.00     0.001 A 
HETATM   24  C           1     -22.657  -3.690  -9.545  0.00  0.00     0.007 A 
ENDBRANCH  18  19
ENDBRANCH  17  18
BRANCH  17  25
HETATM   25  N           1     -23.648  -4.871  -6.420  0.00  0.00    -0.066 N 
HETATM   26  H           1     -23.788  -4.901  -5.386  0.00  0.00     0.275 HD
HETATM   27  H           1     -24.247  -5.597  -6.874  0.00  0.00     0.275 HD
HETATM   28  H           1     -23.912  -3.926  -6.780  0.00  0.00     0.275 HD
ENDBRANCH  17  25
ENDBRANCH   3  17
TORSDOF 11
ENDMDL
MODEL 3
REMARK VINA RESULT:      -7.1     12.230     15.681
REMARK  11 active torsions:
REMARK  status: ('A' for Active; 'I' for Inactive)
REMARK    1  A    between atoms: N_3  and  C_9 
REMARK    2  A    between atoms: C_7  and  C_15 
REMARK    3  A    between atoms: C_7  and  C_19 
REMARK    4  A    between atoms: C_7  and  N_27 
REMARK    5  A    between atoms: C_8  and  C_11 
REMARK    6  A    between atoms: C_9  and  C_14 
REMARK    7  A    between atoms: N_10  and  C_11 
REMARK       I    between atoms: N_10  and  C_15 
REMARK    8  A    between atoms: C_11  and  C_12 
REMARK    9  A    between atoms: C_12  and  C_13 
REMARK   10  A    between atoms: C_13  and  C_14 
REMARK   11  A    between atoms: C_18  and  C_19 
ROOT
HETATM    1  H           1     -35.445  -2.469 -12.855  0.00  0.00     0.163 HD
HETATM    2  N           1     -35.091  -2.463 -11.907  0.00  0.00    -0.345 N 
HETATM    3  C           1     -35.364  -1.406 -11.081  0.00  0.00     0.249 C 
HETATM    4  O           1     -34.941  -1.398  -9.950  0.00  0.00    -0.271 OA
ENDROOT
BRANCH   2   5
HETATM    5  C           1     -34.293  -3.573 -11.423  0.00  0.00     0.185 C 
BRANCH   5   6
HETATM    6  C           1     -33.320  -3.997 -12.497  0.00  0.00     0.196 C 
HETATM    7  O           1     -33.641  -3.909 -13.702  0.00  0.00    -0.646 OA
HETATM    8  O           1     -32.193  -4.435 -12.181  0.00  0.00    -0.646 OA
ENDBRANCH   5   6
BRANCH   5   9
HETATM    9  C           1     -35.205  -4.742 -11.076  0.00  0.00     0.036 C 
BRANCH   9  10
HETATM   10  C           1     -34.443  -5.746 -10.223  0.00  0.00     0.004 C 
BRANCH  10  11
HETATM   11  C           1     -34.640  -7.147 -10.788  0.00  0.00     0.027 C 
BRANCH  11  12
HETATM   12  C           1     -34.362  -8.177  -9.701  0.00  0.00     0.229 C 
BRANCH  12  13
HETATM   13  N           1     -33.404  -9.207 -10.222  0.00  0.00    -0.079 N 
HETATM   14  H           1     -33.426 -10.049  -9.602  0.00  0.00     0.274 HD
HETATM   15  H           1     -33.681  -9.482 -11.191  0.00  0.00     0.274 HD
HETATM   16  H           1     -32.438  -8.810 -10.233  0.00  0.00     0.274 HD
ENDBRANCH  12  13
ENDBRANCH  11  12
ENDBRANCH  10  11
ENDBRANCH   9  10
ENDBRANCH   5   9
ENDBRANCH   2   5
BRANCH   3  17
HETATM   17  C           1     -36.194  -0.251 -11.585  0.00  0.00     0.278 C 
BRANCH  17  18
HETATM   18  C           1     -35.465   0.436 -12.733  0.00  0.00     0.081 C 
BRANCH  18  19
HETATM   19  C           1     -36.095   0.039 -14.033  0.00  0.00    -0.056 A 
HETATM   20  C           1     -37.484   0.041 -14.164  0.00  0.00     0.007 A 
HETATM   21  C           1     -38.070  -0.328 -15.374  0.00  0.00     0.001 A 
HETATM   22  C           1     -37.268  -0.700 -16.453  0.00  0.00     0.000 A 
HETATM   23  C           1     -35.880  -0.704 -16.321  0.00  0.00     0.001 A 
HETATM   24  C           1     -35.293  -0.335 -15.111  0.00  0.00     0.007 A 
ENDBRANCH  18  19
ENDBRANCH  17  18
BRANCH  17  25
HETATM   25  N           1     -36.409   0.732 -10.472  0.00  0.00    -0.066 N 
HETATM   26  H           1     -35.533   1.281 -10.318  0.00  0.00     0.275 HD
HETATM   27  H           1     -36.656   0.218  -9.596  0.00  0.00     0.275 HD
HETATM   28  H           1     -37.186   1.382 -10.727  0.00  0.00     0.275 HD
ENDBRANCH  17  25
ENDBRANCH   3  17
TORSDOF 11
ENDMDL
MODEL 4
REMARK VINA RESULT:      -7.1     12.668     15.164
REMARK  11 active torsions:
REMARK  status: ('A' for Active; 'I' for Inactive)
REMARK    1  A    between atoms: N_3  and  C_9 
REMARK    2  A    between atoms: C_7  and  C_15 
REMARK    3  A    between atoms: C_7  and  C_19 
REMARK    4  A    between atoms: C_7  and  N_27 
REMARK    5  A    between atoms: C_8  and  C_11 
REMARK    6  A    between atoms: C_9  and  C_14 
REMARK    7  A    between atoms: N_10  and  C_11 
REMARK       I    between atoms: N_10  and  C_15 
REMARK    8  A    between atoms: C_11  and  C_12 
REMARK    9  A    between atoms: C_12  and  C_13 
REMARK   10  A    between atoms: C_13  and  C_14 
REMARK   11  A    between atoms: C_18  and  C_19 
ROOT
HETATM    1  H           1     -35.495  -2.879 -11.436  0.00  0.00     0.163 HD
HETATM    2  N           1     -34.953  -2.442 -12.171  0.00  0.00    -0.345 N 
HETATM    3  C           1     -35.225  -1.155 -12.549  0.00  0.00     0.249 C 
HETATM    4  O           1     -34.581  -0.633 -13.426  0.00  0.00    -0.271 OA
ENDROOT
BRANCH   2   5
HETATM    5  C           1     -33.891  -3.180 -12.826  0.00  0.00     0.185 C 
BRANCH   5   6
HETATM    6  C           1     -34.469  -3.993 -13.959  0.00  0.00     0.196 C 
HETATM    7  O           1     -35.042  -5.078 -13.721  0.00  0.00    -0.646 OA
HETATM    8  O           1     -34.377  -3.581 -15.135  0.00  0.00    -0.646 OA
ENDBRANCH   5   6
BRANCH   5   9
HETATM    9  C           1     -33.225  -4.111 -11.823  0.00  0.00     0.036 C 
BRANCH   9  10
HETATM   10  C           1     -33.975  -4.053 -10.499  0.00  0.00     0.004 C 
BRANCH  10  11
HETATM   11  C           1     -34.966  -5.206 -10.425  0.00  0.00     0.027 C 
BRANCH  11  12
HETATM   12  C           1     -34.209  -6.528 -10.413  0.00  0.00     0.229 C 
BRANCH  12  13
HETATM   13  N           1     -35.036  -7.572  -9.724  0.00  0.00    -0.079 N 
HETATM   14  H           1     -35.062  -8.439 -10.309  0.00  0.00     0.274 HD
HETATM   15  H           1     -34.615  -7.793  -8.794  0.00  0.00     0.274 HD
HETATM   16  H           1     -36.009  -7.215  -9.591  0.00  0.00     0.274 HD
ENDBRANCH  12  13
ENDBRANCH  11  12
ENDBRANCH  10  11
ENDBRANCH   9  10
ENDBRANCH   5   9
ENDBRANCH   2   5
BRANCH   3  17
HETATM   17  C           1     -36.332  -0.387 -11.867  0.00  0.00     0.278 C 
BRANCH  17  18
HETATM   18  C           1     -36.743  -1.113 -10.592  0.00  0.00     0.081 C 
BRANCH  18  19
HETATM   19  C           1     -36.993  -0.113  -9.506  0.00  0.00    -0.056 A 
HETATM   20  C           1     -36.387  -0.271  -8.259  0.00  0.00     0.007 A 
HETATM   21  C           1     -36.620   0.660  -7.248  0.00  0.00     0.001 A 
HETATM   22  C           1     -37.457   1.750  -7.483  0.00  0.00     0.000 A 
HETATM   23  C           1     -38.064   1.908  -8.729  0.00  0.00     0.001 A 
HETATM   24  C           1     -37.831   0.977  -9.741  0.00  0.00     0.007 A 
ENDBRANCH  18  19
ENDBRANCH  17  18
BRANCH  17  25
HETATM   25  N           1     -37.512  -0.290 -12.788  0.00  0.00    -0.066 N 
HETATM   26  H           1     -37.233  -0.597 -13.746  0.00  0.00     0.275 HD
HETATM   27  H           1     -37.846   0.700 -12.823  0.00  0.00     0.275 HD
HETATM   28  H           1     -38.280  -0.905 -12.436  0.00  0.00     0.275 HD
ENDBRANCH  17  25
ENDBRANCH   3  17
TORSDOF 11
ENDMDL
MODEL 5
REMARK VINA RESULT:      -7.0     12.101     14.053
REMARK  11 active torsions:
REMARK  status: ('A' for Active; 'I' for Inactive)
REMARK    1  A    between atoms: N_3  and  C_9 
REMARK    2  A    between atoms: C_7  and  C_15 
REMARK    3  A    between atoms: C_7  and  C_19 
REMARK    4  A    between atoms: C_7  and  N_27 
REMARK    5  A    between atoms: C_8  and  C_11 
REMARK    6  A    between atoms: C_9  and  C_14 
REMARK    7  A    between atoms: N_10  and  C_11 
REMARK       I    between atoms: N_10  and  C_15 
REMARK    8  A    between atoms: C_11  and  C_12 
REMARK    9  A    between atoms: C_12  and  C_13 
REMARK   10  A    between atoms: C_13  and  C_14 
REMARK   11  A    between atoms: C_18  and  C_19 
ROOT
HETATM    1  H           1     -32.454  -3.644 -14.144  0.00  0.00     0.163 HD
HETATM    2  N           1     -33.385  -4.042 -14.145  0.00  0.00    -0.345 N 
HETATM    3  C           1     -33.905  -4.563 -15.299  0.00  0.00     0.249 C 
HETATM    4  O           1     -35.015  -5.037 -15.302  0.00  0.00    -0.271 OA
ENDROOT
BRANCH   2   5
HETATM    5  C           1     -34.168  -4.059 -12.926  0.00  0.00     0.185 C 
BRANCH   5   6
HETATM    6  C           1     -34.932  -2.762 -12.802  0.00  0.00     0.196 C 
HETATM    7  O           1     -34.767  -1.857 -13.648  0.00  0.00    -0.646 OA
HETATM    8  O           1     -35.729  -2.595 -11.855  0.00  0.00    -0.646 OA
ENDBRANCH   5   6
BRANCH   5   9
HETATM    9  C           1     -33.242  -4.217 -11.728  0.00  0.00     0.036 C 
BRANCH   9  10
HETATM   10  C           1     -33.941  -5.029 -10.647  0.00  0.00     0.004 C 
BRANCH  10  11
HETATM   11  C           1     -34.435  -6.343 -11.237  0.00  0.00     0.027 C 
BRANCH  11  12
HETATM   12  C           1     -34.606  -7.368 -10.123  0.00  0.00     0.229 C 
BRANCH  12  13
HETATM   13  N           1     -33.679  -8.524 -10.360  0.00  0.00    -0.079 N 
HETATM   14  H           1     -34.239  -9.392 -10.521  0.00  0.00     0.274 HD
HETATM   15  H           1     -33.088  -8.330 -11.199  0.00  0.00     0.274 HD
HETATM   16  H           1     -33.066  -8.656  -9.524  0.00  0.00     0.274 HD
ENDBRANCH  12  13
ENDBRANCH  11  12
ENDBRANCH  10  11
ENDBRANCH   9  10
ENDBRANCH   5   9
ENDBRANCH   2   5
BRANCH   3  17
HETATM   17  C           1     -33.089  -4.545 -16.569  0.00  0.00     0.278 C 
BRANCH  17  18
HETATM   18  C           1     -31.608  -4.470 -16.220  0.00  0.00     0.081 C 
BRANCH  18  19
HETATM   19  C           1     -30.905  -5.675 -16.766  0.00  0.00    -0.056 A 
HETATM   20  C           1     -31.520  -6.458 -17.743  0.00  0.00     0.007 A 
HETATM   21  C           1     -30.866  -7.580 -18.252  0.00  0.00     0.001 A 
HETATM   22  C           1     -29.596  -7.918 -17.783  0.00  0.00     0.000 A 
HETATM   23  C           1     -28.982  -7.136 -16.806  0.00  0.00     0.001 A 
HETATM   24  C           1     -29.636  -6.014 -16.297  0.00  0.00     0.007 A 
ENDBRANCH  18  19
ENDBRANCH  17  18
BRANCH  17  25
HETATM   25  N           1     -33.469  -3.348 -17.390  0.00  0.00    -0.066 N 
HETATM   26  H           1     -33.281  -3.542 -18.399  0.00  0.00     0.275 HD
HETATM   27  H           1     -32.906  -2.522 -17.083  0.00  0.00     0.275 HD
HETATM   28  H           1     -34.486  -3.145 -17.259  0.00  0.00     0.275 HD
ENDBRANCH  17  25
ENDBRANCH   3  17
TORSDOF 11
ENDMDL
MODEL 6
REMARK VINA RESULT:      -7.0      3.423      8.541
REMARK  11 active torsions:
REMARK  status: ('A' for Active; 'I' for Inactive)
REMARK    1  A    between atoms: N_3  and  C_9 
REMARK    2  A    between atoms: C_7  and  C_15 
REMARK    3  A    between atoms: C_7  and  C_19 
REMARK    4  A    between atoms: C_7  and  N_27 
REMARK    5  A    between atoms: C_8  and  C_11 
REMARK    6  A    between atoms: C_9  and  C_14 
REMARK    7  A    between atoms: N_10  and  C_11 
REMARK       I    between atoms: N_10  and  C_15 
REMARK    8  A    between atoms: C_11  and  C_12 
REMARK    9  A    between atoms: C_12  and  C_13 
REMARK   10  A    between atoms: C_13  and  C_14 
REMARK   11  A    between atoms: C_18  and  C_19 
ROOT
HETATM    1  H           1     -22.490  -6.842  -4.875  0.00  0.00     0.163 HD
HETATM    2  N           1     -21.555  -7.027  -5.216  0.00  0.00    -0.345 N 
HETATM    3  C           1     -21.106  -6.408  -6.351  0.00  0.00     0.249 C 
HETATM    4  O           1     -19.992  -6.629  -6.761  0.00  0.00    -0.271 OA
ENDROOT
BRANCH   2   5
HETATM    5  C           1     -20.692  -7.950  -4.505  0.00  0.00     0.185 C 
BRANCH   5   6
HETATM    6  C           1     -21.120  -9.367  -4.802  0.00  0.00     0.196 C 
HETATM    7  O           1     -20.718  -9.938  -5.838  0.00  0.00    -0.646 OA
HETATM    8  O           1     -21.874  -9.970  -4.009  0.00  0.00    -0.646 OA
ENDBRANCH   5   6
BRANCH   5   9
HETATM    9  C           1     -20.796  -7.692  -3.008  0.00  0.00     0.036 C 
BRANCH   9  10
HETATM   10  C           1     -21.525  -6.377  -2.768  0.00  0.00     0.004 C 
BRANCH  10  11
HETATM   11  C           1     -22.277  -6.447  -1.446  0.00  0.00     0.027 C 
BRANCH  11  12
HETATM   12  C           1     -22.139  -7.845  -0.855  0.00  0.00     0.229 C 
BRANCH  12  13
HETATM   13  N           1     -23.019  -7.966   0.353  0.00  0.00    -0.079 N 
HETATM   14  H           1     -22.555  -7.508   1.171  0.00  0.00     0.274 HD
HETATM   15  H           1     -23.935  -7.498   0.167  0.00  0.00     0.274 HD
HETATM   16  H           1     -23.181  -8.976   0.567  0.00  0.00     0.274 HD
ENDBRANCH  12  13
ENDBRANCH  11  12
ENDBRANCH  10  11
ENDBRANCH   9  10
ENDBRANCH   5   9
ENDBRANCH   2   5
BRANCH   3  17
HETATM   17  C           1     -22.005  -5.448  -7.092  0.00  0.00     0.278 C 
BRANCH  17  18
HETATM   18  C           1     -21.196  -4.237  -7.539  0.00  0.00     0.081 C 
BRANCH  18  19
HETATM   19  C           1     -21.354  -4.047  -9.016  0.00  0.00    -0.056 A 
HETATM   20  C           1     -22.581  -3.637  -9.539  0.00  0.00     0.007 A 
HETATM   21  C           1     -22.729  -3.460 -10.914  0.00  0.00     0.001 A 
HETATM   22  C           1     -21.650  -3.694 -11.767  0.00  0.00     0.000 A 
HETATM   23  C           1     -20.424  -4.106 -11.245  0.00  0.00     0.001 A 
HETATM   24  C           1     -20.276  -4.282  -9.869  0.00  0.00     0.007 A 
ENDBRANCH  18  19
ENDBRANCH  17  18
BRANCH  17  25
HETATM   25  N           1     -23.113  -5.001  -6.186  0.00  0.00    -0.066 N 
HETATM   26  H           1     -23.569  -5.836  -5.754  0.00  0.00     0.275 HD
HETATM   27  H           1     -23.820  -4.465  -6.738  0.00  0.00     0.275 HD
HETATM   28  H           1     -22.722  -4.390  -5.433  0.00  0.00     0.275 HD
ENDBRANCH  17  25
ENDBRANCH   3  17
TORSDOF 11
ENDMDL
MODEL 7
REMARK VINA RESULT:      -7.0      2.308      3.215
REMARK  11 active torsions:
REMARK  status: ('A' for Active; 'I' for Inactive)
REMARK    1  A    between atoms: N_3  and  C_9 
REMARK    2  A    between atoms: C_7  and  C_15 
REMARK    3  A    between atoms: C_7  and  C_19 
REMARK    4  A    between atoms: C_7  and  N_27 
REMARK    5  A    between atoms: C_8  and  C_11 
REMARK    6  A    between atoms: C_9  and  C_14 
REMARK    7  A    between atoms: N_10  and  C_11 
REMARK       I    between atoms: N_10  and  C_15 
REMARK    8  A    between atoms: C_11  and  C_12 
REMARK    9  A    between atoms: C_12  and  C_13 
REMARK   10  A    between atoms: C_13  and  C_14 
REMARK   11  A    between atoms: C_18  and  C_19 
ROOT
HETATM    1  H           1     -21.879  -4.062  -6.672  0.00  0.00     0.163 HD
HETATM    2  N           1     -21.472  -4.788  -7.249  0.00  0.00    -0.345 N 
HETATM    3  C           1     -20.767  -5.808  -6.671  0.00  0.00     0.249 C 
HETATM    4  O           1     -20.280  -6.673  -7.359  0.00  0.00    -0.271 OA
ENDROOT
BRANCH   2   5
HETATM    5  C           1     -21.636  -4.745  -8.689  0.00  0.00     0.185 C 
BRANCH   5   6
HETATM    6  C           1     -20.345  -4.290  -9.328  0.00  0.00     0.196 C 
HETATM    7  O           1     -19.573  -3.532  -8.703  0.00  0.00    -0.646 OA
HETATM    8  O           1     -20.049  -4.673 -10.479  0.00  0.00    -0.646 OA
ENDBRANCH   5   6
BRANCH   5   9
HETATM    9  C           1     -22.748  -3.769  -9.046  0.00  0.00     0.036 C 
BRANCH   9  10
HETATM   10  C           1     -23.877  -4.517  -9.743  0.00  0.00     0.004 C 
BRANCH  10  11
HETATM   11  C           1     -23.497  -4.772 -11.195  0.00  0.00     0.027 C 
BRANCH  11  12
HETATM   12  C           1     -23.123  -3.455 -11.863  0.00  0.00     0.229 C 
BRANCH  12  13
HETATM   13  N           1     -21.890  -3.648 -12.694  0.00  0.00    -0.079 N 
HETATM   14  H           1     -21.043  -3.442 -12.116  0.00  0.00     0.274 HD
HETATM   15  H           1     -21.848  -4.636 -13.032  0.00  0.00     0.274 HD
HETATM   16  H           1     -21.916  -3.000 -13.514  0.00  0.00     0.274 HD
ENDBRANCH  12  13
ENDBRANCH  11  12
ENDBRANCH  10  11
ENDBRANCH   9  10
ENDBRANCH   5   9
ENDBRANCH   2   5
BRANCH   3  17
HETATM   17  C           1     -20.596  -5.852  -5.172  0.00  0.00     0.278 C 
BRANCH  17  18
HETATM   18  C           1     -21.932  -6.182  -4.519  0.00  0.00     0.081 C 
BRANCH  18  19
HETATM   19  C           1     -21.692  -6.814  -3.182  0.00  0.00    -0.056 A 
HETATM   20  C           1     -20.787  -7.869  -3.063  0.00  0.00     0.007 A 
HETATM   21  C           1     -20.563  -8.458  -1.819  0.00  0.00     0.001 A 
HETATM   22  C           1     -21.244  -7.992  -0.694  0.00  0.00     0.000 A 
HETATM   23  C           1     -22.150  -6.938  -0.814  0.00  0.00     0.001 A 
HETATM   24  C           1     -22.373  -6.349  -2.058  0.00  0.00     0.007 A 
ENDBRANCH  18  19
ENDBRANCH  17  18
BRANCH  17  25
HETATM   25  N           1     -20.119  -4.516  -4.685  0.00  0.00    -0.066 N 
HETATM   26  H           1     -20.896  -3.821  -4.757  0.00  0.00     0.275 HD
HETATM   27  H           1     -19.313  -4.199  -5.269  0.00  0.00     0.275 HD
HETATM   28  H           1     -19.817  -4.597  -3.687  0.00  0.00     0.275 HD
ENDBRANCH  17  25
ENDBRANCH   3  17
TORSDOF 11
ENDMDL
MODEL 8
REMARK VINA RESULT:      -7.0     11.893     13.592
REMARK  11 active torsions:
REMARK  status: ('A' for Active; 'I' for Inactive)
REMARK    1  A    between atoms: N_3  and  C_9 
REMARK    2  A    between atoms: C_7  and  C_15 
REMARK    3  A    between atoms: C_7  and  C_19 
REMARK    4  A    between atoms: C_7  and  N_27 
REMARK    5  A    between atoms: C_8  and  C_11 
REMARK    6  A    between atoms: C_9  and  C_14 
REMARK    7  A    between atoms: N_10  and  C_11 
REMARK       I    between atoms: N_10  and  C_15 
REMARK    8  A    between atoms: C_11  and  C_12 
REMARK    9  A    between atoms: C_12  and  C_13 
REMARK   10  A    between atoms: C_13  and  C_14 
REMARK   11  A    between atoms: C_18  and  C_19 
ROOT
HETATM    1  H           1     -36.093  -2.437 -13.010  0.00  0.00     0.163 HD
HETATM    2  N           1     -35.412  -1.984 -12.413  0.00  0.00    -0.345 N 
HETATM    3  C           1     -34.278  -2.653 -12.038  0.00  0.00     0.249 C 
HETATM    4  O           1     -33.466  -2.114 -11.325  0.00  0.00    -0.271 OA
ENDROOT
BRANCH   2   5
HETATM    5  C           1     -35.639  -0.628 -11.952  0.00  0.00     0.185 C 
BRANCH   5   6
HETATM    6  C           1     -36.643  -0.643 -10.824  0.00  0.00     0.196 C 
HETATM    7  O           1     -36.301  -0.276  -9.679  0.00  0.00    -0.646 OA
HETATM    8  O           1     -37.814  -1.021 -11.035  0.00  0.00    -0.646 OA
ENDBRANCH   5   6
BRANCH   5   9
HETATM    9  C           1     -36.179   0.215 -13.099  0.00  0.00     0.036 C 
BRANCH   9  10
HETATM   10  C           1     -35.023   0.891 -13.822  0.00  0.00     0.004 C 
BRANCH  10  11
HETATM   11  C           1     -35.012   0.457 -15.281  0.00  0.00     0.027 C 
BRANCH  11  12
HETATM   12  C           1     -36.335  -0.217 -15.622  0.00  0.00     0.229 C 
BRANCH  12  13
HETATM   13  N           1     -36.339  -0.610 -17.069  0.00  0.00    -0.079 N 
HETATM   14  H           1     -36.087   0.218 -17.656  0.00  0.00     0.274 HD
HETATM   15  H           1     -35.642  -1.373 -17.225  0.00  0.00     0.274 HD
HETATM   16  H           1     -37.292  -0.947 -17.336  0.00  0.00     0.274 HD
ENDBRANCH  12  13
ENDBRANCH  11  12
ENDBRANCH  10  11
ENDBRANCH   9  10
ENDBRANCH   5   9
ENDBRANCH   2   5
BRANCH   3  17
HETATM   17  C           1     -34.042  -4.064 -12.517  0.00  0.00     0.278 C 
BRANCH  17  18
HETATM   18  C           1     -32.967  -4.719 -11.659  0.00  0.00     0.081 C 
BRANCH  18  19
HETATM   19  C           1     -33.552  -5.893 -10.936  0.00  0.00    -0.056 A 
HETATM   20  C           1     -32.855  -7.101 -10.890  0.00  0.00     0.007 A 
HETATM   21  C           1     -33.399  -8.194 -10.216  0.00  0.00     0.001 A 
HETATM   22  C           1     -34.640  -8.079  -9.589  0.00  0.00     0.000 A 
HETATM   23  C           1     -35.337  -6.872  -9.635  0.00  0.00     0.001 A 
HETATM   24  C           1     -34.792  -5.779 -10.309  0.00  0.00     0.007 A 
ENDBRANCH  18  19
ENDBRANCH  17  18
BRANCH  17  25
HETATM   25  N           1     -33.590  -4.037 -13.948  0.00  0.00    -0.066 N 
HETATM   26  H           1     -34.420  -3.928 -14.573  0.00  0.00     0.275 HD
HETATM   27  H           1     -33.098  -4.930 -14.175  0.00  0.00     0.275 HD
HETATM   28  H           1     -32.938  -3.233 -14.091  0.00  0.00     0.275 HD
ENDBRANCH  17  25
ENDBRANCH   3  17
TORSDOF 11
ENDMDL
MODEL 9
REMARK VINA RESULT:      -6.9      3.102      8.599
REMARK  11 active torsions:
REMARK  status: ('A' for Active; 'I' for Inactive)
REMARK    1  A    between atoms: N_3  and  C_9 
REMARK    2  A    between atoms: C_7  and  C_15 
REMARK    3  A    between atoms: C_7  and  C_19 
REMARK    4  A    between atoms: C_7  and  N_27 
REMARK    5  A    between atoms: C_8  and  C_11 
REMARK    6  A    between atoms: C_9  and  C_14 
REMARK    7  A    between atoms: N_10  and  C_11 
REMARK       I    between atoms: N_10  and  C_15 
REMARK    8  A    between atoms: C_11  and  C_12 
REMARK    9  A    between atoms: C_12  and  C_13 
REMARK   10  A    between atoms: C_13  and  C_14 
REMARK   11  A    between atoms: C_18  and  C_19 
ROOT
HETATM    1  H           1     -21.691  -7.218  -6.606  0.00  0.00     0.163 HD
HETATM    2  N           1     -21.155  -6.684  -5.933  0.00  0.00    -0.345 N 
HETATM    3  C           1     -20.996  -5.335  -6.099  0.00  0.00     0.249 C 
HETATM    4  O           1     -20.356  -4.698  -5.297  0.00  0.00    -0.271 OA
ENDROOT
BRANCH   2   5
HETATM    5  C           1     -20.553  -7.350  -4.794  0.00  0.00     0.185 C 
BRANCH   5   6
HETATM    6  C           1     -19.996  -8.684  -5.228  0.00  0.00     0.196 C 
HETATM    7  O           1     -20.726  -9.499  -5.832  0.00  0.00    -0.646 OA
HETATM    8  O           1     -18.805  -8.972  -4.986  0.00  0.00    -0.646 OA
ENDBRANCH   5   6
BRANCH   5   9
HETATM    9  C           1     -21.608  -7.568  -3.717  0.00  0.00     0.036 C 
BRANCH   9  10
HETATM   10  C           1     -21.094  -7.037  -2.386  0.00  0.00     0.004 C 
BRANCH  10  11
HETATM   11  C           1     -22.255  -6.465  -1.584  0.00  0.00     0.027 C 
BRANCH  11  12
HETATM   12  C           1     -22.486  -7.319  -0.344  0.00  0.00     0.229 C 
BRANCH  12  13
HETATM   13  N           1     -21.342  -8.274  -0.174  0.00  0.00    -0.079 N 
HETATM   14  H           1     -20.444  -7.740  -0.132  0.00  0.00     0.274 HD
HETATM   15  H           1     -21.467  -8.815   0.710  0.00  0.00     0.274 HD
HETATM   16  H           1     -21.314  -8.933  -0.986  0.00  0.00     0.274 HD
ENDBRANCH  12  13
ENDBRANCH  11  12
ENDBRANCH  10  11
ENDBRANCH   9  10
ENDBRANCH   5   9
ENDBRANCH   2   5
BRANCH   3  17
HETATM   17  C           1     -21.621  -4.643  -7.285  0.00  0.00     0.278 C 
BRANCH  17  18
HETATM   18  C           1     -20.835  -4.984  -8.545  0.00  0.00     0.081 C 
BRANCH  18  19
HETATM   19  C           1     -21.562  -4.458  -9.744  0.00  0.00    -0.056 A 
HETATM   20  C           1     -22.915  -4.749  -9.923  0.00  0.00     0.007 A 
HETATM   21  C           1     -23.591  -4.260 -11.040  0.00  0.00     0.001 A 
HETATM   22  C           1     -22.915  -3.481 -11.978  0.00  0.00     0.000 A 
HETATM   23  C           1     -21.563  -3.191 -11.801  0.00  0.00     0.001 A 
HETATM   24  C           1     -20.886  -3.680 -10.684  0.00  0.00     0.007 A 
ENDBRANCH  18  19
ENDBRANCH  17  18
BRANCH  17  25
HETATM   25  N           1     -21.596  -3.158  -7.067  0.00  0.00    -0.066 N 
HETATM   26  H           1     -21.425  -2.676  -7.978  0.00  0.00     0.275 HD
HETATM   27  H           1     -20.831  -2.918  -6.397  0.00  0.00     0.275 HD
HETATM   28  H           1     -22.514  -2.848  -6.676  0.00  0.00     0.275 HD
ENDBRANCH  17  25
ENDBRANCH   3  17
TORSDOF 11
ENDMDL
