MODEL 1
REMARK VINA RESULT:      -7.3      0.000      0.000
REMARK  7 active torsions:
REMARK  status: ('A' for Active; 'I' for Inactive)
REMARK    1  A    between atoms: P_1  and  O_2 
REMARK    2  A    between atoms: P_1  and  O_9 
REMARK    3  A    between atoms: O_2  and  C_7 
REMARK    4  A    between atoms: N_3  and  C_16 
REMARK       I    between atoms: N_3  and  C_5 
REMARK    5  A    between atoms: C_5  and  C_19 
REMARK    6  A    between atoms: C_7  and  C_16 
REMARK    7  A    between atoms: C_15  and  C_16 
ROOT
HETATM    1  C           1     -22.746  -3.645 -10.240  0.00  0.00     0.210 C 
ENDROOT
BRANCH   1   2
HETATM    2  N           1     -22.067  -4.694  -9.504  0.00  0.00    -0.343 N 
HETATM    3  C           1     -22.008  -4.644  -8.138  0.00  0.00     0.251 C 
HETATM    4  O           1     -22.520  -3.726  -7.545  0.00  0.00    -0.271 OA
HETATM    5  H           1     -21.637  -5.463 -10.003  0.00  0.00     0.163 HD
BRANCH   3   6
HETATM    6  C           1     -21.300  -5.736  -7.374  0.00  0.00     0.311 C 
HETATM    7  C           1     -21.198  -5.385  -5.900  0.00  0.00     0.047 C 
HETATM    8  C           1     -19.830  -4.733  -5.739  0.00  0.00     0.033 C 
HETATM    9  C           1     -19.216  -4.752  -7.129  0.00  0.00     0.271 C 
HETATM   10  N           1     -19.908  -5.850  -7.801  0.00  0.00     0.097 N 
HETATM   11  H           1     -19.508  -6.739  -7.499  0.00  0.00     0.317 HD
ENDBRANCH   3   6
ENDBRANCH   1   2
BRANCH   1  12
HETATM   12  C           1     -22.360  -3.726 -11.711  0.00  0.00     0.217 C 
BRANCH  12  13
HETATM   13  O           1     -22.741  -2.543 -12.360  0.00  0.00    -0.287 OA
BRANCH  13  14
HETATM   14  P           1     -23.569  -2.725 -13.735  0.00  0.00     0.406 P 
HETATM   15  O           1     -24.410  -3.939 -13.649  0.00  0.00    -0.624 OA
HETATM   16  O           1     -22.622  -2.859 -14.866  0.00  0.00    -0.624 OA
BRANCH  14  17
HETATM   17  O           1     -24.510  -1.434 -13.970  0.00  0.00    -0.300 OA
HETATM   18  H           1     -24.747  -1.143 -13.106  0.00  0.00     0.223 HD
ENDBRANCH  14  17
ENDBRANCH  13  14
ENDBRANCH  12  13
ENDBRANCH   1  12
BRANCH   1  19
HETATM   19  C           1     -24.238  -3.818 -10.102  0.00  0.00     0.198 C 
HETATM   20  O           1     -24.747  -4.956 -10.192  0.00  0.00    -0.646 OA
HETATM   21  O           1     -24.967  -2.823  -9.898  0.00  0.00    -0.646 OA
ENDBRANCH   1  19
TORSDOF 7
ENDMDL
MODEL 2
REMARK VINA RESULT:      -7.0     11.833     13.542
REMARK  7 active torsions:
REMARK  status: ('A' for Active; 'I' for Inactive)
REMARK    1  A    between atoms: P_1  and  O_2 
REMARK    2  A    between atoms: P_1  and  O_9 
REMARK    3  A    between atoms: O_2  and  C_7 
REMARK    4  A    between atoms: N_3  and  C_16 
REMARK       I    between atoms: N_3  and  C_5 
REMARK    5  A    between atoms: C_5  and  C_19 
REMARK    6  A    between atoms: C_7  and  C_16 
REMARK    7  A    between atoms: C_15  and  C_16 
ROOT
HETATM    1  C           1     -35.302  -0.311 -12.136  0.00  0.00     0.210 C 
ENDROOT
BRANCH   1   2
HETATM    2  N           1     -34.650  -1.594 -12.315  0.00  0.00    -0.343 N 
HETATM    3  C           1     -33.905  -2.131 -11.300  0.00  0.00     0.251 C 
HETATM    4  O           1     -33.791  -1.537 -10.255  0.00  0.00    -0.271 OA
HETATM    5  H           1     -34.746  -2.091 -13.191  0.00  0.00     0.163 HD
BRANCH   3   6
HETATM    6  C           1     -33.226  -3.466 -11.488  0.00  0.00     0.311 C 
HETATM    7  C           1     -33.663  -4.116 -12.789  0.00  0.00     0.047 C 
HETATM    8  C           1     -34.813  -5.039 -12.405  0.00  0.00     0.033 C 
HETATM    9  C           1     -34.969  -4.876 -10.903  0.00  0.00     0.271 C 
HETATM   10  N           1     -33.654  -4.415 -10.464  0.00  0.00     0.097 N 
HETATM   11  H           1     -33.015  -5.208 -10.415  0.00  0.00     0.317 HD
ENDBRANCH   3   6
ENDBRANCH   1   2
BRANCH   1  12
HETATM   12  C           1     -35.178   0.503 -13.416  0.00  0.00     0.217 C 
BRANCH  12  13
HETATM   13  O           1     -35.043  -0.363 -14.511  0.00  0.00    -0.287 OA
BRANCH  13  14
HETATM   14  P           1     -36.155  -0.214 -15.673  0.00  0.00     0.406 P 
HETATM   15  O           1     -35.731  -0.985 -16.863  0.00  0.00    -0.624 OA
HETATM   16  O           1     -36.300   1.214 -16.036  0.00  0.00    -0.624 OA
BRANCH  14  17
HETATM   17  O           1     -37.569  -0.783 -15.141  0.00  0.00    -0.300 OA
HETATM   18  H           1     -37.612  -0.523 -14.237  0.00  0.00     0.223 HD
ENDBRANCH  14  17
ENDBRANCH  13  14
ENDBRANCH  12  13
ENDBRANCH   1  12
BRANCH   1  19
HETATM   19  C           1     -36.760  -0.527 -11.816  0.00  0.00     0.198 C 
HETATM   20  O           1     -37.625   0.235 -12.300  0.00  0.00    -0.646 OA
HETATM   21  O           1     -37.104  -1.467 -11.068  0.00  0.00    -0.646 OA
ENDBRANCH   1  19
TORSDOF 7
ENDMDL
MODEL 3
REMARK VINA RESULT:      -6.8     12.040     13.638
REMARK  7 active torsions:
REMARK  status: ('A' for Active; 'I' for Inactive)
REMARK    1  A    between atoms: P_1  and  O_2 
REMARK    2  A    between atoms: P_1  and  O_9 
REMARK    3  A    between atoms: O_2  and  C_7 
REMARK    4  A    between atoms: N_3  and  C_16 
REMARK       I    between atoms: N_3  and  C_5 
REMARK    5  A    between atoms: C_5  and  C_19 
REMARK    6  A    between atoms: C_7  and  C_16 
REMARK    7  A    between atoms: C_15  and  C_16 
ROOT
HETATM    1  C           1     -35.288  -0.275 -12.203  0.00  0.00     0.210 C 
ENDROOT
BRANCH   1   2
HETATM    2  N           1     -35.383  -1.697 -12.470  0.00  0.00    -0.343 N 
HETATM    3  C           1     -34.952  -2.599 -11.536  0.00  0.00     0.251 C 
HETATM    4  O           1     -34.491  -2.212 -10.489  0.00  0.00    -0.271 OA
HETATM    5  H           1     -35.769  -2.021 -13.348  0.00  0.00     0.163 HD
BRANCH   3   6
HETATM    6  C           1     -35.051  -4.079 -11.815  0.00  0.00     0.311 C 
HETATM    7  C           1     -34.343  -4.881 -10.738  0.00  0.00     0.047 C 
HETATM    8  C           1     -32.941  -5.128 -11.282  0.00  0.00     0.033 C 
HETATM    9  C           1     -32.922  -4.462 -12.647  0.00  0.00     0.271 C 
HETATM   10  N           1     -34.330  -4.426 -13.037  0.00  0.00     0.097 N 
HETATM   11  H           1     -34.613  -5.346 -13.376  0.00  0.00     0.317 HD
ENDBRANCH   3   6
ENDBRANCH   1   2
BRANCH   1  12
HETATM   12  C           1     -35.181   0.482 -13.520  0.00  0.00     0.217 C 
BRANCH  12  13
HETATM   13  O           1     -35.269  -0.422 -14.588  0.00  0.00    -0.287 OA
BRANCH  13  14
HETATM   14  P           1     -36.448  -0.146 -15.656  0.00  0.00     0.406 P 
HETATM   15  O           1     -37.708  -0.749 -15.168  0.00  0.00    -0.624 OA
HETATM   16  O           1     -36.084  -0.748 -16.958  0.00  0.00    -0.624 OA
BRANCH  14  17
HETATM   17  O           1     -36.649   1.446 -15.835  0.00  0.00    -0.300 OA
HETATM   18  H           1     -36.316   1.826 -15.040  0.00  0.00     0.223 HD
ENDBRANCH  14  17
ENDBRANCH  13  14
ENDBRANCH  12  13
ENDBRANCH   1  12
BRANCH   1  19
HETATM   19  C           1     -36.518   0.182 -11.459  0.00  0.00     0.198 C 
HETATM   20  O           1     -36.421   0.594 -10.283  0.00  0.00    -0.646 OA
HETATM   21  O           1     -37.636   0.148 -12.018  0.00  0.00    -0.646 OA
ENDBRANCH   1  19
TORSDOF 7
ENDMDL
MODEL 4
REMARK VINA RESULT:      -6.8     12.979     15.037
REMARK  7 active torsions:
REMARK  status: ('A' for Active; 'I' for Inactive)
REMARK    1  A    between atoms: P_1  and  O_2 
REMARK    2  A    between atoms: P_1  and  O_9 
REMARK    3  A    between atoms: O_2  and  C_7 
REMARK    4  A    between atoms: N_3  and  C_16 
REMARK       I    between atoms: N_3  and  C_5 
REMARK    5  A    between atoms: C_5  and  C_19 
REMARK    6  A    between atoms: C_7  and  C_16 
REMARK    7  A    between atoms: C_15  and  C_16 
ROOT
HETATM    1  C           1     -36.491  -1.026 -11.199  0.00  0.00     0.210 C 
ENDROOT
BRANCH   1   2
HETATM    2  N           1     -35.953  -0.318 -12.345  0.00  0.00    -0.343 N 
HETATM    3  C           1     -36.684  -0.227 -13.498  0.00  0.00     0.251 C 
HETATM    4  O           1     -37.777  -0.735 -13.562  0.00  0.00    -0.271 OA
HETATM    5  H           1     -35.036   0.107 -12.290  0.00  0.00     0.163 HD
BRANCH   3   6
HETATM    6  C           1     -36.123   0.509 -14.690  0.00  0.00     0.311 C 
HETATM    7  C           1     -37.107   0.496 -15.847  0.00  0.00     0.047 C 
HETATM    8  C           1     -36.695  -0.693 -16.705  0.00  0.00     0.033 C 
HETATM    9  C           1     -35.491  -1.294 -16.000  0.00  0.00     0.271 C 
HETATM   10  N           1     -34.951  -0.181 -15.222  0.00  0.00     0.097 N 
HETATM   11  H           1     -34.415   0.433 -15.835  0.00  0.00     0.317 HD
ENDBRANCH   3   6
ENDBRANCH   1   2
BRANCH   1  12
HETATM   12  C           1     -35.464  -2.031 -10.696  0.00  0.00     0.217 C 
BRANCH  12  13
HETATM   13  O           1     -35.705  -3.281 -11.282  0.00  0.00    -0.287 OA
BRANCH  13  14
HETATM   14  P           1     -34.558  -3.830 -12.278  0.00  0.00     0.406 P 
HETATM   15  O           1     -33.281  -3.951 -11.542  0.00  0.00    -0.624 OA
HETATM   16  O           1     -34.392  -2.885 -13.405  0.00  0.00    -0.624 OA
BRANCH  14  17
HETATM   17  O           1     -34.989  -5.278 -12.848  0.00  0.00    -0.300 OA
HETATM   18  H           1     -35.931  -5.271 -12.848  0.00  0.00     0.223 HD
ENDBRANCH  14  17
ENDBRANCH  13  14
ENDBRANCH  12  13
ENDBRANCH   1  12
BRANCH   1  19
HETATM   19  C           1     -36.810  -0.041 -10.102  0.00  0.00     0.198 C 
HETATM   20  O           1     -36.175  -0.076  -9.027  0.00  0.00    -0.646 OA
HETATM   21  O           1     -37.711   0.809 -10.268  0.00  0.00    -0.646 OA
ENDBRANCH   1  19
TORSDOF 7
ENDMDL
MODEL 5
REMARK VINA RESULT:      -6.6      9.399     11.214
REMARK  7 active torsions:
REMARK  status: ('A' for Active; 'I' for Inactive)
REMARK    1  A    between atoms: P_1  and  O_2 
REMARK    2  A    between atoms: P_1  and  O_9 
REMARK    3  A    between atoms: O_2  and  C_7 
REMARK    4  A    between atoms: N_3  and  C_16 
REMARK       I    between atoms: N_3  and  C_5 
REMARK    5  A    between atoms: C_5  and  C_19 
REMARK    6  A    between atoms: C_7  and  C_16 
REMARK    7  A    between atoms: C_15  and  C_16 
ROOT
HETATM    1  C           1     -26.305  -6.804 -19.841  0.00  0.00     0.210 C 
ENDROOT
BRANCH   1   2
HETATM    2  N           1     -27.561  -7.305 -19.319  0.00  0.00    -0.343 N 
HETATM    3  C           1     -28.562  -6.433 -18.990  0.00  0.00     0.251 C 
HETATM    4  O           1     -28.400  -5.245 -19.133  0.00  0.00    -0.271 OA
HETATM    5  H           1     -27.696  -8.301 -19.198  0.00  0.00     0.163 HD
BRANCH   3   6
HETATM    6  C           1     -29.869  -6.955 -18.445  0.00  0.00     0.311 C 
HETATM    7  C           1     -30.625  -5.862 -17.710  0.00  0.00     0.047 C 
HETATM    8  C           1     -30.239  -6.028 -16.245  0.00  0.00     0.033 C 
HETATM    9  C           1     -29.289  -7.213 -16.217  0.00  0.00     0.271 C 
HETATM   10  N           1     -29.636  -7.968 -17.419  0.00  0.00     0.097 N 
HETATM   11  H           1     -30.482  -8.510 -17.246  0.00  0.00     0.317 HD
ENDBRANCH   3   6
ENDBRANCH   1   2
BRANCH   1  12
HETATM   12  C           1     -25.280  -6.735 -18.717  0.00  0.00     0.217 C 
BRANCH  12  13
HETATM   13  O           1     -25.898  -6.269 -17.548  0.00  0.00    -0.287 OA
BRANCH  13  14
HETATM   14  P           1     -25.298  -6.828 -16.157  0.00  0.00     0.406 P 
HETATM   15  O           1     -24.277  -7.862 -16.440  0.00  0.00    -0.624 OA
HETATM   16  O           1     -26.390  -7.420 -15.351  0.00  0.00    -0.624 OA
BRANCH  14  17
HETATM   17  O           1     -24.619  -5.614 -15.337  0.00  0.00    -0.300 OA
HETATM   18  H           1     -23.890  -5.340 -15.865  0.00  0.00     0.223 HD
ENDBRANCH  14  17
ENDBRANCH  13  14
ENDBRANCH  12  13
ENDBRANCH   1  12
BRANCH   1  19
HETATM   19  C           1     -25.803  -7.728 -20.922  0.00  0.00     0.198 C 
HETATM   20  O           1     -26.559  -8.602 -21.398  0.00  0.00    -0.646 OA
HETATM   21  O           1     -24.630  -7.622 -21.342  0.00  0.00    -0.646 OA
ENDBRANCH   1  19
TORSDOF 7
ENDMDL
MODEL 6
REMARK VINA RESULT:      -6.1      1.758      2.444
REMARK  7 active torsions:
REMARK  status: ('A' for Active; 'I' for Inactive)
REMARK    1  A    between atoms: P_1  and  O_2 
REMARK    2  A    between atoms: P_1  and  O_9 
REMARK    3  A    between atoms: O_2  and  C_7 
REMARK    4  A    between atoms: N_3  and  C_16 
REMARK       I    between atoms: N_3  and  C_5 
REMARK    5  A    between atoms: C_5  and  C_19 
REMARK    6  A    between atoms: C_7  and  C_16 
REMARK    7  A    between atoms: C_15  and  C_16 
ROOT
HETATM    1  C           1     -22.141  -4.559 -10.223  0.00  0.00     0.210 C 
ENDROOT
BRANCH   1   2
HETATM    2  N           1     -22.119  -4.258  -8.804  0.00  0.00    -0.343 N 
HETATM    3  C           1     -21.192  -4.853  -7.993  0.00  0.00     0.251 C 
HETATM    4  O           1     -20.392  -5.630  -8.457  0.00  0.00    -0.271 OA
HETATM    5  H           1     -22.790  -3.608  -8.415  0.00  0.00     0.163 HD
BRANCH   3   6
HETATM    6  C           1     -21.171  -4.541  -6.516  0.00  0.00     0.311 C 
HETATM    7  C           1     -19.929  -5.117  -5.859  0.00  0.00     0.047 C 
HETATM    8  C           1     -20.361  -6.470  -5.309  0.00  0.00     0.033 C 
HETATM    9  C           1     -21.831  -6.595  -5.672  0.00  0.00     0.271 C 
HETATM   10  N           1     -22.271  -5.210  -5.828  0.00  0.00     0.097 N 
HETATM   11  H           1     -22.427  -4.798  -4.908  0.00  0.00     0.317 HD
ENDBRANCH   3   6
ENDBRANCH   1   2
BRANCH   1  12
HETATM   12  C           1     -23.486  -4.148 -10.807  0.00  0.00     0.217 C 
BRANCH  12  13
HETATM   13  O           1     -23.481  -4.366 -12.192  0.00  0.00    -0.287 OA
BRANCH  13  14
HETATM   14  P           1     -24.074  -3.169 -13.100  0.00  0.00     0.406 P 
HETATM   15  O           1     -25.494  -2.944 -12.754  0.00  0.00    -0.624 OA
HETATM   16  O           1     -23.965  -3.536 -14.530  0.00  0.00    -0.624 OA
BRANCH  14  17
HETATM   17  O           1     -23.233  -1.819 -12.825  0.00  0.00    -0.300 OA
HETATM   18  H           1     -23.881  -1.162 -12.632  0.00  0.00     0.223 HD
ENDBRANCH  14  17
ENDBRANCH  13  14
ENDBRANCH  12  13
ENDBRANCH   1  12
BRANCH   1  19
HETATM   19  C           1     -21.039  -3.797 -10.916  0.00  0.00     0.198 C 
HETATM   20  O           1     -20.033  -4.404 -11.343  0.00  0.00    -0.646 OA
HETATM   21  O           1     -21.130  -2.559 -11.063  0.00  0.00    -0.646 OA
ENDBRANCH   1  19
TORSDOF 7
ENDMDL
MODEL 7
REMARK VINA RESULT:      -5.8      2.428      3.682
REMARK  7 active torsions:
REMARK  status: ('A' for Active; 'I' for Inactive)
REMARK    1  A    between atoms: P_1  and  O_2 
REMARK    2  A    between atoms: P_1  and  O_9 
REMARK    3  A    between atoms: O_2  and  C_7 
REMARK    4  A    between atoms: N_3  and  C_16 
REMARK       I    between atoms: N_3  and  C_5 
REMARK    5  A    between atoms: C_5  and  C_19 
REMARK    6  A    between atoms: C_7  and  C_16 
REMARK    7  A    between atoms: C_15  and  C_16 
ROOT
HETATM    1  C           1     -21.669  -4.712  -8.539  0.00  0.00     0.210 C 
ENDROOT
BRANCH   1   2
HETATM    2  N           1     -21.529  -4.849  -7.102  0.00  0.00    -0.343 N 
HETATM    3  C           1     -20.793  -5.878  -6.581  0.00  0.00     0.251 C 
HETATM    4  O           1     -20.261  -6.674  -7.317  0.00  0.00    -0.271 OA
HETATM    5  H           1     -21.975  -4.182  -6.485  0.00  0.00     0.163 HD
BRANCH   3   6
HETATM    6  C           1     -20.648  -6.020  -5.085  0.00  0.00     0.311 C 
HETATM    7  C           1     -20.230  -7.432  -4.714  0.00  0.00     0.047 C 
HETATM    8  C           1     -21.530  -8.163  -4.403  0.00  0.00     0.033 C 
HETATM    9  C           1     -22.625  -7.129  -4.605  0.00  0.00     0.271 C 
HETATM   10  N           1     -21.937  -5.853  -4.421  0.00  0.00     0.097 N 
HETATM   11  H           1     -21.811  -5.676  -3.424  0.00  0.00     0.317 HD
ENDBRANCH   3   6
ENDBRANCH   1   2
BRANCH   1  12
HETATM   12  C           1     -22.759  -3.695  -8.847  0.00  0.00     0.217 C 
BRANCH  12  13
HETATM   13  O           1     -23.716  -4.275  -9.691  0.00  0.00    -0.287 OA
BRANCH  13  14
HETATM   14  P           1     -23.710  -3.767 -11.224  0.00  0.00     0.406 P 
HETATM   15  O           1     -22.619  -2.786 -11.415  0.00  0.00    -0.624 OA
HETATM   16  O           1     -25.009  -3.130 -11.538  0.00  0.00    -0.624 OA
BRANCH  14  17
HETATM   17  O           1     -23.476  -5.027 -12.207  0.00  0.00    -0.300 OA
HETATM   18  H           1     -24.216  -5.592 -12.060  0.00  0.00     0.223 HD
ENDBRANCH  14  17
ENDBRANCH  13  14
ENDBRANCH  12  13
ENDBRANCH   1  12
BRANCH   1  19
HETATM   19  C           1     -20.363  -4.244  -9.131  0.00  0.00     0.198 C 
HETATM   20  O           1     -19.619  -3.482  -8.478  0.00  0.00    -0.646 OA
HETATM   21  O           1     -20.026  -4.618 -10.275  0.00  0.00    -0.646 OA
ENDBRANCH   1  19
TORSDOF 7
ENDMDL
MODEL 8
REMARK VINA RESULT:      -5.5      7.236      9.348
REMARK  7 active torsions:
REMARK  status: ('A' for Active; 'I' for Inactive)
REMARK    1  A    between atoms: P_1  and  O_2 
REMARK    2  A    between atoms: P_1  and  O_9 
REMARK    3  A    between atoms: O_2  and  C_7 
REMARK    4  A    between atoms: N_3  and  C_16 
REMARK       I    between atoms: N_3  and  C_5 
REMARK    5  A    between atoms: C_5  and  C_19 
REMARK    6  A    between atoms: C_7  and  C_16 
REMARK    7  A    between atoms: C_15  and  C_16 
ROOT
HETATM    1  C           1     -21.127  -7.748  -3.723  0.00  0.00     0.210 C 
ENDROOT
BRANCH   1   2
HETATM    2  N           1     -21.678  -8.539  -2.639  0.00  0.00    -0.343 N 
HETATM    3  C           1     -20.857  -9.011  -1.651  0.00  0.00     0.251 C 
HETATM    4  O           1     -19.675  -8.770  -1.681  0.00  0.00    -0.271 OA
HETATM    5  H           1     -22.669  -8.742  -2.616  0.00  0.00     0.163 HD
BRANCH   3   6
HETATM    6  C           1     -21.432  -9.835  -0.525  0.00  0.00     0.311 C 
HETATM    7  C           1     -22.945  -9.712  -0.481  0.00  0.00     0.047 C 
HETATM    8  C           1     -23.225  -8.602   0.525  0.00  0.00     0.033 C 
HETATM    9  C           1     -21.858  -8.154   1.012  0.00  0.00     0.271 C 
HETATM   10  N           1     -21.003  -9.314   0.771  0.00  0.00     0.097 N 
HETATM   11  H           1     -21.153 -10.005   1.506  0.00  0.00     0.317 HD
ENDBRANCH   3   6
ENDBRANCH   1   2
BRANCH   1  12
HETATM   12  C           1     -21.239  -8.527  -5.026  0.00  0.00     0.217 C 
BRANCH  12  13
HETATM   13  O           1     -19.982  -8.593  -5.643  0.00  0.00    -0.287 OA
BRANCH  13  14
HETATM   14  P           1     -19.041  -9.830  -5.202  0.00  0.00     0.406 P 
HETATM   15  O           1     -18.281 -10.315  -6.376  0.00  0.00    -0.624 OA
HETATM   16  O           1     -19.883 -10.925  -4.672  0.00  0.00    -0.624 OA
BRANCH  14  17
HETATM   17  O           1     -18.010  -9.341  -4.060  0.00  0.00    -0.300 OA
HETATM   18  H           1     -18.456  -9.495  -3.245  0.00  0.00     0.223 HD
ENDBRANCH  14  17
ENDBRANCH  13  14
ENDBRANCH  12  13
ENDBRANCH   1  12
BRANCH   1  19
HETATM   19  C           1     -21.893  -6.455  -3.842  0.00  0.00     0.198 C 
HETATM   20  O           1     -22.023  -5.906  -4.958  0.00  0.00    -0.646 OA
HETATM   21  O           1     -22.397  -5.929  -2.826  0.00  0.00    -0.646 OA
ENDBRANCH   1  19
TORSDOF 7
ENDMDL
MODEL 9
REMARK VINA RESULT:      -5.5     11.981     13.667
REMARK  7 active torsions:
REMARK  status: ('A' for Active; 'I' for Inactive)
REMARK    1  A    between atoms: P_1  and  O_2 
REMARK    2  A    between atoms: P_1  and  O_9 
REMARK    3  A    between atoms: O_2  and  C_7 
REMARK    4  A    between atoms: N_3  and  C_16 
REMARK       I    between atoms: N_3  and  C_5 
REMARK    5  A    between atoms: C_5  and  C_19 
REMARK    6  A    between atoms: C_7  and  C_16 
REMARK    7  A    between atoms: C_15  and  C_16 
ROOT
HETATM    1  C           1     -35.287  -0.846 -15.488  0.00  0.00     0.210 C 
ENDROOT
BRANCH   1   2
HETATM    2  N           1     -35.586  -1.602 -14.287  0.00  0.00    -0.343 N 
HETATM    3  C           1     -35.265  -1.091 -13.059  0.00  0.00     0.251 C 
HETATM    4  O           1     -34.732  -0.011 -12.975  0.00  0.00    -0.271 OA
HETATM    5  H           1     -36.031  -2.508 -14.359  0.00  0.00     0.163 HD
BRANCH   3   6
HETATM    6  C           1     -35.576  -1.880 -11.811  0.00  0.00     0.311 C 
HETATM    7  C           1     -34.866  -1.287 -10.606  0.00  0.00     0.047 C 
HETATM    8  C           1     -33.570  -2.077 -10.478  0.00  0.00     0.033 C 
HETATM    9  C           1     -33.608  -3.088 -11.611  0.00  0.00     0.271 C 
HETATM   10  N           1     -35.033  -3.232 -11.902  0.00  0.00     0.097 N 
HETATM   11  H           1     -35.461  -3.842 -11.205  0.00  0.00     0.317 HD
ENDBRANCH   3   6
ENDBRANCH   1   2
BRANCH   1  12
HETATM   12  C           1     -34.776  -1.791 -16.568  0.00  0.00     0.217 C 
BRANCH  12  13
HETATM   13  O           1     -35.153  -3.105 -16.257  0.00  0.00    -0.287 OA
BRANCH  13  14
HETATM   14  P           1     -33.949  -4.128 -15.924  0.00  0.00     0.406 P 
HETATM   15  O           1     -33.502  -3.927 -14.528  0.00  0.00    -0.624 OA
HETATM   16  O           1     -32.819  -3.876 -16.846  0.00  0.00    -0.624 OA
BRANCH  14  17
HETATM   17  O           1     -34.468  -5.646 -16.108  0.00  0.00    -0.300 OA
HETATM   18  H           1     -34.643  -5.953 -15.234  0.00  0.00     0.223 HD
ENDBRANCH  14  17
ENDBRANCH  13  14
ENDBRANCH  12  13
ENDBRANCH   1  12
BRANCH   1  19
HETATM   19  C           1     -36.537  -0.157 -15.974  0.00  0.00     0.198 C 
HETATM   20  O           1     -37.492  -0.832 -16.414  0.00  0.00    -0.646 OA
HETATM   21  O           1     -36.618   1.090 -15.938  0.00  0.00    -0.646 OA
ENDBRANCH   1  19
TORSDOF 7
ENDMDL
