MODEL 1
REMARK VINA RESULT:      -5.8      0.000      0.000
REMARK  7 active torsions:
REMARK  status: ('A' for Active; 'I' for Inactive)
REMARK    1  A    between atoms: Se_2  and  C_3 
REMARK    2  A    between atoms: C_3  and  C_17 
REMARK    3  A    between atoms: C_4  and  C_18 
REMARK    4  A    between atoms: N_7  and  C_18 
REMARK       I    between atoms: N_7  and  C_8 
REMARK    5  A    between atoms: C_8  and  C_9 
REMARK    6  A    between atoms: C_9  and  N_11 
REMARK    7  A    between atoms: C_17  and  C_18 
ROOT
HETATM    1  N           1     -22.174  -4.778  -8.737  0.00  0.00    -0.345 N 
HETATM    2  C           1     -21.556  -4.399  -7.576  0.00  0.00     0.248 C 
HETATM    3  O           1     -21.451  -3.226  -7.304  0.00  0.00    -0.271 OA
HETATM    4  H           1     -22.262  -5.761  -8.965  0.00  0.00     0.163 HD
ENDROOT
BRANCH   1   5
HETATM    5  C           1     -22.705  -3.774  -9.637  0.00  0.00     0.185 C 
BRANCH   5   6
HETATM    6  C           1     -24.212  -3.853  -9.646  0.00  0.00     0.196 C 
HETATM    7  O           1     -24.892  -2.829  -9.423  0.00  0.00    -0.646 OA
HETATM    8  O           1     -24.779  -4.943  -9.878  0.00  0.00    -0.646 OA
ENDBRANCH   5   6
BRANCH   5   9
HETATM    9  C           1     -22.174  -4.023 -11.044  0.00  0.00     0.036 C 
BRANCH   9  10
HETATM   10  C           1     -22.381  -2.775 -11.893  0.00  0.00     0.003 C 
BRANCH  10  11
HETATM   11 Se           1     -23.901  -3.044 -13.082  0.00  0.00     0.000 Se
HETATM   12  C           1     -22.938  -2.530 -14.697  0.00  0.00     0.000 C 
ENDBRANCH  10  11
ENDBRANCH   9  10
ENDBRANCH   5   9
ENDBRANCH   1   5
BRANCH   2  13
HETATM   13  C           1     -21.003  -5.444  -6.638  0.00  0.00     0.270 C 
HETATM   14  C           1     -20.276  -4.760  -5.488  0.00  0.00     0.050 C 
BRANCH  13  15
HETATM   15  N           1     -20.044  -6.326  -7.382  0.00  0.00    -0.067 N 
HETATM   16  H           1     -19.854  -5.918  -8.325  0.00  0.00     0.275 HD
HETATM   17  H           1     -19.149  -6.395  -6.846  0.00  0.00     0.275 HD
HETATM   18  H           1     -20.460  -7.278  -7.491  0.00  0.00     0.275 HD
ENDBRANCH  13  15
ENDBRANCH   2  13
TORSDOF 7
ENDMDL
MODEL 2
REMARK VINA RESULT:      -5.5     13.375     15.202
REMARK  7 active torsions:
REMARK  status: ('A' for Active; 'I' for Inactive)
REMARK    1  A    between atoms: Se_2  and  C_3 
REMARK    2  A    between atoms: C_3  and  C_17 
REMARK    3  A    between atoms: C_4  and  C_18 
REMARK    4  A    between atoms: N_7  and  C_18 
REMARK       I    between atoms: N_7  and  C_8 
REMARK    5  A    between atoms: C_8  and  C_9 
REMARK    6  A    between atoms: C_9  and  N_11 
REMARK    7  A    between atoms: C_17  and  C_18 
ROOT
HETATM    1  N           1     -36.077  -0.369 -12.592  0.00  0.00    -0.345 N 
HETATM    2  C           1     -36.834  -0.297 -13.730  0.00  0.00     0.248 C 
HETATM    3  O           1     -37.970  -0.709 -13.726  0.00  0.00    -0.271 OA
HETATM    4  H           1     -35.125  -0.024 -12.595  0.00  0.00     0.163 HD
ENDROOT
BRANCH   1   5
HETATM    5  C           1     -36.640  -0.936 -11.381  0.00  0.00     0.185 C 
BRANCH   5   6
HETATM    6  C           1     -36.987   0.175 -10.420  0.00  0.00     0.196 C 
HETATM    7  O           1     -36.185   0.490  -9.515  0.00  0.00    -0.646 OA
HETATM    8  O           1     -38.075   0.780 -10.530  0.00  0.00    -0.646 OA
ENDBRANCH   5   6
BRANCH   5   9
HETATM    9  C           1     -35.620  -1.867 -10.737  0.00  0.00     0.036 C 
BRANCH   9  10
HETATM   10  C           1     -34.321  -1.825 -11.531  0.00  0.00     0.003 C 
BRANCH  10  11
HETATM   11 Se           1     -33.346  -3.491 -11.269  0.00  0.00     0.000 Se
HETATM   12  C           1     -34.716  -4.612 -12.084  0.00  0.00     0.000 C 
ENDBRANCH  10  11
ENDBRANCH   9  10
ENDBRANCH   5   9
ENDBRANCH   1   5
BRANCH   2  13
HETATM   13  C           1     -36.249   0.292 -14.989  0.00  0.00     0.270 C 
HETATM   14  C           1     -35.052   1.165 -14.633  0.00  0.00     0.050 C 
BRANCH  13  15
HETATM   15  N           1     -37.287   1.127 -15.680  0.00  0.00    -0.067 N 
HETATM   16  H           1     -38.221   0.953 -15.244  0.00  0.00     0.275 HD
HETATM   17  H           1     -37.040   2.138 -15.584  0.00  0.00     0.275 HD
HETATM   18  H           1     -37.322   0.870 -16.692  0.00  0.00     0.275 HD
ENDBRANCH  13  15
ENDBRANCH   2  13
TORSDOF 7
ENDMDL
MODEL 3
REMARK VINA RESULT:      -5.4     12.331     13.920
REMARK  7 active torsions:
REMARK  status: ('A' for Active; 'I' for Inactive)
REMARK    1  A    between atoms: Se_2  and  C_3 
REMARK    2  A    between atoms: C_3  and  C_17 
REMARK    3  A    between atoms: C_4  and  C_18 
REMARK    4  A    between atoms: N_7  and  C_18 
REMARK       I    between atoms: N_7  and  C_8 
REMARK    5  A    between atoms: C_8  and  C_9 
REMARK    6  A    between atoms: C_9  and  N_11 
REMARK    7  A    between atoms: C_17  and  C_18 
ROOT
HETATM    1  N           1     -35.428  -1.705 -12.715  0.00  0.00    -0.345 N 
HETATM    2  C           1     -34.392  -2.283 -12.033  0.00  0.00     0.248 C 
HETATM    3  O           1     -33.773  -1.641 -11.217  0.00  0.00    -0.271 OA
HETATM    4  H           1     -35.947  -2.242 -13.398  0.00  0.00     0.163 HD
ENDROOT
BRANCH   1   5
HETATM    5  C           1     -35.784  -0.323 -12.457  0.00  0.00     0.185 C 
BRANCH   5   6
HETATM    6  C           1     -36.774  -0.263 -11.320  0.00  0.00     0.196 C 
HETATM    7  O           1     -37.794  -0.984 -11.341  0.00  0.00    -0.646 OA
HETATM    8  O           1     -36.572   0.507 -10.355  0.00  0.00    -0.646 OA
ENDBRANCH   5   6
BRANCH   5   9
HETATM    9  C           1     -36.410   0.281 -13.708  0.00  0.00     0.036 C 
BRANCH   9  10
HETATM   10  C           1     -35.379   0.306 -14.830  0.00  0.00     0.003 C 
BRANCH  10  11
HETATM   11 Se           1     -36.041  -0.726 -16.344  0.00  0.00     0.000 Se
HETATM   12  C           1     -37.923  -0.413 -15.945  0.00  0.00     0.000 C 
ENDBRANCH  10  11
ENDBRANCH   9  10
ENDBRANCH   5   9
ENDBRANCH   1   5
BRANCH   2  13
HETATM   13  C           1     -34.021  -3.721 -12.301  0.00  0.00     0.270 C 
HETATM   14  C           1     -32.665  -4.021 -11.674  0.00  0.00     0.050 C 
BRANCH  13  15
HETATM   15  N           1     -33.949  -3.951 -13.781  0.00  0.00    -0.067 N 
HETATM   16  H           1     -34.419  -3.162 -14.280  0.00  0.00     0.275 HD
HETATM   17  H           1     -32.947  -4.003 -14.077  0.00  0.00     0.275 HD
HETATM   18  H           1     -34.430  -4.848 -14.017  0.00  0.00     0.275 HD
ENDBRANCH  13  15
ENDBRANCH   2  13
TORSDOF 7
ENDMDL
MODEL 4
REMARK VINA RESULT:      -4.9      3.452      4.899
REMARK  7 active torsions:
REMARK  status: ('A' for Active; 'I' for Inactive)
REMARK    1  A    between atoms: Se_2  and  C_3 
REMARK    2  A    between atoms: C_3  and  C_17 
REMARK    3  A    between atoms: C_4  and  C_18 
REMARK    4  A    between atoms: N_7  and  C_18 
REMARK       I    between atoms: N_7  and  C_8 
REMARK    5  A    between atoms: C_8  and  C_9 
REMARK    6  A    between atoms: C_9  and  N_11 
REMARK    7  A    between atoms: C_17  and  C_18 
ROOT
HETATM    1  N           1     -21.046  -5.483  -5.013  0.00  0.00    -0.345 N 
HETATM    2  C           1     -21.450  -6.588  -4.314  0.00  0.00     0.248 C 
HETATM    3  O           1     -21.919  -7.535  -4.900  0.00  0.00    -0.271 OA
HETATM    4  H           1     -20.653  -4.689  -4.522  0.00  0.00     0.163 HD
ENDROOT
BRANCH   1   5
HETATM    5  C           1     -21.178  -5.450  -6.457  0.00  0.00     0.185 C 
BRANCH   5   6
HETATM    6  C           1     -19.831  -5.699  -7.090  0.00  0.00     0.196 C 
HETATM    7  O           1     -19.354  -6.854  -7.110  0.00  0.00    -0.646 OA
HETATM    8  O           1     -19.193  -4.750  -7.596  0.00  0.00    -0.646 OA
ENDBRANCH   5   6
BRANCH   5   9
HETATM    9  C           1     -21.698  -4.084  -6.887  0.00  0.00     0.036 C 
BRANCH   9  10
HETATM   10  C           1     -22.866  -4.265  -7.848  0.00  0.00     0.003 C 
BRANCH  10  11
HETATM   11 Se           1     -22.223  -4.143  -9.683  0.00  0.00     0.000 Se
HETATM   12  C           1     -23.836  -4.900 -10.472  0.00  0.00     0.000 C 
ENDBRANCH  10  11
ENDBRANCH   9  10
ENDBRANCH   5   9
ENDBRANCH   1   5
BRANCH   2  13
HETATM   13  C           1     -21.313  -6.622  -2.812  0.00  0.00     0.270 C 
HETATM   14  C           1     -21.363  -8.067  -2.330  0.00  0.00     0.050 C 
BRANCH  13  15
HETATM   15  N           1     -22.437  -5.849  -2.189  0.00  0.00    -0.067 N 
HETATM   16  H           1     -23.042  -5.446  -2.940  0.00  0.00     0.275 HD
HETATM   17  H           1     -23.008  -6.488  -1.588  0.00  0.00     0.275 HD
HETATM   18  H           1     -22.046  -5.077  -1.604  0.00  0.00     0.275 HD
ENDBRANCH  13  15
ENDBRANCH   2  13
TORSDOF 7
ENDMDL
MODEL 5
REMARK VINA RESULT:      -4.7      3.724      6.511
REMARK  7 active torsions:
REMARK  status: ('A' for Active; 'I' for Inactive)
REMARK    1  A    between atoms: Se_2  and  C_3 
REMARK    2  A    between atoms: C_3  and  C_17 
REMARK    3  A    between atoms: C_4  and  C_18 
REMARK    4  A    between atoms: N_7  and  C_18 
REMARK       I    between atoms: N_7  and  C_8 
REMARK    5  A    between atoms: C_8  and  C_9 
REMARK    6  A    between atoms: C_9  and  N_11 
REMARK    7  A    between atoms: C_17  and  C_18 
ROOT
HETATM    1  N           1     -22.068  -4.883  -7.141  0.00  0.00    -0.345 N 
HETATM    2  C           1     -22.461  -4.122  -8.209  0.00  0.00     0.248 C 
HETATM    3  O           1     -21.770  -3.203  -8.582  0.00  0.00    -0.271 OA
HETATM    4  H           1     -22.646  -5.653  -6.827  0.00  0.00     0.163 HD
ENDROOT
BRANCH   1   5
HETATM    5  C           1     -20.822  -4.588  -6.460  0.00  0.00     0.185 C 
BRANCH   5   6
HETATM    6  C           1     -19.670  -5.160  -7.249  0.00  0.00     0.196 C 
HETATM    7  O           1     -18.696  -4.436  -7.546  0.00  0.00    -0.646 OA
HETATM    8  O           1     -19.690  -6.358  -7.604  0.00  0.00    -0.646 OA
ENDBRANCH   5   6
BRANCH   5   9
HETATM    9  C           1     -20.845  -5.210  -5.069  0.00  0.00     0.036 C 
BRANCH   9  10
HETATM   10  C           1     -21.856  -6.350  -5.040  0.00  0.00     0.003 C 
BRANCH  10  11
HETATM   11 Se           1     -21.468  -7.523  -3.532  0.00  0.00     0.000 Se
HETATM   12  C           1     -22.051  -6.248  -2.179  0.00  0.00     0.000 C 
ENDBRANCH  10  11
ENDBRANCH   9  10
ENDBRANCH   5   9
ENDBRANCH   1   5
BRANCH   2  13
HETATM   13  C           1     -23.757  -4.429  -8.917  0.00  0.00     0.270 C 
HETATM   14  C           1     -23.460  -4.914 -10.331  0.00  0.00     0.050 C 
BRANCH  13  15
HETATM   15  N           1     -24.598  -3.189  -8.982  0.00  0.00    -0.067 N 
HETATM   16  H           1     -25.597  -3.452  -9.139  0.00  0.00     0.275 HD
HETATM   17  H           1     -24.513  -2.665  -8.081  0.00  0.00     0.275 HD
HETATM   18  H           1     -24.268  -2.586  -9.769  0.00  0.00     0.275 HD
ENDBRANCH  13  15
ENDBRANCH   2  13
TORSDOF 7
ENDMDL
MODEL 6
REMARK VINA RESULT:      -4.6      4.835      7.637
REMARK  7 active torsions:
REMARK  status: ('A' for Active; 'I' for Inactive)
REMARK    1  A    between atoms: Se_2  and  C_3 
REMARK    2  A    between atoms: C_3  and  C_17 
REMARK    3  A    between atoms: C_4  and  C_18 
REMARK    4  A    between atoms: N_7  and  C_18 
REMARK       I    between atoms: N_7  and  C_8 
REMARK    5  A    between atoms: C_8  and  C_9 
REMARK    6  A    between atoms: C_9  and  N_11 
REMARK    7  A    between atoms: C_17  and  C_18 
ROOT
HETATM    1  N           1     -21.255  -6.460  -6.233  0.00  0.00    -0.345 N 
HETATM    2  C           1     -21.006  -5.184  -6.662  0.00  0.00     0.248 C 
HETATM    3  O           1     -20.403  -4.415  -5.950  0.00  0.00    -0.271 OA
HETATM    4  H           1     -21.760  -7.104  -6.828  0.00  0.00     0.163 HD
ENDROOT
BRANCH   1   5
HETATM    5  C           1     -20.795  -6.888  -4.926  0.00  0.00     0.185 C 
BRANCH   5   6
HETATM    6  C           1     -20.294  -8.309  -5.012  0.00  0.00     0.196 C 
HETATM    7  O           1     -19.307  -8.665  -4.332  0.00  0.00    -0.646 OA
HETATM    8  O           1     -20.867  -9.130  -5.760  0.00  0.00    -0.646 OA
ENDBRANCH   5   6
BRANCH   5   9
HETATM    9  C           1     -21.947  -6.814  -3.933  0.00  0.00     0.036 C 
BRANCH   9  10
HETATM   10  C           1     -21.493  -6.071  -2.683  0.00  0.00     0.003 C 
BRANCH  10  11
HETATM   11 Se           1     -22.224  -6.948  -1.104  0.00  0.00     0.000 Se
HETATM   12  C           1     -20.924  -8.400  -1.107  0.00  0.00     0.000 C 
ENDBRANCH  10  11
ENDBRANCH   9  10
ENDBRANCH   5   9
ENDBRANCH   1   5
BRANCH   2  13
HETATM   13  C           1     -21.485  -4.738  -8.021  0.00  0.00     0.270 C 
HETATM   14  C           1     -20.299  -4.253  -8.844  0.00  0.00     0.050 C 
BRANCH  13  15
HETATM   15  N           1     -22.472  -3.620  -7.861  0.00  0.00    -0.067 N 
HETATM   16  H           1     -22.744  -3.257  -8.803  0.00  0.00     0.275 HD
HETATM   17  H           1     -23.322  -3.974  -7.365  0.00  0.00     0.275 HD
HETATM   18  H           1     -22.038  -2.850  -7.303  0.00  0.00     0.275 HD
ENDBRANCH  13  15
ENDBRANCH   2  13
TORSDOF 7
ENDMDL
MODEL 7
REMARK VINA RESULT:      -4.5      6.649      9.189
REMARK  7 active torsions:
REMARK  status: ('A' for Active; 'I' for Inactive)
REMARK    1  A    between atoms: Se_2  and  C_3 
REMARK    2  A    between atoms: C_3  and  C_17 
REMARK    3  A    between atoms: C_4  and  C_18 
REMARK    4  A    between atoms: N_7  and  C_18 
REMARK       I    between atoms: N_7  and  C_8 
REMARK    5  A    between atoms: C_8  and  C_9 
REMARK    6  A    between atoms: C_9  and  N_11 
REMARK    7  A    between atoms: C_17  and  C_18 
ROOT
HETATM    1  N           1     -20.741  -6.941  -3.379  0.00  0.00    -0.345 N 
HETATM    2  C           1     -21.055  -7.083  -4.703  0.00  0.00     0.248 C 
HETATM    3  O           1     -21.952  -7.823  -5.035  0.00  0.00    -0.271 OA
HETATM    4  H           1     -19.990  -6.322  -3.100  0.00  0.00     0.163 HD
ENDROOT
BRANCH   1   5
HETATM    5  C           1     -21.486  -7.675  -2.374  0.00  0.00     0.185 C 
BRANCH   5   6
HETATM    6  C           1     -22.270  -6.708  -1.522  0.00  0.00     0.196 C 
HETATM    7  O           1     -22.807  -7.101  -0.465  0.00  0.00    -0.646 OA
HETATM    8  O           1     -22.379  -5.513  -1.873  0.00  0.00    -0.646 OA
ENDBRANCH   5   6
BRANCH   5   9
HETATM    9  C           1     -20.517  -8.458  -1.496  0.00  0.00     0.036 C 
BRANCH   9  10
HETATM   10  C           1     -20.873  -9.938  -1.541  0.00  0.00     0.003 C 
BRANCH  10  11
HETATM   11 Se           1     -21.565 -10.493   0.194  0.00  0.00     0.000 Se
HETATM   12  C           1     -23.425 -10.558  -0.386  0.00  0.00     0.000 C 
ENDBRANCH  10  11
ENDBRANCH   9  10
ENDBRANCH   5   9
ENDBRANCH   1   5
BRANCH   2  13
HETATM   13  C           1     -20.280  -6.319  -5.748  0.00  0.00     0.270 C 
HETATM   14  C           1     -20.273  -4.838  -5.393  0.00  0.00     0.050 C 
BRANCH  13  15
HETATM   15  N           1     -20.927  -6.508  -7.088  0.00  0.00    -0.067 N 
HETATM   16  H           1     -20.498  -5.851  -7.779  0.00  0.00     0.275 HD
HETATM   17  H           1     -20.783  -7.493  -7.408  0.00  0.00     0.275 HD
HETATM   18  H           1     -21.951  -6.312  -7.011  0.00  0.00     0.275 HD
ENDBRANCH  13  15
ENDBRANCH   2  13
TORSDOF 7
ENDMDL
MODEL 8
REMARK VINA RESULT:      -4.5     12.280     14.080
REMARK  7 active torsions:
REMARK  status: ('A' for Active; 'I' for Inactive)
REMARK    1  A    between atoms: Se_2  and  C_3 
REMARK    2  A    between atoms: C_3  and  C_17 
REMARK    3  A    between atoms: C_4  and  C_18 
REMARK    4  A    between atoms: N_7  and  C_18 
REMARK       I    between atoms: N_7  and  C_8 
REMARK    5  A    between atoms: C_8  and  C_9 
REMARK    6  A    between atoms: C_9  and  N_11 
REMARK    7  A    between atoms: C_17  and  C_18 
ROOT
HETATM    1  N           1     -35.488  -1.701 -13.260  0.00  0.00    -0.345 N 
HETATM    2  C           1     -34.558  -2.144 -12.358  0.00  0.00     0.248 C 
HETATM    3  O           1     -34.096  -1.381 -11.543  0.00  0.00    -0.271 OA
HETATM    4  H           1     -35.875  -2.341 -13.943  0.00  0.00     0.163 HD
ENDROOT
BRANCH   1   5
HETATM    5  C           1     -35.920  -0.317 -13.235  0.00  0.00     0.185 C 
BRANCH   5   6
HETATM    6  C           1     -34.935   0.530 -14.003  0.00  0.00     0.196 C 
HETATM    7  O           1     -34.492   1.584 -13.498  0.00  0.00    -0.646 OA
HETATM    8  O           1     -34.562   0.178 -15.142  0.00  0.00    -0.646 OA
ENDBRANCH   5   6
BRANCH   5   9
HETATM    9  C           1     -35.990   0.166 -11.792  0.00  0.00     0.036 C 
BRANCH   9  10
HETATM   10  C           1     -37.400  -0.045 -11.254  0.00  0.00     0.003 C 
BRANCH  10  11
HETATM   11 Se           1     -37.336  -0.221  -9.314  0.00  0.00     0.000 Se
HETATM   12  C           1     -37.880   1.617  -8.965  0.00  0.00     0.000 C 
ENDBRANCH  10  11
ENDBRANCH   9  10
ENDBRANCH   5   9
ENDBRANCH   1   5
BRANCH   2  13
HETATM   13  C           1     -34.108  -3.584 -12.384  0.00  0.00     0.270 C 
HETATM   14  C           1     -32.828  -3.731 -11.571  0.00  0.00     0.050 C 
BRANCH  13  15
HETATM   15  N           1     -33.850  -4.003 -13.801  0.00  0.00    -0.067 N 
HETATM   16  H           1     -32.871  -4.357 -13.887  0.00  0.00     0.275 HD
HETATM   17  H           1     -34.520  -4.760 -14.067  0.00  0.00     0.275 HD
HETATM   18  H           1     -33.980  -3.182 -14.435  0.00  0.00     0.275 HD
ENDBRANCH  13  15
ENDBRANCH   2  13
TORSDOF 7
ENDMDL
MODEL 9
REMARK VINA RESULT:      -4.5      7.861      9.985
REMARK  7 active torsions:
REMARK  status: ('A' for Active; 'I' for Inactive)
REMARK    1  A    between atoms: Se_2  and  C_3 
REMARK    2  A    between atoms: C_3  and  C_17 
REMARK    3  A    between atoms: C_4  and  C_18 
REMARK    4  A    between atoms: N_7  and  C_18 
REMARK       I    between atoms: N_7  and  C_8 
REMARK    5  A    between atoms: C_8  and  C_9 
REMARK    6  A    between atoms: C_9  and  N_11 
REMARK    7  A    between atoms: C_17  and  C_18 
ROOT
HETATM    1  N           1     -21.876  -9.527  -0.935  0.00  0.00    -0.345 N 
HETATM    2  C           1     -21.653 -10.439   0.061  0.00  0.00     0.248 C 
HETATM    3  O           1     -20.985 -10.133   1.021  0.00  0.00    -0.271 OA
HETATM    4  H           1     -22.436  -9.782  -1.739  0.00  0.00     0.163 HD
ENDROOT
BRANCH   1   5
HETATM    5  C           1     -21.313  -8.194  -0.837  0.00  0.00     0.185 C 
BRANCH   5   6
HETATM    6  C           1     -22.426  -7.188  -0.684  0.00  0.00     0.196 C 
HETATM    7  O           1     -22.417  -6.138  -1.361  0.00  0.00    -0.646 OA
HETATM    8  O           1     -23.359  -7.405   0.119  0.00  0.00    -0.646 OA
ENDBRANCH   5   6
BRANCH   5   9
HETATM    9  C           1     -20.519  -7.886  -2.101  0.00  0.00     0.036 C 
BRANCH   9  10
HETATM   10  C           1     -21.029  -8.753  -3.245  0.00  0.00     0.003 C 
BRANCH  10  11
HETATM   11 Se           1     -20.638  -7.882  -4.944  0.00  0.00     0.000 Se
HETATM   12  C           1     -22.171  -6.681  -4.869  0.00  0.00     0.000 C 
ENDBRANCH  10  11
ENDBRANCH   9  10
ENDBRANCH   5   9
ENDBRANCH   1   5
BRANCH   2  13
HETATM   13  C           1     -22.239 -11.825  -0.040  0.00  0.00     0.270 C 
HETATM   14  C           1     -23.759 -11.740   0.025  0.00  0.00     0.050 C 
BRANCH  13  15
HETATM   15  N           1     -21.737 -12.665   1.097  0.00  0.00    -0.067 N 
HETATM   16  H           1     -21.720 -12.093   1.972  0.00  0.00     0.275 HD
HETATM   17  H           1     -22.372 -13.485   1.230  0.00  0.00     0.275 HD
HETATM   18  H           1     -20.772 -13.001   0.882  0.00  0.00     0.275 HD
ENDBRANCH  13  15
ENDBRANCH   2  13
TORSDOF 7
ENDMDL
