MODEL 1
REMARK VINA RESULT:      -6.0      0.000      0.000
REMARK  9 active torsions:
REMARK  status: ('A' for Active; 'I' for Inactive)
REMARK    1  A    between atoms: C_3  and  C_4 
REMARK    2  A    between atoms: C_3  and  C_11 
REMARK    3  A    between atoms: N_6  and  C_21 
REMARK    4  A    between atoms: S_8  and  C_9 
REMARK    5  A    between atoms: C_9  and  C_12 
REMARK    6  A    between atoms: C_11  and  C_13 
REMARK    7  A    between atoms: C_11  and  N_19 
REMARK    8  A    between atoms: C_12  and  C_21 
REMARK       I    between atoms: N_19  and  C_20 
REMARK    9  A    between atoms: C_20  and  C_21 
ROOT
HETATM    1  O           1     -21.699  -3.386  -7.484  0.00  0.00    -0.271 OA
HETATM    2  H           1     -22.356  -5.778  -9.404  0.00  0.00     0.163 HD
HETATM    3  N           1     -22.329  -4.821  -9.075  0.00  0.00    -0.344 N 
HETATM    4  C           1     -21.732  -4.527  -7.878  0.00  0.00     0.249 C 
ENDROOT
BRANCH   4   5
HETATM    5  C           1     -21.115  -5.628  -7.051  0.00  0.00     0.275 C 
BRANCH   5   6
HETATM    6  N           1     -19.728  -5.229  -6.643  0.00  0.00    -0.066 N 
HETATM    7  H           1     -19.035  -5.672  -7.287  0.00  0.00     0.275 HD
HETATM    8  H           1     -19.547  -5.547  -5.665  0.00  0.00     0.275 HD
HETATM    9  H           1     -19.637  -4.189  -6.694  0.00  0.00     0.275 HD
ENDBRANCH   5   6
BRANCH   5  10
HETATM   10  C           1     -21.961  -5.865  -5.808  0.00  0.00     0.053 C 
BRANCH  10  11
HETATM   11  C           1     -21.077  -5.789  -4.569  0.00  0.00     0.076 C 
BRANCH  11  12
HETATM   12  S           1     -21.421  -7.209  -3.492  0.00  0.00    -0.173 SA
HETATM   13  C           1     -22.068  -6.248  -2.096  0.00  0.00     0.089 C 
ENDBRANCH  11  12
ENDBRANCH  10  11
ENDBRANCH   5  10
ENDBRANCH   4   5
BRANCH   3  14
HETATM   14  C           1     -22.921  -3.763  -9.869  0.00  0.00     0.189 C 
BRANCH  14  15
HETATM   15  C           1     -22.543  -3.955 -11.332  0.00  0.00     0.014 C 
HETATM   16  C           1     -22.901  -2.700 -12.117  0.00  0.00     0.012 C 
BRANCH  15  17
HETATM   17  C           1     -21.046  -4.212 -11.439  0.00  0.00     0.002 C 
HETATM   18  C           1     -20.289  -2.909 -11.217  0.00  0.00     0.005 C 
ENDBRANCH  15  17
ENDBRANCH  14  15
BRANCH  14  19
HETATM   19  C           1     -24.423  -3.809  -9.726  0.00  0.00     0.197 C 
HETATM   20  O           1     -25.059  -2.761  -9.483  0.00  0.00    -0.646 OA
HETATM   21  O           1     -25.030  -4.894  -9.853  0.00  0.00    -0.646 OA
ENDBRANCH  14  19
ENDBRANCH   3  14
TORSDOF 9
ENDMDL
MODEL 2
REMARK VINA RESULT:      -5.4      3.157      6.569
REMARK  9 active torsions:
REMARK  status: ('A' for Active; 'I' for Inactive)
REMARK    1  A    between atoms: C_3  and  C_4 
REMARK    2  A    between atoms: C_3  and  C_11 
REMARK    3  A    between atoms: N_6  and  C_21 
REMARK    4  A    between atoms: S_8  and  C_9 
REMARK    5  A    between atoms: C_9  and  C_12 
REMARK    6  A    between atoms: C_11  and  C_13 
REMARK    7  A    between atoms: C_11  and  N_19 
REMARK    8  A    between atoms: C_12  and  C_21 
REMARK       I    between atoms: N_19  and  C_20 
REMARK    9  A    between atoms: C_20  and  C_21 
ROOT
HETATM    1  O           1     -22.846  -3.026  -8.848  0.00  0.00    -0.271 OA
HETATM    2  H           1     -22.294  -6.086  -8.428  0.00  0.00     0.163 HD
HETATM    3  N           1     -22.158  -5.088  -8.332  0.00  0.00    -0.344 N 
HETATM    4  C           1     -23.008  -4.218  -8.962  0.00  0.00     0.249 C 
ENDROOT
BRANCH   4   5
HETATM    5  C           1     -24.146  -4.748  -9.799  0.00  0.00     0.275 C 
BRANCH   5   6
HETATM    6  N           1     -25.298  -3.789  -9.738  0.00  0.00    -0.066 N 
HETATM    7  H           1     -26.123  -4.263  -9.306  0.00  0.00     0.275 HD
HETATM    8  H           1     -25.543  -3.476 -10.703  0.00  0.00     0.275 HD
HETATM    9  H           1     -25.030  -2.960  -9.160  0.00  0.00     0.275 HD
ENDBRANCH   5   6
BRANCH   5  10
HETATM   10  C           1     -23.688  -4.899 -11.243  0.00  0.00     0.053 C 
BRANCH  10  11
HETATM   11  C           1     -24.135  -3.685 -12.048  0.00  0.00     0.076 C 
BRANCH  11  12
HETATM   12  S           1     -22.678  -2.743 -12.582  0.00  0.00    -0.173 SA
HETATM   13  C           1     -23.079  -2.743 -14.352  0.00  0.00     0.089 C 
ENDBRANCH  11  12
ENDBRANCH  10  11
ENDBRANCH   5  10
ENDBRANCH   4   5
BRANCH   3  14
HETATM   14  C           1     -21.065  -4.578  -7.528  0.00  0.00     0.189 C 
BRANCH  14  15
HETATM   15  C           1     -20.852  -5.490  -6.326  0.00  0.00     0.014 C 
HETATM   16  C           1     -20.139  -4.717  -5.224  0.00  0.00     0.012 C 
BRANCH  15  17
HETATM   17  C           1     -22.201  -5.976  -5.814  0.00  0.00     0.002 C 
HETATM   18  C           1     -21.999  -7.198  -4.927  0.00  0.00     0.005 C 
ENDBRANCH  15  17
ENDBRANCH  14  15
BRANCH  14  19
HETATM   19  C           1     -19.806  -4.539  -8.359  0.00  0.00     0.197 C 
HETATM   20  O           1     -19.841  -4.877  -9.562  0.00  0.00    -0.646 OA
HETATM   21  O           1     -18.728  -4.169  -7.845  0.00  0.00    -0.646 OA
ENDBRANCH  14  19
ENDBRANCH   3  14
TORSDOF 9
ENDMDL
MODEL 3
REMARK VINA RESULT:      -5.4      3.391      7.257
REMARK  9 active torsions:
REMARK  status: ('A' for Active; 'I' for Inactive)
REMARK    1  A    between atoms: C_3  and  C_4 
REMARK    2  A    between atoms: C_3  and  C_11 
REMARK    3  A    between atoms: N_6  and  C_21 
REMARK    4  A    between atoms: S_8  and  C_9 
REMARK    5  A    between atoms: C_9  and  C_12 
REMARK    6  A    between atoms: C_11  and  C_13 
REMARK    7  A    between atoms: C_11  and  N_19 
REMARK    8  A    between atoms: C_12  and  C_21 
REMARK       I    between atoms: N_19  and  C_20 
REMARK    9  A    between atoms: C_20  and  C_21 
ROOT
HETATM    1  O           1     -19.908  -4.971  -6.036  0.00  0.00    -0.271 OA
HETATM    2  H           1     -22.434  -6.815  -5.797  0.00  0.00     0.163 HD
HETATM    3  N           1     -21.492  -6.491  -5.623  0.00  0.00    -0.344 N 
HETATM    4  C           1     -21.034  -5.358  -6.241  0.00  0.00     0.249 C 
ENDROOT
BRANCH   4   5
HETATM    5  C           1     -21.935  -4.594  -7.181  0.00  0.00     0.275 C 
BRANCH   5   6
HETATM    6  N           1     -21.629  -3.128  -7.082  0.00  0.00    -0.066 N 
HETATM    7  H           1     -22.353  -2.586  -7.605  0.00  0.00     0.275 HD
HETATM    8  H           1     -20.688  -2.940  -7.494  0.00  0.00     0.275 HD
HETATM    9  H           1     -21.634  -2.839  -6.078  0.00  0.00     0.275 HD
ENDBRANCH   5   6
BRANCH   5  10
HETATM   10  C           1     -21.699  -5.066  -8.608  0.00  0.00     0.053 C 
BRANCH  10  11
HETATM   11  C           1     -22.438  -4.151  -9.576  0.00  0.00     0.076 C 
BRANCH  11  12
HETATM   12  S           1     -21.479  -3.990 -11.109  0.00  0.00    -0.173 SA
HETATM   13  C           1     -22.567  -2.769 -11.897  0.00  0.00     0.089 C 
ENDBRANCH  11  12
ENDBRANCH  10  11
ENDBRANCH   5  10
ENDBRANCH   4   5
BRANCH   3  14
HETATM   14  C           1     -20.626  -7.224  -4.721  0.00  0.00     0.189 C 
BRANCH  14  15
HETATM   15  C           1     -21.383  -7.541  -3.438  0.00  0.00     0.014 C 
HETATM   16  C           1     -20.454  -8.256  -2.465  0.00  0.00     0.012 C 
BRANCH  15  17
HETATM   17  C           1     -21.878  -6.246  -2.809  0.00  0.00     0.002 C 
HETATM   18  C           1     -22.254  -6.497  -1.354  0.00  0.00     0.005 C 
ENDBRANCH  15  17
ENDBRANCH  14  15
BRANCH  14  19
HETATM   19  C           1     -20.190  -8.511  -5.379  0.00  0.00     0.197 C 
HETATM   20  O           1     -18.979  -8.710  -5.619  0.00  0.00    -0.646 OA
HETATM   21  O           1     -21.039  -9.376  -5.684  0.00  0.00    -0.646 OA
ENDBRANCH  14  19
ENDBRANCH   3  14
TORSDOF 9
ENDMDL
MODEL 4
REMARK VINA RESULT:      -5.1      3.639      7.221
REMARK  9 active torsions:
REMARK  status: ('A' for Active; 'I' for Inactive)
REMARK    1  A    between atoms: C_3  and  C_4 
REMARK    2  A    between atoms: C_3  and  C_11 
REMARK    3  A    between atoms: N_6  and  C_21 
REMARK    4  A    between atoms: S_8  and  C_9 
REMARK    5  A    between atoms: C_9  and  C_12 
REMARK    6  A    between atoms: C_11  and  C_13 
REMARK    7  A    between atoms: C_11  and  N_19 
REMARK    8  A    between atoms: C_12  and  C_21 
REMARK       I    between atoms: N_19  and  C_20 
REMARK    9  A    between atoms: C_20  and  C_21 
ROOT
HETATM    1  O           1     -22.577  -5.890  -5.498  0.00  0.00    -0.271 OA
HETATM    2  H           1     -19.748  -6.818  -4.510  0.00  0.00     0.163 HD
HETATM    3  N           1     -20.758  -6.772  -4.548  0.00  0.00    -0.344 N 
HETATM    4  C           1     -21.371  -5.946  -5.452  0.00  0.00     0.249 C 
ENDROOT
BRANCH   4   5
HETATM    5  C           1     -20.541  -5.105  -6.391  0.00  0.00     0.275 C 
BRANCH   5   6
HETATM    6  N           1     -19.985  -5.974  -7.480  0.00  0.00    -0.066 N 
HETATM    7  H           1     -19.253  -5.447  -8.006  0.00  0.00     0.275 HD
HETATM    8  H           1     -20.753  -6.249  -8.133  0.00  0.00     0.275 HD
HETATM    9  H           1     -19.562  -6.832  -7.058  0.00  0.00     0.275 HD
ENDBRANCH   5   6
BRANCH   5  10
HETATM   10  C           1     -21.412  -4.018  -7.004  0.00  0.00     0.053 C 
BRANCH  10  11
HETATM   11  C           1     -21.528  -4.246  -8.506  0.00  0.00     0.076 C 
BRANCH  11  12
HETATM   12  S           1     -23.251  -4.011  -9.024  0.00  0.00    -0.173 SA
HETATM   13  C           1     -22.908  -3.867 -10.800  0.00  0.00     0.089 C 
ENDBRANCH  11  12
ENDBRANCH  10  11
ENDBRANCH   5  10
ENDBRANCH   4   5
BRANCH   3  14
HETATM   14  C           1     -21.556  -7.579  -3.647  0.00  0.00     0.189 C 
BRANCH  14  15
HETATM   15  C           1     -20.911  -8.951  -3.489  0.00  0.00     0.014 C 
HETATM   16  C           1     -21.783 -10.001  -4.164  0.00  0.00     0.012 C 
BRANCH  15  17
HETATM   17  C           1     -19.534  -8.940  -4.139  0.00  0.00     0.002 C 
HETATM   18  C           1     -18.487  -9.371  -3.120  0.00  0.00     0.005 C 
ENDBRANCH  15  17
ENDBRANCH  14  15
BRANCH  14  19
HETATM   19  C           1     -21.633  -6.902  -2.300  0.00  0.00     0.197 C 
HETATM   20  O           1     -22.294  -5.849  -2.168  0.00  0.00    -0.646 OA
HETATM   21  O           1     -21.036  -7.393  -1.318  0.00  0.00    -0.646 OA
ENDBRANCH  14  19
ENDBRANCH   3  14
TORSDOF 9
ENDMDL
MODEL 5
REMARK VINA RESULT:      -5.1      2.309      3.164
REMARK  9 active torsions:
REMARK  status: ('A' for Active; 'I' for Inactive)
REMARK    1  A    between atoms: C_3  and  C_4 
REMARK    2  A    between atoms: C_3  and  C_11 
REMARK    3  A    between atoms: N_6  and  C_21 
REMARK    4  A    between atoms: S_8  and  C_9 
REMARK    5  A    between atoms: C_9  and  C_12 
REMARK    6  A    between atoms: C_11  and  C_13 
REMARK    7  A    between atoms: C_11  and  N_19 
REMARK    8  A    between atoms: C_12  and  C_21 
REMARK       I    between atoms: N_19  and  C_20 
REMARK    9  A    between atoms: C_20  and  C_21 
ROOT
HETATM    1  O           1     -20.665  -6.610  -7.408  0.00  0.00    -0.271 OA
HETATM    2  H           1     -22.512  -4.076  -7.330  0.00  0.00     0.163 HD
HETATM    3  N           1     -21.923  -4.794  -7.732  0.00  0.00    -0.344 N 
HETATM    4  C           1     -21.368  -5.754  -6.928  0.00  0.00     0.249 C 
ENDROOT
BRANCH   4   5
HETATM    5  C           1     -21.634  -5.740  -5.443  0.00  0.00     0.275 C 
BRANCH   5   6
HETATM    6  N           1     -23.070  -6.092  -5.190  0.00  0.00    -0.066 N 
HETATM    7  H           1     -23.444  -6.634  -6.001  0.00  0.00     0.275 HD
HETATM    8  H           1     -23.627  -5.217  -5.070  0.00  0.00     0.275 HD
HETATM    9  H           1     -23.138  -6.670  -4.322  0.00  0.00     0.275 HD
ENDBRANCH   5   6
BRANCH   5  10
HETATM   10  C           1     -20.734  -6.758  -4.756  0.00  0.00     0.053 C 
BRANCH  10  11
HETATM   11  C           1     -21.590  -7.765  -4.000  0.00  0.00     0.076 C 
BRANCH  11  12
HETATM   12  S           1     -21.143  -7.739  -2.241  0.00  0.00    -0.173 SA
HETATM   13  C           1     -22.161  -6.303  -1.798  0.00  0.00     0.089 C 
ENDBRANCH  11  12
ENDBRANCH  10  11
ENDBRANCH   5  10
ENDBRANCH   4   5
BRANCH   3  14
HETATM   14  C           1     -21.668  -4.808  -9.159  0.00  0.00     0.189 C 
BRANCH  14  15
HETATM   15  C           1     -22.839  -4.163  -9.890  0.00  0.00     0.014 C 
HETATM   16  C           1     -23.437  -5.163 -10.870  0.00  0.00     0.012 C 
BRANCH  15  17
HETATM   17  C           1     -23.899  -3.746  -8.879  0.00  0.00     0.002 C 
HETATM   18  C           1     -25.094  -3.148  -9.611  0.00  0.00     0.005 C 
ENDBRANCH  15  17
ENDBRANCH  14  15
BRANCH  14  19
HETATM   19  C           1     -20.405  -4.034  -9.450  0.00  0.00     0.197 C 
HETATM   20  O           1     -19.645  -3.704  -8.515  0.00  0.00    -0.646 OA
HETATM   21  O           1     -20.120  -3.723 -10.627  0.00  0.00    -0.646 OA
ENDBRANCH  14  19
ENDBRANCH   3  14
TORSDOF 9
ENDMDL
MODEL 6
REMARK VINA RESULT:      -5.0      3.970      7.617
REMARK  9 active torsions:
REMARK  status: ('A' for Active; 'I' for Inactive)
REMARK    1  A    between atoms: C_3  and  C_4 
REMARK    2  A    between atoms: C_3  and  C_11 
REMARK    3  A    between atoms: N_6  and  C_21 
REMARK    4  A    between atoms: S_8  and  C_9 
REMARK    5  A    between atoms: C_9  and  C_12 
REMARK    6  A    between atoms: C_11  and  C_13 
REMARK    7  A    between atoms: C_11  and  N_19 
REMARK    8  A    between atoms: C_12  and  C_21 
REMARK       I    between atoms: N_19  and  C_20 
REMARK    9  A    between atoms: C_20  and  C_21 
ROOT
HETATM    1  O           1     -19.806  -7.511  -5.893  0.00  0.00    -0.271 OA
HETATM    2  H           1     -22.535  -7.357  -4.354  0.00  0.00     0.163 HD
HETATM    3  N           1     -21.612  -7.695  -4.591  0.00  0.00    -0.344 N 
HETATM    4  C           1     -20.909  -7.107  -5.609  0.00  0.00     0.249 C 
ENDROOT
BRANCH   4   5
HETATM    5  C           1     -21.512  -5.956  -6.376  0.00  0.00     0.275 C 
BRANCH   5   6
HETATM    6  N           1     -22.822  -5.574  -5.754  0.00  0.00    -0.066 N 
HETATM    7  H           1     -23.013  -6.193  -4.935  0.00  0.00     0.275 HD
HETATM    8  H           1     -23.587  -5.682  -6.458  0.00  0.00     0.275 HD
HETATM    9  H           1     -22.779  -4.579  -5.437  0.00  0.00     0.275 HD
ENDBRANCH   5   6
BRANCH   5  10
HETATM   10  C           1     -20.564  -4.766  -6.335  0.00  0.00     0.053 C 
BRANCH  10  11
HETATM   11  C           1     -21.099  -3.658  -7.234  0.00  0.00     0.076 C 
BRANCH  11  12
HETATM   12  S           1     -21.332  -4.303  -8.915  0.00  0.00    -0.173 SA
HETATM   13  C           1     -23.080  -3.837  -9.066  0.00  0.00     0.089 C 
ENDBRANCH  11  12
ENDBRANCH  10  11
ENDBRANCH   5  10
ENDBRANCH   4   5
BRANCH   3  14
HETATM   14  C           1     -21.032  -8.800  -3.854  0.00  0.00     0.189 C 
BRANCH  14  15
HETATM   15  C           1     -21.341  -8.638  -2.371  0.00  0.00     0.014 C 
HETATM   16  C           1     -20.195  -9.213  -1.549  0.00  0.00     0.012 C 
BRANCH  15  17
HETATM   17  C           1     -21.506  -7.160  -2.047  0.00  0.00     0.002 C 
HETATM   18  C           1     -22.379  -7.004  -0.809  0.00  0.00     0.005 C 
ENDBRANCH  15  17
ENDBRANCH  14  15
BRANCH  14  19
HETATM   19  C           1     -21.620 -10.099  -4.352  0.00  0.00     0.197 C 
HETATM   20  O           1     -22.570 -10.629  -3.738  0.00  0.00    -0.646 OA
HETATM   21  O           1     -21.156 -10.642  -5.378  0.00  0.00    -0.646 OA
ENDBRANCH  14  19
ENDBRANCH   3  14
TORSDOF 9
ENDMDL
MODEL 7
REMARK VINA RESULT:      -4.9      4.358      8.471
REMARK  9 active torsions:
REMARK  status: ('A' for Active; 'I' for Inactive)
REMARK    1  A    between atoms: C_3  and  C_4 
REMARK    2  A    between atoms: C_3  and  C_11 
REMARK    3  A    between atoms: N_6  and  C_21 
REMARK    4  A    between atoms: S_8  and  C_9 
REMARK    5  A    between atoms: C_9  and  C_12 
REMARK    6  A    between atoms: C_11  and  C_13 
REMARK    7  A    between atoms: C_11  and  N_19 
REMARK    8  A    between atoms: C_12  and  C_21 
REMARK       I    between atoms: N_19  and  C_20 
REMARK    9  A    between atoms: C_20  and  C_21 
ROOT
HETATM    1  O           1     -19.612  -8.249  -4.525  0.00  0.00    -0.271 OA
HETATM    2  H           1     -22.360  -7.478  -3.223  0.00  0.00     0.163 HD
HETATM    3  N           1     -21.431  -7.874  -3.284  0.00  0.00    -0.344 N 
HETATM    4  C           1     -20.722  -7.777  -4.451  0.00  0.00     0.249 C 
ENDROOT
BRANCH   4   5
HETATM    5  C           1     -21.326  -7.081  -5.646  0.00  0.00     0.275 C 
BRANCH   5   6
HETATM    6  N           1     -22.387  -6.127  -5.185  0.00  0.00    -0.066 N 
HETATM    7  H           1     -22.639  -6.339  -4.193  0.00  0.00     0.275 HD
HETATM    8  H           1     -23.233  -6.228  -5.788  0.00  0.00     0.275 HD
HETATM    9  H           1     -22.026  -5.148  -5.251  0.00  0.00     0.275 HD
ENDBRANCH   5   6
BRANCH   5  10
HETATM   10  C           1     -20.242  -6.314  -6.390  0.00  0.00     0.053 C 
BRANCH  10  11
HETATM   11  C           1     -20.489  -4.817  -6.247  0.00  0.00     0.076 C 
BRANCH  11  12
HETATM   12  S           1     -20.348  -4.022  -7.873  0.00  0.00    -0.173 SA
HETATM   13  C           1     -21.996  -4.494  -8.468  0.00  0.00     0.089 C 
ENDBRANCH  11  12
ENDBRANCH  10  11
ENDBRANCH   5  10
ENDBRANCH   4   5
BRANCH   3  14
HETATM   14  C           1     -20.850  -8.542  -2.136  0.00  0.00     0.189 C 
BRANCH  14  15
HETATM   15  C           1     -21.283  -7.828  -0.861  0.00  0.00     0.014 C 
HETATM   16  C           1     -22.249  -6.705  -1.213  0.00  0.00     0.012 C 
BRANCH  15  17
HETATM   17  C           1     -21.973  -8.821   0.065  0.00  0.00     0.002 C 
HETATM   18  C           1     -23.243  -8.195   0.627  0.00  0.00     0.005 C 
ENDBRANCH  15  17
ENDBRANCH  14  15
BRANCH  14  19
HETATM   19  C           1     -21.323  -9.974  -2.097  0.00  0.00     0.197 C 
HETATM   20  O           1     -22.457 -10.270  -2.531  0.00  0.00    -0.646 OA
HETATM   21  O           1     -20.580 -10.865  -1.631  0.00  0.00    -0.646 OA
ENDBRANCH  14  19
ENDBRANCH   3  14
TORSDOF 9
ENDMDL
MODEL 8
REMARK VINA RESULT:      -4.7      5.340      9.391
REMARK  9 active torsions:
REMARK  status: ('A' for Active; 'I' for Inactive)
REMARK    1  A    between atoms: C_3  and  C_4 
REMARK    2  A    between atoms: C_3  and  C_11 
REMARK    3  A    between atoms: N_6  and  C_21 
REMARK    4  A    between atoms: S_8  and  C_9 
REMARK    5  A    between atoms: C_9  and  C_12 
REMARK    6  A    between atoms: C_11  and  C_13 
REMARK    7  A    between atoms: C_11  and  N_19 
REMARK    8  A    between atoms: C_12  and  C_21 
REMARK       I    between atoms: N_19  and  C_20 
REMARK    9  A    between atoms: C_20  and  C_21 
ROOT
HETATM    1  O           1     -22.318  -6.822  -1.733  0.00  0.00    -0.271 OA
HETATM    2  H           1     -20.968  -9.610  -2.230  0.00  0.00     0.163 HD
HETATM    3  N           1     -21.550  -8.919  -1.774  0.00  0.00    -0.344 N 
HETATM    4  C           1     -21.623  -7.647  -2.276  0.00  0.00     0.249 C 
ENDROOT
BRANCH   4   5
HETATM    5  C           1     -20.834  -7.275  -3.507  0.00  0.00     0.275 C 
BRANCH   5   6
HETATM    6  N           1     -20.458  -8.521  -4.254  0.00  0.00    -0.066 N 
HETATM    7  H           1     -20.795  -9.358  -3.728  0.00  0.00     0.275 HD
HETATM    8  H           1     -19.419  -8.568  -4.354  0.00  0.00     0.275 HD
HETATM    9  H           1     -20.899  -8.504  -5.202  0.00  0.00     0.275 HD
ENDBRANCH   5   6
BRANCH   5  10
HETATM   10  C           1     -21.680  -6.382  -4.404  0.00  0.00     0.053 C 
BRANCH  10  11
HETATM   11  C           1     -20.770  -5.475  -5.222  0.00  0.00     0.076 C 
BRANCH  11  12
HETATM   12  S           1     -21.079  -5.743  -6.991  0.00  0.00    -0.173 SA
HETATM   13  C           1     -21.682  -4.068  -7.344  0.00  0.00     0.089 C 
ENDBRANCH  11  12
ENDBRANCH  10  11
ENDBRANCH   5  10
ENDBRANCH   4   5
BRANCH   3  14
HETATM   14  C           1     -22.309  -9.276  -0.592  0.00  0.00     0.189 C 
BRANCH  14  15
HETATM   15  C           1     -22.863 -10.686  -0.751  0.00  0.00     0.014 C 
HETATM   16  C           1     -24.197 -10.791  -0.024  0.00  0.00     0.012 C 
BRANCH  15  17
HETATM   17  C           1     -23.066 -10.986  -2.230  0.00  0.00     0.002 C 
HETATM   18  C           1     -22.497 -12.361  -2.553  0.00  0.00     0.005 C 
ENDBRANCH  15  17
ENDBRANCH  14  15
BRANCH  14  19
HETATM   19  C           1     -21.408  -9.223   0.618  0.00  0.00     0.197 C 
HETATM   20  O           1     -21.368  -8.191   1.322  0.00  0.00    -0.646 OA
HETATM   21  O           1     -20.702 -10.211   0.915  0.00  0.00    -0.646 OA
ENDBRANCH  14  19
ENDBRANCH   3  14
TORSDOF 9
ENDMDL
MODEL 9
REMARK VINA RESULT:      -4.7      5.403      9.619
REMARK  9 active torsions:
REMARK  status: ('A' for Active; 'I' for Inactive)
REMARK    1  A    between atoms: C_3  and  C_4 
REMARK    2  A    between atoms: C_3  and  C_11 
REMARK    3  A    between atoms: N_6  and  C_21 
REMARK    4  A    between atoms: S_8  and  C_9 
REMARK    5  A    between atoms: C_9  and  C_12 
REMARK    6  A    between atoms: C_11  and  C_13 
REMARK    7  A    between atoms: C_11  and  N_19 
REMARK    8  A    between atoms: C_12  and  C_21 
REMARK       I    between atoms: N_19  and  C_20 
REMARK    9  A    between atoms: C_20  and  C_21 
ROOT
HETATM    1  O           1     -20.058  -7.788  -1.841  0.00  0.00    -0.271 OA
HETATM    2  H           1     -22.596  -9.515  -2.487  0.00  0.00     0.163 HD
HETATM    3  N           1     -21.704  -9.280  -2.071  0.00  0.00    -0.344 N 
HETATM    4  C           1     -21.123  -8.069  -2.337  0.00  0.00     0.249 C 
ENDROOT
BRANCH   4   5
HETATM    5  C           1     -21.812  -7.085  -3.250  0.00  0.00     0.275 C 
BRANCH   5   6
HETATM    6  N           1     -22.322  -5.928  -2.442  0.00  0.00    -0.066 N 
HETATM    7  H           1     -21.886  -5.946  -1.493  0.00  0.00     0.275 HD
HETATM    8  H           1     -23.360  -5.998  -2.349  0.00  0.00     0.275 HD
HETATM    9  H           1     -22.074  -5.033  -2.923  0.00  0.00     0.275 HD
ENDBRANCH   5   6
BRANCH   5  10
HETATM   10  C           1     -20.825  -6.580  -4.292  0.00  0.00     0.053 C 
BRANCH  10  11
HETATM   11  C           1     -21.577  -5.835  -5.387  0.00  0.00     0.076 C 
BRANCH  11  12
HETATM   12  S           1     -20.415  -4.806  -6.327  0.00  0.00    -0.173 SA
HETATM   13  C           1     -21.642  -4.116  -7.473  0.00  0.00     0.089 C 
ENDBRANCH  11  12
ENDBRANCH  10  11
ENDBRANCH   5  10
ENDBRANCH   4   5
BRANCH   3  14
HETATM   14  C           1     -21.041 -10.225  -1.194  0.00  0.00     0.189 C 
BRANCH  14  15
HETATM   15  C           1     -21.781 -10.287   0.136  0.00  0.00     0.014 C 
HETATM   16  C           1     -21.029  -9.466   1.174  0.00  0.00     0.012 C 
BRANCH  15  17
HETATM   17  C           1     -23.185  -9.723  -0.038  0.00  0.00     0.002 C 
HETATM   18  C           1     -24.197 -10.861  -0.025  0.00  0.00     0.005 C 
ENDBRANCH  15  17
ENDBRANCH  14  15
BRANCH  14  19
HETATM   19  C           1     -21.041 -11.591  -1.835  0.00  0.00     0.197 C 
HETATM   20  O           1     -20.773 -11.711  -3.050  0.00  0.00    -0.646 OA
HETATM   21  O           1     -21.309 -12.602  -1.151  0.00  0.00    -0.646 OA
ENDBRANCH  14  19
ENDBRANCH   3  14
TORSDOF 9
ENDMDL
