MODEL 1
REMARK VINA RESULT:      -7.3      0.000      0.000
REMARK  9 active torsions:
REMARK  status: ('A' for Active; 'I' for Inactive)
REMARK       I    between atoms: N_1  and  C_15 
REMARK       I    between atoms: N_2  and  C_15 
REMARK    1  A    between atoms: N_2  and  C_21 
REMARK       I    between atoms: C_5  and  N_20 
REMARK    2  A    between atoms: C_5  and  C_14 
REMARK    3  A    between atoms: C_9  and  C_24 
REMARK    4  A    between atoms: C_9  and  C_19 
REMARK    5  A    between atoms: C_9  and  N_20 
REMARK    6  A    between atoms: C_10  and  C_14 
REMARK    7  A    between atoms: C_14  and  N_26 
REMARK    8  A    between atoms: C_21  and  C_23 
REMARK    9  A    between atoms: C_23  and  C_24 
ROOT
HETATM    1  C           1     -22.912  -3.656  -9.398  0.00  0.00     0.185 C 
ENDROOT
BRANCH   1   2
HETATM    2  C           1     -22.133  -4.002 -10.661  0.00  0.00     0.038 C 
BRANCH   2   3
HETATM    3  C           1     -22.211  -2.840 -11.641  0.00  0.00     0.023 C 
BRANCH   3   4
HETATM    4  C           1     -23.052  -3.246 -12.845  0.00  0.00     0.138 C 
BRANCH   4   5
HETATM    5  N           1     -23.745  -2.065 -13.380  0.00  0.00    -0.227 N 
HETATM    6  C           1     -23.513  -1.675 -14.562  0.00  0.00     0.665 C 
HETATM    7  N           1     -22.683  -2.303 -15.284  0.00  0.00    -0.235 N 
HETATM    8  N           1     -24.126  -0.631 -15.035  0.00  0.00    -0.235 N 
HETATM    9  H           1     -22.188  -3.147 -14.902  0.00  0.00     0.174 HD
HETATM   10  H           1     -22.490  -1.981 -16.264  0.00  0.00     0.174 HD
HETATM   11  H           1     -23.933  -0.310 -16.010  0.00  0.00     0.174 HD
HETATM   12  H           1     -24.810  -0.113 -14.439  0.00  0.00     0.174 HD
HETATM   13  H           1     -24.433  -1.544 -12.782  0.00  0.00     0.177 HD
ENDBRANCH   4   5
ENDBRANCH   3   4
ENDBRANCH   2   3
ENDBRANCH   1   2
BRANCH   1  14
HETATM   14  C           1     -24.391  -3.760  -9.675  0.00  0.00     0.196 C 
HETATM   15  O           1     -25.121  -2.750  -9.566  0.00  0.00    -0.646 OA
HETATM   16  O           1     -24.889  -4.856 -10.013  0.00  0.00    -0.646 OA
ENDBRANCH   1  14
BRANCH   1  17
HETATM   17  N           1     -22.552  -4.581  -8.341  0.00  0.00    -0.345 N 
HETATM   18  C           1     -21.837  -4.138  -7.260  0.00  0.00     0.249 C 
HETATM   19  O           1     -21.506  -2.979  -7.187  0.00  0.00    -0.271 OA
HETATM   20  H           1     -22.829  -5.552  -8.401  0.00  0.00     0.163 HD
BRANCH  18  21
HETATM   21  C           1     -21.463  -5.100  -6.159  0.00  0.00     0.278 C 
BRANCH  21  22
HETATM   22  C           1     -20.521  -6.163  -6.711  0.00  0.00     0.017 C 
HETATM   23  C           1     -19.250  -5.499  -7.225  0.00  0.00     0.012 C 
HETATM   24  C           1     -20.168  -7.150  -5.605  0.00  0.00     0.012 C 
ENDBRANCH  21  22
BRANCH  21  25
HETATM   25  N           1     -22.701  -5.758  -5.627  0.00  0.00    -0.066 N 
HETATM   26  H           1     -22.574  -5.970  -4.612  0.00  0.00     0.275 HD
HETATM   27  H           1     -23.518  -5.117  -5.750  0.00  0.00     0.275 HD
HETATM   28  H           1     -22.875  -6.647  -6.149  0.00  0.00     0.275 HD
ENDBRANCH  21  25
ENDBRANCH  18  21
ENDBRANCH   1  17
TORSDOF 9
ENDMDL
MODEL 2
REMARK VINA RESULT:      -7.2     11.351     13.453
REMARK  9 active torsions:
REMARK  status: ('A' for Active; 'I' for Inactive)
REMARK       I    between atoms: N_1  and  C_15 
REMARK       I    between atoms: N_2  and  C_15 
REMARK    1  A    between atoms: N_2  and  C_21 
REMARK       I    between atoms: C_5  and  N_20 
REMARK    2  A    between atoms: C_5  and  C_14 
REMARK    3  A    between atoms: C_9  and  C_24 
REMARK    4  A    between atoms: C_9  and  C_19 
REMARK    5  A    between atoms: C_9  and  N_20 
REMARK    6  A    between atoms: C_10  and  C_14 
REMARK    7  A    between atoms: C_14  and  N_26 
REMARK    8  A    between atoms: C_21  and  C_23 
REMARK    9  A    between atoms: C_23  and  C_24 
ROOT
HETATM    1  C           1     -35.789  -0.406 -11.523  0.00  0.00     0.185 C 
ENDROOT
BRANCH   1   2
HETATM    2  C           1     -35.472   0.571 -12.648  0.00  0.00     0.038 C 
BRANCH   2   3
HETATM    3  C           1     -36.410   0.319 -13.821  0.00  0.00     0.023 C 
BRANCH   3   4
HETATM    4  C           1     -35.641   0.469 -15.128  0.00  0.00     0.138 C 
BRANCH   4   5
HETATM    5  N           1     -34.975  -0.800 -15.454  0.00  0.00    -0.227 N 
HETATM    6  C           1     -35.284  -1.424 -16.511  0.00  0.00     0.665 C 
HETATM    7  N           1     -36.167  -0.955 -17.288  0.00  0.00    -0.235 N 
HETATM    8  N           1     -34.694  -2.547 -16.799  0.00  0.00    -0.235 N 
HETATM    9  H           1     -36.642  -0.048 -17.055  0.00  0.00     0.174 HD
HETATM   10  H           1     -36.423  -1.472 -18.165  0.00  0.00     0.174 HD
HETATM   11  H           1     -34.950  -3.061 -17.672  0.00  0.00     0.174 HD
HETATM   12  H           1     -33.966  -2.934 -16.158  0.00  0.00     0.174 HD
HETATM   13  H           1     -34.243  -1.190 -14.810  0.00  0.00     0.177 HD
ENDBRANCH   4   5
ENDBRANCH   3   4
ENDBRANCH   2   3
ENDBRANCH   1   2
BRANCH   1  14
HETATM   14  C           1     -37.212  -0.202 -11.065  0.00  0.00     0.196 C 
HETATM   15  O           1     -38.074  -1.079 -11.291  0.00  0.00    -0.646 OA
HETATM   16  O           1     -37.529   0.844 -10.458  0.00  0.00    -0.646 OA
ENDBRANCH   1  14
BRANCH   1  17
HETATM   17  N           1     -35.627  -1.764 -12.004  0.00  0.00    -0.345 N 
HETATM   18  C           1     -34.507  -2.478 -11.671  0.00  0.00     0.249 C 
HETATM   19  O           1     -33.655  -1.978 -10.977  0.00  0.00    -0.271 OA
HETATM   20  H           1     -36.341  -2.184 -12.585  0.00  0.00     0.163 HD
BRANCH  18  21
HETATM   21  C           1     -34.338  -3.892 -12.171  0.00  0.00     0.278 C 
BRANCH  21  22
HETATM   22  C           1     -33.298  -4.610 -11.322  0.00  0.00     0.017 C 
HETATM   23  C           1     -33.835  -5.973 -10.903  0.00  0.00     0.012 C 
HETATM   24  C           1     -32.022  -4.796 -12.134  0.00  0.00     0.012 C 
ENDBRANCH  21  22
BRANCH  21  25
HETATM   25  N           1     -33.884  -3.866 -13.601  0.00  0.00    -0.066 N 
HETATM   26  H           1     -34.713  -3.956 -14.231  0.00  0.00     0.275 HD
HETATM   27  H           1     -33.395  -2.963 -13.796  0.00  0.00     0.275 HD
HETATM   28  H           1     -33.228  -4.661 -13.772  0.00  0.00     0.275 HD
ENDBRANCH  21  25
ENDBRANCH  18  21
ENDBRANCH   1  17
TORSDOF 9
ENDMDL
MODEL 3
REMARK VINA RESULT:      -6.7     11.998     14.220
REMARK  9 active torsions:
REMARK  status: ('A' for Active; 'I' for Inactive)
REMARK       I    between atoms: N_1  and  C_15 
REMARK       I    between atoms: N_2  and  C_15 
REMARK    1  A    between atoms: N_2  and  C_21 
REMARK       I    between atoms: C_5  and  N_20 
REMARK    2  A    between atoms: C_5  and  C_14 
REMARK    3  A    between atoms: C_9  and  C_24 
REMARK    4  A    between atoms: C_9  and  C_19 
REMARK    5  A    between atoms: C_9  and  N_20 
REMARK    6  A    between atoms: C_10  and  C_14 
REMARK    7  A    between atoms: C_14  and  N_26 
REMARK    8  A    between atoms: C_21  and  C_23 
REMARK    9  A    between atoms: C_23  and  C_24 
ROOT
HETATM    1  C           1     -35.720  -0.766 -13.487  0.00  0.00     0.185 C 
ENDROOT
BRANCH   1   2
HETATM    2  C           1     -36.895  -0.190 -12.708  0.00  0.00     0.038 C 
BRANCH   2   3
HETATM    3  C           1     -36.801  -0.624 -11.251  0.00  0.00     0.023 C 
BRANCH   3   4
HETATM    4  C           1     -36.940   0.595 -10.348  0.00  0.00     0.138 C 
BRANCH   4   5
HETATM    5  N           1     -36.645   0.213  -8.959  0.00  0.00    -0.227 N 
HETATM    6  C           1     -36.926   1.003  -8.012  0.00  0.00     0.665 C 
HETATM    7  N           1     -37.461   2.124  -8.260  0.00  0.00    -0.235 N 
HETATM    8  N           1     -36.664   0.666  -6.784  0.00  0.00    -0.235 N 
HETATM    9  H           1     -37.673   2.397  -9.251  0.00  0.00     0.174 HD
HETATM   10  H           1     -37.695   2.780  -7.474  0.00  0.00     0.174 HD
HETATM   11  H           1     -36.897   1.319  -6.002  0.00  0.00     0.174 HD
HETATM   12  H           1     -36.222  -0.259  -6.580  0.00  0.00     0.174 HD
HETATM   13  H           1     -36.201  -0.716  -8.753  0.00  0.00     0.177 HD
ENDBRANCH   4   5
ENDBRANCH   3   4
ENDBRANCH   2   3
ENDBRANCH   1   2
BRANCH   1  14
HETATM   14  C           1     -34.861   0.360 -14.008  0.00  0.00     0.196 C 
HETATM   15  O           1     -34.610   1.344 -13.278  0.00  0.00    -0.646 OA
HETATM   16  O           1     -34.399   0.309 -15.168  0.00  0.00    -0.646 OA
ENDBRANCH   1  14
BRANCH   1  17
HETATM   17  N           1     -34.930  -1.612 -12.615  0.00  0.00    -0.345 N 
HETATM   18  C           1     -34.437  -2.802 -13.078  0.00  0.00     0.249 C 
HETATM   19  O           1     -34.659  -3.147 -14.214  0.00  0.00    -0.271 OA
HETATM   20  H           1     -34.744  -1.324 -11.663  0.00  0.00     0.163 HD
BRANCH  18  21
HETATM   21  C           1     -33.614  -3.683 -12.170  0.00  0.00     0.278 C 
BRANCH  21  22
HETATM   22  C           1     -34.454  -4.870 -11.718  0.00  0.00     0.017 C 
HETATM   23  C           1     -33.560  -5.889 -11.023  0.00  0.00     0.012 C 
HETATM   24  C           1     -35.527  -4.392 -10.748  0.00  0.00     0.012 C 
ENDBRANCH  21  22
BRANCH  21  25
HETATM   25  N           1     -33.177  -2.894 -10.971  0.00  0.00    -0.066 N 
HETATM   26  H           1     -32.235  -3.225 -10.662  0.00  0.00     0.275 HD
HETATM   27  H           1     -33.128  -1.880 -11.218  0.00  0.00     0.275 HD
HETATM   28  H           1     -33.865  -3.030 -10.195  0.00  0.00     0.275 HD
ENDBRANCH  21  25
ENDBRANCH  18  21
ENDBRANCH   1  17
TORSDOF 9
ENDMDL
MODEL 4
REMARK VINA RESULT:      -6.5      3.213      4.901
REMARK  9 active torsions:
REMARK  status: ('A' for Active; 'I' for Inactive)
REMARK       I    between atoms: N_1  and  C_15 
REMARK       I    between atoms: N_2  and  C_15 
REMARK    1  A    between atoms: N_2  and  C_21 
REMARK       I    between atoms: C_5  and  N_20 
REMARK    2  A    between atoms: C_5  and  C_14 
REMARK    3  A    between atoms: C_9  and  C_24 
REMARK    4  A    between atoms: C_9  and  C_19 
REMARK    5  A    between atoms: C_9  and  N_20 
REMARK    6  A    between atoms: C_10  and  C_14 
REMARK    7  A    between atoms: C_14  and  N_26 
REMARK    8  A    between atoms: C_21  and  C_23 
REMARK    9  A    between atoms: C_23  and  C_24 
ROOT
HETATM    1  C           1     -21.021  -5.375  -6.343  0.00  0.00     0.185 C 
ENDROOT
BRANCH   1   2
HETATM    2  C           1     -21.553  -4.017  -6.783  0.00  0.00     0.038 C 
BRANCH   2   3
HETATM    3  C           1     -21.740  -4.009  -8.294  0.00  0.00     0.023 C 
BRANCH   3   4
HETATM    4  C           1     -23.226  -3.919  -8.622  0.00  0.00     0.138 C 
BRANCH   4   5
HETATM    5  N           1     -23.395  -3.631 -10.054  0.00  0.00    -0.227 N 
HETATM    6  C           1     -24.555  -3.465 -10.533  0.00  0.00     0.665 C 
HETATM    7  N           1     -25.569  -3.547  -9.779  0.00  0.00    -0.235 N 
HETATM    8  N           1     -24.705  -3.211 -11.799  0.00  0.00    -0.235 N 
HETATM    9  H           1     -25.448  -3.753  -8.757  0.00  0.00     0.174 HD
HETATM   10  H           1     -26.531  -3.410 -10.177  0.00  0.00     0.174 HD
HETATM   11  H           1     -25.662  -3.074 -12.194  0.00  0.00     0.174 HD
HETATM   12  H           1     -23.868  -3.143 -12.421  0.00  0.00     0.174 HD
HETATM   13  H           1     -22.555  -3.563 -10.679  0.00  0.00     0.177 HD
ENDBRANCH   4   5
ENDBRANCH   3   4
ENDBRANCH   2   3
ENDBRANCH   1   2
BRANCH   1  14
HETATM   14  C           1     -19.658  -5.601  -6.948  0.00  0.00     0.196 C 
HETATM   15  O           1     -19.315  -6.750  -7.304  0.00  0.00    -0.646 OA
HETATM   16  O           1     -18.871  -4.641  -7.094  0.00  0.00    -0.646 OA
ENDBRANCH   1  14
BRANCH   1  17
HETATM   17  N           1     -20.919  -5.407  -4.897  0.00  0.00    -0.345 N 
HETATM   18  C           1     -21.410  -6.478  -4.200  0.00  0.00     0.249 C 
HETATM   19  O           1     -21.929  -7.396  -4.790  0.00  0.00    -0.271 OA
HETATM   20  H           1     -20.485  -4.638  -4.403  0.00  0.00     0.163 HD
BRANCH  18  21
HETATM   21  C           1     -21.304  -6.513  -2.696  0.00  0.00     0.278 C 
BRANCH  21  22
HETATM   22  C           1     -21.375  -7.956  -2.213  0.00  0.00     0.017 C 
HETATM   23  C           1     -19.966  -8.519  -2.085  0.00  0.00     0.012 C 
HETATM   24  C           1     -22.067  -8.003  -0.857  0.00  0.00     0.012 C 
ENDBRANCH  21  22
BRANCH  21  25
HETATM   25  N           1     -22.435  -5.730  -2.097  0.00  0.00    -0.066 N 
HETATM   26  H           1     -23.322  -6.276  -2.186  0.00  0.00     0.275 HD
HETATM   27  H           1     -22.238  -5.548  -1.087  0.00  0.00     0.275 HD
HETATM   28  H           1     -22.535  -4.820  -2.601  0.00  0.00     0.275 HD
ENDBRANCH  21  25
ENDBRANCH  18  21
ENDBRANCH   1  17
TORSDOF 9
ENDMDL
MODEL 5
REMARK VINA RESULT:      -6.3      2.617      4.102
REMARK  9 active torsions:
REMARK  status: ('A' for Active; 'I' for Inactive)
REMARK       I    between atoms: N_1  and  C_15 
REMARK       I    between atoms: N_2  and  C_15 
REMARK    1  A    between atoms: N_2  and  C_21 
REMARK       I    between atoms: C_5  and  N_20 
REMARK    2  A    between atoms: C_5  and  C_14 
REMARK    3  A    between atoms: C_9  and  C_24 
REMARK    4  A    between atoms: C_9  and  C_19 
REMARK    5  A    between atoms: C_9  and  N_20 
REMARK    6  A    between atoms: C_10  and  C_14 
REMARK    7  A    between atoms: C_14  and  N_26 
REMARK    8  A    between atoms: C_21  and  C_23 
REMARK    9  A    between atoms: C_23  and  C_24 
ROOT
HETATM    1  C           1     -21.276  -5.376  -7.135  0.00  0.00     0.185 C 
ENDROOT
BRANCH   1   2
HETATM    2  C           1     -22.259  -4.358  -7.699  0.00  0.00     0.038 C 
BRANCH   2   3
HETATM    3  C           1     -22.592  -4.716  -9.141  0.00  0.00     0.023 C 
BRANCH   3   4
HETATM    4  C           1     -21.889  -3.746 -10.082  0.00  0.00     0.138 C 
BRANCH   4   5
HETATM    5  N           1     -22.890  -3.023 -10.879  0.00  0.00    -0.227 N 
HETATM    6  C           1     -22.778  -2.970 -12.139  0.00  0.00     0.665 C 
HETATM    7  N           1     -21.804  -3.541 -12.712  0.00  0.00    -0.235 N 
HETATM    8  N           1     -23.664  -2.331 -12.844  0.00  0.00    -0.235 N 
HETATM    9  H           1     -21.089  -4.057 -12.143  0.00  0.00     0.174 HD
HETATM   10  H           1     -21.711  -3.497 -13.757  0.00  0.00     0.174 HD
HETATM   11  H           1     -23.571  -2.288 -13.884  0.00  0.00     0.174 HD
HETATM   12  H           1     -24.468  -1.861 -12.371  0.00  0.00     0.174 HD
HETATM   13  H           1     -23.698  -2.550 -10.404  0.00  0.00     0.177 HD
ENDBRANCH   4   5
ENDBRANCH   3   4
ENDBRANCH   2   3
ENDBRANCH   1   2
BRANCH   1  14
HETATM   14  C           1     -19.930  -4.724  -6.943  0.00  0.00     0.196 C 
HETATM   15  O           1     -19.508  -4.487  -5.790  0.00  0.00    -0.646 OA
HETATM   16  O           1     -19.234  -4.421  -7.937  0.00  0.00    -0.646 OA
ENDBRANCH   1  14
BRANCH   1  17
HETATM   17  N           1     -21.764  -5.862  -5.859  0.00  0.00    -0.345 N 
HETATM   18  C           1     -21.453  -7.129  -5.445  0.00  0.00     0.249 C 
HETATM   19  O           1     -20.773  -7.843  -6.143  0.00  0.00    -0.271 OA
HETATM   20  H           1     -22.334  -5.264  -5.274  0.00  0.00     0.163 HD
BRANCH  18  21
HETATM   21  C           1     -21.960  -7.635  -4.117  0.00  0.00     0.278 C 
BRANCH  21  22
HETATM   22  C           1     -21.175  -6.977  -2.989  0.00  0.00     0.017 C 
HETATM   23  C           1     -22.132  -6.223  -2.076  0.00  0.00     0.012 C 
HETATM   24  C           1     -20.446  -8.049  -2.188  0.00  0.00     0.012 C 
ENDBRANCH  21  22
BRANCH  21  25
HETATM   25  N           1     -21.782  -9.123  -4.048  0.00  0.00    -0.066 N 
HETATM   26  H           1     -22.278  -9.570  -4.852  0.00  0.00     0.275 HD
HETATM   27  H           1     -20.764  -9.356  -4.092  0.00  0.00     0.275 HD
HETATM   28  H           1     -22.182  -9.479  -3.150  0.00  0.00     0.275 HD
ENDBRANCH  21  25
ENDBRANCH  18  21
ENDBRANCH   1  17
TORSDOF 9
ENDMDL
MODEL 6
REMARK VINA RESULT:      -6.3     12.226     14.974
REMARK  9 active torsions:
REMARK  status: ('A' for Active; 'I' for Inactive)
REMARK       I    between atoms: N_1  and  C_15 
REMARK       I    between atoms: N_2  and  C_15 
REMARK    1  A    between atoms: N_2  and  C_21 
REMARK       I    between atoms: C_5  and  N_20 
REMARK    2  A    between atoms: C_5  and  C_14 
REMARK    3  A    between atoms: C_9  and  C_24 
REMARK    4  A    between atoms: C_9  and  C_19 
REMARK    5  A    between atoms: C_9  and  N_20 
REMARK    6  A    between atoms: C_10  and  C_14 
REMARK    7  A    between atoms: C_14  and  N_26 
REMARK    8  A    between atoms: C_21  and  C_23 
REMARK    9  A    between atoms: C_23  and  C_24 
ROOT
HETATM    1  C           1     -36.182  -1.371 -10.716  0.00  0.00     0.185 C 
ENDROOT
BRANCH   1   2
HETATM    2  C           1     -35.019  -2.198 -10.185  0.00  0.00     0.038 C 
BRANCH   2   3
HETATM    3  C           1     -33.825  -2.058 -11.120  0.00  0.00     0.023 C 
BRANCH   3   4
HETATM    4  C           1     -33.390  -3.438 -11.599  0.00  0.00     0.138 C 
BRANCH   4   5
HETATM    5  N           1     -33.785  -4.449 -10.607  0.00  0.00    -0.227 N 
HETATM    6  C           1     -34.305  -5.539 -10.986  0.00  0.00     0.665 C 
HETATM    7  N           1     -34.486  -5.758 -12.221  0.00  0.00    -0.235 N 
HETATM    8  N           1     -34.655  -6.432 -10.109  0.00  0.00    -0.235 N 
HETATM    9  H           1     -34.203  -5.037 -12.929  0.00  0.00     0.174 HD
HETATM   10  H           1     -34.917  -6.662 -12.535  0.00  0.00     0.174 HD
HETATM   11  H           1     -35.084  -7.332 -10.423  0.00  0.00     0.174 HD
HETATM   12  H           1     -34.506  -6.251  -9.091  0.00  0.00     0.174 HD
HETATM   13  H           1     -33.636  -4.267  -9.584  0.00  0.00     0.177 HD
ENDBRANCH   4   5
ENDBRANCH   3   4
ENDBRANCH   2   3
ENDBRANCH   1   2
BRANCH   1  14
HETATM   14  C           1     -36.570  -0.332  -9.694  0.00  0.00     0.196 C 
HETATM   15  O           1     -36.236   0.862  -9.857  0.00  0.00    -0.646 OA
HETATM   16  O           1     -37.227  -0.664  -8.684  0.00  0.00    -0.646 OA
ENDBRANCH   1  14
BRANCH   1  17
HETATM   17  N           1     -35.784  -0.714 -11.946  0.00  0.00    -0.345 N 
HETATM   18  C           1     -36.722  -0.421 -12.899  0.00  0.00     0.249 C 
HETATM   19  O           1     -37.881  -0.709 -12.716  0.00  0.00    -0.271 OA
HETATM   20  H           1     -34.814  -0.472 -12.100  0.00  0.00     0.163 HD
BRANCH  18  21
HETATM   21  C           1     -36.309   0.264 -14.179  0.00  0.00     0.278 C 
BRANCH  21  22
HETATM   22  C           1     -37.064  -0.350 -15.351  0.00  0.00     0.017 C 
HETATM   23  C           1     -38.075   0.656 -15.886  0.00  0.00     0.012 C 
HETATM   24  C           1     -36.079  -0.715 -16.453  0.00  0.00     0.012 C 
ENDBRANCH  21  22
BRANCH  21  25
HETATM   25  N           1     -34.834   0.084 -14.388  0.00  0.00    -0.066 N 
HETATM   26  H           1     -34.672  -0.613 -15.149  0.00  0.00     0.275 HD
HETATM   27  H           1     -34.405   0.999 -14.656  0.00  0.00     0.275 HD
HETATM   28  H           1     -34.396  -0.259 -13.503  0.00  0.00     0.275 HD
ENDBRANCH  21  25
ENDBRANCH  18  21
ENDBRANCH   1  17
TORSDOF 9
ENDMDL
MODEL 7
REMARK VINA RESULT:      -6.1      4.886      7.407
REMARK  9 active torsions:
REMARK  status: ('A' for Active; 'I' for Inactive)
REMARK       I    between atoms: N_1  and  C_15 
REMARK       I    between atoms: N_2  and  C_15 
REMARK    1  A    between atoms: N_2  and  C_21 
REMARK       I    between atoms: C_5  and  N_20 
REMARK    2  A    between atoms: C_5  and  C_14 
REMARK    3  A    between atoms: C_9  and  C_24 
REMARK    4  A    between atoms: C_9  and  C_19 
REMARK    5  A    between atoms: C_9  and  N_20 
REMARK    6  A    between atoms: C_10  and  C_14 
REMARK    7  A    between atoms: C_14  and  N_26 
REMARK    8  A    between atoms: C_21  and  C_23 
REMARK    9  A    between atoms: C_23  and  C_24 
ROOT
HETATM    1  C           1     -20.740  -8.404  -4.689  0.00  0.00     0.185 C 
ENDROOT
BRANCH   1   2
HETATM    2  C           1     -21.229  -7.440  -5.762  0.00  0.00     0.038 C 
BRANCH   2   3
HETATM    3  C           1     -21.276  -6.027  -5.194  0.00  0.00     0.023 C 
BRANCH   3   4
HETATM    4  C           1     -21.148  -5.018  -6.329  0.00  0.00     0.138 C 
BRANCH   4   5
HETATM    5  N           1     -22.483  -4.532  -6.706  0.00  0.00    -0.227 N 
HETATM    6  C           1     -22.781  -4.384  -7.927  0.00  0.00     0.665 C 
HETATM    7  N           1     -21.930  -4.655  -8.824  0.00  0.00    -0.235 N 
HETATM    8  N           1     -23.962  -3.955  -8.261  0.00  0.00    -0.235 N 
HETATM    9  H           1     -20.976  -5.002  -8.555  0.00  0.00     0.174 HD
HETATM   10  H           1     -22.177  -4.533  -9.837  0.00  0.00     0.174 HD
HETATM   11  H           1     -24.208  -3.833  -9.269  0.00  0.00     0.174 HD
HETATM   12  H           1     -24.665  -3.731  -7.520  0.00  0.00     0.174 HD
HETATM   13  H           1     -23.190  -4.308  -5.963  0.00  0.00     0.177 HD
ENDBRANCH   4   5
ENDBRANCH   3   4
ENDBRANCH   2   3
ENDBRANCH   1   2
BRANCH   1  14
HETATM   14  C           1     -19.303  -8.774  -4.961  0.00  0.00     0.196 C 
HETATM   15  O           1     -18.543  -9.072  -4.014  0.00  0.00    -0.646 OA
HETATM   16  O           1     -18.871  -8.783  -6.134  0.00  0.00    -0.646 OA
ENDBRANCH   1  14
BRANCH   1  17
HETATM   17  N           1     -20.837  -7.769  -3.389  0.00  0.00    -0.345 N 
HETATM   18  C           1     -21.391  -8.447  -2.337  0.00  0.00     0.249 C 
HETATM   19  O           1     -21.799  -9.573  -2.490  0.00  0.00    -0.271 OA
HETATM   20  H           1     -20.496  -6.825  -3.260  0.00  0.00     0.163 HD
BRANCH  18  21
HETATM   21  C           1     -21.493  -7.787  -0.984  0.00  0.00     0.278 C 
BRANCH  21  22
HETATM   22  C           1     -22.084  -8.769   0.019  0.00  0.00     0.017 C 
HETATM   23  C           1     -21.057  -9.070   1.103  0.00  0.00     0.012 C 
HETATM   24  C           1     -23.328  -8.159   0.653  0.00  0.00     0.012 C 
ENDBRANCH  21  22
BRANCH  21  25
HETATM   25  N           1     -22.378  -6.580  -1.081  0.00  0.00    -0.066 N 
HETATM   26  H           1     -21.963  -5.798  -0.526  0.00  0.00     0.275 HD
HETATM   27  H           1     -22.465  -6.290  -2.082  0.00  0.00     0.275 HD
HETATM   28  H           1     -23.325  -6.811  -0.703  0.00  0.00     0.275 HD
ENDBRANCH  21  25
ENDBRANCH  18  21
ENDBRANCH   1  17
TORSDOF 9
ENDMDL
MODEL 8
REMARK VINA RESULT:      -5.8      6.732      9.866
REMARK  9 active torsions:
REMARK  status: ('A' for Active; 'I' for Inactive)
REMARK       I    between atoms: N_1  and  C_15 
REMARK       I    between atoms: N_2  and  C_15 
REMARK    1  A    between atoms: N_2  and  C_21 
REMARK       I    between atoms: C_5  and  N_20 
REMARK    2  A    between atoms: C_5  and  C_14 
REMARK    3  A    between atoms: C_9  and  C_24 
REMARK    4  A    between atoms: C_9  and  C_19 
REMARK    5  A    between atoms: C_9  and  N_20 
REMARK    6  A    between atoms: C_10  and  C_14 
REMARK    7  A    between atoms: C_14  and  N_26 
REMARK    8  A    between atoms: C_21  and  C_23 
REMARK    9  A    between atoms: C_23  and  C_24 
ROOT
HETATM    1  C           1     -21.176  -8.059  -0.946  0.00  0.00     0.185 C 
ENDROOT
BRANCH   1   2
HETATM    2  C           1     -20.376  -7.666  -2.181  0.00  0.00     0.038 C 
BRANCH   2   3
HETATM    3  C           1     -20.651  -8.659  -3.302  0.00  0.00     0.023 C 
BRANCH   3   4
HETATM    4  C           1     -21.383  -7.954  -4.437  0.00  0.00     0.138 C 
BRANCH   4   5
HETATM    5  N           1     -21.041  -6.524  -4.429  0.00  0.00    -0.227 N 
HETATM    6  C           1     -20.610  -5.970  -5.482  0.00  0.00     0.665 C 
HETATM    7  N           1     -20.472  -6.648  -6.543  0.00  0.00    -0.235 N 
HETATM    8  N           1     -20.307  -4.706  -5.475  0.00  0.00    -0.235 N 
HETATM    9  H           1     -20.716  -7.669  -6.549  0.00  0.00     0.174 HD
HETATM   10  H           1     -20.114  -6.189  -7.417  0.00  0.00     0.174 HD
HETATM   11  H           1     -19.951  -4.250  -6.345  0.00  0.00     0.174 HD
HETATM   12  H           1     -20.421  -4.147  -4.600  0.00  0.00     0.174 HD
HETATM   13  H           1     -21.155  -5.962  -3.550  0.00  0.00     0.177 HD
ENDBRANCH   4   5
ENDBRANCH   3   4
ENDBRANCH   2   3
ENDBRANCH   1   2
BRANCH   1  14
HETATM   14  C           1     -22.379  -7.157  -0.817  0.00  0.00     0.196 C 
HETATM   15  O           1     -22.519  -6.187  -1.594  0.00  0.00    -0.646 OA
HETATM   16  O           1     -23.235  -7.378   0.066  0.00  0.00    -0.646 OA
ENDBRANCH   1  14
BRANCH   1  17
HETATM   17  N           1     -21.616  -9.434  -1.073  0.00  0.00    -0.345 N 
HETATM   18  C           1     -21.351 -10.332  -0.074  0.00  0.00     0.249 C 
HETATM   19  O           1     -20.750  -9.979   0.913  0.00  0.00    -0.271 OA
HETATM   20  H           1     -22.119  -9.730  -1.900  0.00  0.00     0.163 HD
BRANCH  18  21
HETATM   21  C           1     -21.808 -11.764  -0.206  0.00  0.00     0.278 C 
BRANCH  21  22
HETATM   22  C           1     -23.247 -11.885   0.278  0.00  0.00     0.017 C 
HETATM   23  C           1     -24.179 -12.004  -0.920  0.00  0.00     0.012 C 
HETATM   24  C           1     -23.385 -13.124   1.153  0.00  0.00     0.012 C 
ENDBRANCH  21  22
BRANCH  21  25
HETATM   25  N           1     -20.926 -12.649   0.624  0.00  0.00    -0.066 N 
HETATM   26  H           1     -20.469 -12.081   1.372  0.00  0.00     0.275 HD
HETATM   27  H           1     -21.501 -13.405   1.061  0.00  0.00     0.275 HD
HETATM   28  H           1     -20.193 -13.079   0.015  0.00  0.00     0.275 HD
ENDBRANCH  21  25
ENDBRANCH  18  21
ENDBRANCH   1  17
TORSDOF 9
ENDMDL
MODEL 9
REMARK VINA RESULT:      -5.7      4.597      9.448
REMARK  9 active torsions:
REMARK  status: ('A' for Active; 'I' for Inactive)
REMARK       I    between atoms: N_1  and  C_15 
REMARK       I    between atoms: N_2  and  C_15 
REMARK    1  A    between atoms: N_2  and  C_21 
REMARK       I    between atoms: C_5  and  N_20 
REMARK    2  A    between atoms: C_5  and  C_14 
REMARK    3  A    between atoms: C_9  and  C_24 
REMARK    4  A    between atoms: C_9  and  C_19 
REMARK    5  A    between atoms: C_9  and  N_20 
REMARK    6  A    between atoms: C_10  and  C_14 
REMARK    7  A    between atoms: C_14  and  N_26 
REMARK    8  A    between atoms: C_21  and  C_23 
REMARK    9  A    between atoms: C_23  and  C_24 
ROOT
HETATM    1  C           1     -21.008  -6.828  -4.567  0.00  0.00     0.185 C 
ENDROOT
BRANCH   1   2
HETATM    2  C           1     -22.209  -6.579  -3.665  0.00  0.00     0.038 C 
BRANCH   2   3
HETATM    3  C           1     -21.735  -6.040  -2.322  0.00  0.00     0.023 C 
BRANCH   3   4
HETATM    4  C           1     -22.320  -6.886  -1.198  0.00  0.00     0.138 C 
BRANCH   4   5
HETATM    5  N           1     -21.728  -8.231  -1.236  0.00  0.00    -0.227 N 
HETATM    6  C           1     -21.408  -8.812  -0.158  0.00  0.00     0.665 C 
HETATM    7  N           1     -21.598  -8.235   0.953  0.00  0.00    -0.235 N 
HETATM    8  N           1     -20.885 -10.001  -0.192  0.00  0.00    -0.235 N 
HETATM    9  H           1     -22.021  -7.274   0.980  0.00  0.00     0.174 HD
HETATM   10  H           1     -21.332  -8.717   1.847  0.00  0.00     0.174 HD
HETATM   11  H           1     -20.621 -10.481   0.698  0.00  0.00     0.174 HD
HETATM   12  H           1     -20.729 -10.477  -1.108  0.00  0.00     0.174 HD
HETATM   13  H           1     -21.571  -8.709  -2.157  0.00  0.00     0.177 HD
ENDBRANCH   4   5
ENDBRANCH   3   4
ENDBRANCH   2   3
ENDBRANCH   1   2
BRANCH   1  14
HETATM   14  C           1     -20.898  -8.302  -4.866  0.00  0.00     0.196 C 
HETATM   15  O           1     -21.597  -9.123  -4.230  0.00  0.00    -0.646 OA
HETATM   16  O           1     -20.110  -8.705  -5.748  0.00  0.00    -0.646 OA
ENDBRANCH   1  14
BRANCH   1  17
HETATM   17  N           1     -21.177  -6.096  -5.807  0.00  0.00    -0.345 N 
HETATM   18  C           1     -20.571  -4.879  -5.971  0.00  0.00     0.249 C 
HETATM   19  O           1     -19.897  -4.415  -5.083  0.00  0.00    -0.271 OA
HETATM   20  H           1     -21.742  -6.483  -6.551  0.00  0.00     0.163 HD
BRANCH  18  21
HETATM   21  C           1     -20.747  -4.116  -7.261  0.00  0.00     0.278 C 
BRANCH  21  22
HETATM   22  C           1     -21.809  -4.798  -8.114  0.00  0.00     0.017 C 
HETATM   23  C           1     -23.180  -4.231  -7.768  0.00  0.00     0.012 C 
HETATM   24  C           1     -21.513  -4.547  -9.587  0.00  0.00     0.012 C 
ENDBRANCH  21  22
BRANCH  21  25
HETATM   25  N           1     -19.446  -4.093  -8.008  0.00  0.00    -0.066 N 
HETATM   26  H           1     -19.069  -5.065  -8.081  0.00  0.00     0.275 HD
HETATM   27  H           1     -19.601  -3.707  -8.967  0.00  0.00     0.275 HD
HETATM   28  H           1     -18.761  -3.491  -7.497  0.00  0.00     0.275 HD
ENDBRANCH  21  25
ENDBRANCH  18  21
ENDBRANCH   1  17
TORSDOF 9
ENDMDL
