MODEL 1
REMARK VINA RESULT:      -6.6      0.000      0.000
REMARK  7 active torsions:
REMARK  status: ('A' for Active; 'I' for Inactive)
REMARK    1  A    between atoms: C_1  and  C_7 
REMARK    2  A    between atoms: C_1  and  C_21 
REMARK    3  A    between atoms: C_1  and  N_6 
REMARK    4  A    between atoms: N_3  and  C_10 
REMARK       I    between atoms: N_3  and  C_7 
REMARK    5  A    between atoms: C_10  and  C_16 
REMARK       I    between atoms: N_18  and  C_19 
REMARK    6  A    between atoms: C_19  and  C_20 
REMARK    7  A    between atoms: C_20  and  C_21 
ROOT
HETATM    1  C           1     -34.124  -1.777 -11.706  0.00  0.00     0.275 C 
ENDROOT
BRANCH   1   2
HETATM    2  C           1     -35.169  -1.326 -12.696  0.00  0.00     0.249 C 
HETATM    3  N           1     -34.791  -0.726 -13.866  0.00  0.00    -0.345 N 
HETATM    4  H           1     -33.810  -0.584 -14.068  0.00  0.00     0.163 HD
HETATM    5  O           1     -36.341  -1.496 -12.456  0.00  0.00    -0.271 OA
BRANCH   3   6
HETATM    6  C           1     -35.796  -0.293 -14.818  0.00  0.00     0.181 C 
HETATM    7  C           1     -35.582   1.179 -15.147  0.00  0.00     0.043 C 
BRANCH   6   8
HETATM    8  C           1     -35.680  -1.114 -16.079  0.00  0.00     0.196 C 
HETATM    9  O           1     -36.257  -0.740 -17.123  0.00  0.00    -0.646 OA
HETATM   10  O           1     -35.008  -2.168 -16.079  0.00  0.00    -0.646 OA
ENDBRANCH   6   8
ENDBRANCH   3   6
ENDBRANCH   1   2
BRANCH   1  11
HETATM   11  C           1     -33.774  -3.237 -11.963  0.00  0.00     0.052 C 
BRANCH  11  12
HETATM   12  C           1     -33.972  -4.039 -10.683  0.00  0.00     0.105 C 
BRANCH  12  13
HETATM   13  C           1     -34.333  -5.462 -11.031  0.00  0.00     0.215 C 
HETATM   14  O           1     -34.329  -6.313 -10.173  0.00  0.00    -0.274 OA
HETATM   15  N           1     -34.665  -5.787 -12.318  0.00  0.00    -0.370 N 
HETATM   16  H           1     -34.668  -5.075 -13.036  0.00  0.00     0.159 HD
HETATM   17  H           1     -34.908  -6.743 -12.552  0.00  0.00     0.159 HD
ENDBRANCH  12  13
ENDBRANCH  11  12
ENDBRANCH   1  11
BRANCH   1  18
HETATM   18  N           1     -34.659  -1.629 -10.313  0.00  0.00    -0.066 N 
HETATM   19  H           1     -33.985  -1.078  -9.736  0.00  0.00     0.275 HD
HETATM   20  H           1     -35.577  -1.130 -10.344  0.00  0.00     0.275 HD
HETATM   21  H           1     -34.790  -2.574  -9.888  0.00  0.00     0.275 HD
ENDBRANCH   1  18
TORSDOF 7
ENDMDL
MODEL 2
REMARK VINA RESULT:      -6.5     11.841     14.071
REMARK  7 active torsions:
REMARK  status: ('A' for Active; 'I' for Inactive)
REMARK    1  A    between atoms: C_1  and  C_7 
REMARK    2  A    between atoms: C_1  and  C_21 
REMARK    3  A    between atoms: C_1  and  N_6 
REMARK    4  A    between atoms: N_3  and  C_10 
REMARK       I    between atoms: N_3  and  C_7 
REMARK    5  A    between atoms: C_10  and  C_16 
REMARK       I    between atoms: N_18  and  C_19 
REMARK    6  A    between atoms: C_19  and  C_20 
REMARK    7  A    between atoms: C_20  and  C_21 
ROOT
HETATM    1  C           1     -24.090  -4.248 -10.514  0.00  0.00     0.275 C 
ENDROOT
BRANCH   1   2
HETATM    2  C           1     -22.766  -4.472  -9.825  0.00  0.00     0.249 C 
HETATM    3  N           1     -22.714  -4.589  -8.463  0.00  0.00    -0.345 N 
HETATM    4  H           1     -23.564  -4.526  -7.917  0.00  0.00     0.163 HD
HETATM    5  O           1     -21.752  -4.547 -10.477  0.00  0.00    -0.271 OA
BRANCH   3   6
HETATM    6  C           1     -21.442  -4.804  -7.801  0.00  0.00     0.181 C 
HETATM    7  C           1     -20.963  -3.495  -7.186  0.00  0.00     0.043 C 
BRANCH   6   8
HETATM    8  C           1     -21.609  -5.839  -6.715  0.00  0.00     0.196 C 
HETATM    9  O           1     -22.394  -5.627  -5.766  0.00  0.00    -0.646 OA
HETATM   10  O           1     -20.963  -6.908  -6.766  0.00  0.00    -0.646 OA
ENDBRANCH   6   8
ENDBRANCH   3   6
ENDBRANCH   1   2
BRANCH   1  11
HETATM   11  C           1     -24.014  -2.988 -11.366  0.00  0.00     0.052 C 
BRANCH  11  12
HETATM   12  C           1     -24.470  -3.307 -12.785  0.00  0.00     0.105 C 
BRANCH  12  13
HETATM   13  C           1     -23.333  -3.065 -13.746  0.00  0.00     0.215 C 
HETATM   14  O           1     -23.558  -2.634 -14.852  0.00  0.00    -0.274 OA
HETATM   15  N           1     -22.046  -3.335 -13.365  0.00  0.00    -0.370 N 
HETATM   16  H           1     -21.858  -3.696 -12.439  0.00  0.00     0.159 HD
HETATM   17  H           1     -21.283  -3.173 -14.011  0.00  0.00     0.159 HD
ENDBRANCH  12  13
ENDBRANCH  11  12
ENDBRANCH   1  11
BRANCH   1  18
HETATM   18  N           1     -25.169  -4.091  -9.485  0.00  0.00    -0.066 N 
HETATM   19  H           1     -24.913  -4.627  -8.626  0.00  0.00     0.275 HD
HETATM   20  H           1     -25.275  -3.080  -9.244  0.00  0.00     0.275 HD
HETATM   21  H           1     -26.070  -4.456  -9.867  0.00  0.00     0.275 HD
ENDBRANCH   1  18
TORSDOF 7
ENDMDL
MODEL 3
REMARK VINA RESULT:      -6.3     12.625     14.800
REMARK  7 active torsions:
REMARK  status: ('A' for Active; 'I' for Inactive)
REMARK    1  A    between atoms: C_1  and  C_7 
REMARK    2  A    between atoms: C_1  and  C_21 
REMARK    3  A    between atoms: C_1  and  N_6 
REMARK    4  A    between atoms: N_3  and  C_10 
REMARK       I    between atoms: N_3  and  C_7 
REMARK    5  A    between atoms: C_10  and  C_16 
REMARK       I    between atoms: N_18  and  C_19 
REMARK    6  A    between atoms: C_19  and  C_20 
REMARK    7  A    between atoms: C_20  and  C_21 
ROOT
HETATM    1  C           1     -21.751  -3.795 -11.061  0.00  0.00     0.275 C 
ENDROOT
BRANCH   1   2
HETATM    2  C           1     -20.792  -4.529 -10.156  0.00  0.00     0.249 C 
HETATM    3  N           1     -21.076  -4.668  -8.825  0.00  0.00    -0.345 N 
HETATM    4  H           1     -21.930  -4.279  -8.447  0.00  0.00     0.163 HD
HETATM    5  O           1     -19.772  -4.994 -10.608  0.00  0.00    -0.271 OA
BRANCH   3   6
HETATM    6  C           1     -20.154  -5.373  -7.956  0.00  0.00     0.181 C 
HETATM    7  C           1     -19.159  -4.384  -7.363  0.00  0.00     0.043 C 
BRANCH   6   8
HETATM    8  C           1     -20.925  -6.041  -6.842  0.00  0.00     0.196 C 
HETATM    9  O           1     -20.580  -7.171  -6.435  0.00  0.00    -0.646 OA
HETATM   10  O           1     -21.907  -5.464  -6.328  0.00  0.00    -0.646 OA
ENDBRANCH   6   8
ENDBRANCH   3   6
ENDBRANCH   1   2
BRANCH   1  11
HETATM   11  C           1     -23.107  -4.487 -11.034  0.00  0.00     0.052 C 
BRANCH  11  12
HETATM   12  C           1     -24.212  -3.441 -11.103  0.00  0.00     0.105 C 
BRANCH  12  13
HETATM   13  C           1     -24.942  -3.392  -9.784  0.00  0.00     0.215 C 
HETATM   14  O           1     -26.119  -3.118  -9.754  0.00  0.00    -0.274 OA
HETATM   15  N           1     -24.271  -3.656  -8.621  0.00  0.00    -0.370 N 
HETATM   16  H           1     -23.286  -3.885  -8.645  0.00  0.00     0.159 HD
HETATM   17  H           1     -24.761  -3.623  -7.735  0.00  0.00     0.159 HD
ENDBRANCH  12  13
ENDBRANCH  11  12
ENDBRANCH   1  11
BRANCH   1  18
HETATM   18  N           1     -21.216  -3.796 -12.462  0.00  0.00    -0.066 N 
HETATM   19  H           1     -21.606  -2.981 -12.985  0.00  0.00     0.275 HD
HETATM   20  H           1     -20.173  -3.726 -12.436  0.00  0.00     0.275 HD
HETATM   21  H           1     -21.494  -4.683 -12.939  0.00  0.00     0.275 HD
ENDBRANCH   1  18
TORSDOF 7
ENDMDL
MODEL 4
REMARK VINA RESULT:      -6.2      1.957      2.528
REMARK  7 active torsions:
REMARK  status: ('A' for Active; 'I' for Inactive)
REMARK    1  A    between atoms: C_1  and  C_7 
REMARK    2  A    between atoms: C_1  and  C_21 
REMARK    3  A    between atoms: C_1  and  N_6 
REMARK    4  A    between atoms: N_3  and  C_10 
REMARK       I    between atoms: N_3  and  C_7 
REMARK    5  A    between atoms: C_10  and  C_16 
REMARK       I    between atoms: N_18  and  C_19 
REMARK    6  A    between atoms: C_19  and  C_20 
REMARK    7  A    between atoms: C_20  and  C_21 
ROOT
HETATM    1  C           1     -34.499  -3.900 -12.186  0.00  0.00     0.275 C 
ENDROOT
BRANCH   1   2
HETATM    2  C           1     -34.965  -2.472 -12.046  0.00  0.00     0.249 C 
HETATM    3  N           1     -35.036  -1.663 -13.147  0.00  0.00    -0.345 N 
HETATM    4  H           1     -34.777  -2.023 -14.056  0.00  0.00     0.163 HD
HETATM    5  O           1     -35.274  -2.042 -10.959  0.00  0.00    -0.271 OA
BRANCH   3   6
HETATM    6  C           1     -35.484  -0.291 -13.012  0.00  0.00     0.181 C 
HETATM    7  C           1     -34.875   0.553 -14.124  0.00  0.00     0.043 C 
BRANCH   6   8
HETATM    8  C           1     -36.990  -0.242 -13.108  0.00  0.00     0.196 C 
HETATM    9  O           1     -37.566  -0.705 -14.116  0.00  0.00    -0.646 OA
HETATM   10  O           1     -37.659   0.262 -12.181  0.00  0.00    -0.646 OA
ENDBRANCH   6   8
ENDBRANCH   3   6
ENDBRANCH   1   2
BRANCH   1  11
HETATM   11  C           1     -33.951  -4.390 -10.852  0.00  0.00     0.052 C 
BRANCH  11  12
HETATM   12  C           1     -33.434  -5.815 -11.009  0.00  0.00     0.105 C 
BRANCH  12  13
HETATM   13  C           1     -34.513  -6.789 -10.607  0.00  0.00     0.215 C 
HETATM   14  O           1     -34.782  -6.944  -9.439  0.00  0.00    -0.274 OA
HETATM   15  N           1     -35.186  -7.498 -11.565  0.00  0.00    -0.370 N 
HETATM   16  H           1     -34.961  -7.368 -12.543  0.00  0.00     0.159 HD
HETATM   17  H           1     -35.911  -8.152 -11.295  0.00  0.00     0.159 HD
ENDBRANCH  12  13
ENDBRANCH  11  12
ENDBRANCH   1  11
BRANCH   1  18
HETATM   18  N           1     -33.422  -3.974 -13.227  0.00  0.00    -0.066 N 
HETATM   19  H           1     -33.798  -3.643 -14.143  0.00  0.00     0.275 HD
HETATM   20  H           1     -32.620  -3.368 -12.941  0.00  0.00     0.275 HD
HETATM   21  H           1     -33.097  -4.963 -13.321  0.00  0.00     0.275 HD
ENDBRANCH   1  18
TORSDOF 7
ENDMDL
MODEL 5
REMARK VINA RESULT:      -6.1     12.688     13.528
REMARK  7 active torsions:
REMARK  status: ('A' for Active; 'I' for Inactive)
REMARK    1  A    between atoms: C_1  and  C_7 
REMARK    2  A    between atoms: C_1  and  C_21 
REMARK    3  A    between atoms: C_1  and  N_6 
REMARK    4  A    between atoms: N_3  and  C_10 
REMARK       I    between atoms: N_3  and  C_7 
REMARK    5  A    between atoms: C_10  and  C_16 
REMARK       I    between atoms: N_18  and  C_19 
REMARK    6  A    between atoms: C_19  and  C_20 
REMARK    7  A    between atoms: C_20  and  C_21 
ROOT
HETATM    1  C           1     -20.895  -4.334 -10.945  0.00  0.00     0.275 C 
ENDROOT
BRANCH   1   2
HETATM    2  C           1     -22.166  -4.266 -11.755  0.00  0.00     0.249 C 
HETATM    3  N           1     -22.269  -3.385 -12.796  0.00  0.00    -0.345 N 
HETATM    4  H           1     -21.491  -2.779 -13.024  0.00  0.00     0.163 HD
HETATM    5  O           1     -23.094  -4.990 -11.483  0.00  0.00    -0.271 OA
BRANCH   3   6
HETATM    6  C           1     -23.490  -3.319 -13.574  0.00  0.00     0.181 C 
HETATM    7  C           1     -24.631  -2.836 -12.688  0.00  0.00     0.043 C 
BRANCH   6   8
HETATM    8  C           1     -23.303  -2.359 -14.724  0.00  0.00     0.196 C 
HETATM    9  O           1     -24.053  -1.365 -14.836  0.00  0.00    -0.646 OA
HETATM   10  O           1     -22.398  -2.557 -15.563  0.00  0.00    -0.646 OA
ENDBRANCH   6   8
ENDBRANCH   3   6
ENDBRANCH   1   2
BRANCH   1  11
HETATM   11  C           1     -21.237  -4.351  -9.461  0.00  0.00     0.052 C 
BRANCH  11  12
HETATM   12  C           1     -19.955  -4.254  -8.643  0.00  0.00     0.105 C 
BRANCH  12  13
HETATM   13  C           1     -20.088  -5.091  -7.395  0.00  0.00     0.215 C 
HETATM   14  O           1     -19.913  -6.285  -7.447  0.00  0.00    -0.274 OA
HETATM   15  N           1     -20.410  -4.497  -6.205  0.00  0.00    -0.370 N 
HETATM   16  H           1     -20.556  -3.497  -6.161  0.00  0.00     0.159 HD
HETATM   17  H           1     -20.499  -5.059  -5.367  0.00  0.00     0.159 HD
ENDBRANCH  12  13
ENDBRANCH  11  12
ENDBRANCH   1  11
BRANCH   1  18
HETATM   18  N           1     -20.044  -3.137 -11.248  0.00  0.00    -0.066 N 
HETATM   19  H           1     -20.247  -2.380 -10.557  0.00  0.00     0.275 HD
HETATM   20  H           1     -19.036  -3.403 -11.187  0.00  0.00     0.275 HD
HETATM   21  H           1     -20.258  -2.794 -12.212  0.00  0.00     0.275 HD
ENDBRANCH   1  18
TORSDOF 7
ENDMDL
MODEL 6
REMARK VINA RESULT:      -6.1      9.007     10.245
REMARK  7 active torsions:
REMARK  status: ('A' for Active; 'I' for Inactive)
REMARK    1  A    between atoms: C_1  and  C_7 
REMARK    2  A    between atoms: C_1  and  C_21 
REMARK    3  A    between atoms: C_1  and  N_6 
REMARK    4  A    between atoms: N_3  and  C_10 
REMARK       I    between atoms: N_3  and  C_7 
REMARK    5  A    between atoms: C_10  and  C_16 
REMARK       I    between atoms: N_18  and  C_19 
REMARK    6  A    between atoms: C_19  and  C_20 
REMARK    7  A    between atoms: C_20  and  C_21 
ROOT
HETATM    1  C           1     -29.438  -6.856 -17.481  0.00  0.00     0.275 C 
ENDROOT
BRANCH   1   2
HETATM    2  C           1     -28.499  -6.442 -18.587  0.00  0.00     0.249 C 
HETATM    3  N           1     -27.704  -7.374 -19.196  0.00  0.00    -0.345 N 
HETATM    4  H           1     -27.746  -8.342 -18.904  0.00  0.00     0.163 HD
HETATM    5  O           1     -28.449  -5.286 -18.935  0.00  0.00    -0.271 OA
BRANCH   3   6
HETATM    6  C           1     -26.801  -6.976 -20.258  0.00  0.00     0.181 C 
HETATM    7  C           1     -25.459  -6.575 -19.661  0.00  0.00     0.043 C 
BRANCH   6   8
HETATM    8  C           1     -26.605  -8.132 -21.210  0.00  0.00     0.196 C 
HETATM    9  O           1     -27.572  -8.862 -21.514  0.00  0.00    -0.646 OA
HETATM   10  O           1     -25.474  -8.358 -21.693  0.00  0.00    -0.646 OA
ENDBRANCH   6   8
ENDBRANCH   3   6
ENDBRANCH   1   2
BRANCH   1  11
HETATM   11  C           1     -30.799  -6.207 -17.699  0.00  0.00     0.052 C 
BRANCH  11  12
HETATM   12  C           1     -31.113  -5.282 -16.530  0.00  0.00     0.105 C 
BRANCH  12  13
HETATM   13  C           1     -31.863  -4.073 -17.032  0.00  0.00     0.215 C 
HETATM   14  O           1     -31.269  -3.183 -17.593  0.00  0.00    -0.274 OA
HETATM   15  N           1     -33.217  -3.985 -16.850  0.00  0.00    -0.370 N 
HETATM   16  H           1     -33.715  -4.730 -16.380  0.00  0.00     0.159 HD
HETATM   17  H           1     -33.720  -3.173 -17.187  0.00  0.00     0.159 HD
ENDBRANCH  12  13
ENDBRANCH  11  12
ENDBRANCH   1  11
BRANCH   1  18
HETATM   18  N           1     -28.880  -6.415 -16.161  0.00  0.00    -0.066 N 
HETATM   19  H           1     -27.908  -6.057 -16.295  0.00  0.00     0.275 HD
HETATM   20  H           1     -29.479  -5.655 -15.766  0.00  0.00     0.275 HD
HETATM   21  H           1     -28.865  -7.226 -15.502  0.00  0.00     0.275 HD
ENDBRANCH   1  18
TORSDOF 7
ENDMDL
MODEL 7
REMARK VINA RESULT:      -5.9     10.262     11.482
REMARK  7 active torsions:
REMARK  status: ('A' for Active; 'I' for Inactive)
REMARK    1  A    between atoms: C_1  and  C_7 
REMARK    2  A    between atoms: C_1  and  C_21 
REMARK    3  A    between atoms: C_1  and  N_6 
REMARK    4  A    between atoms: N_3  and  C_10 
REMARK       I    between atoms: N_3  and  C_7 
REMARK    5  A    between atoms: C_10  and  C_16 
REMARK       I    between atoms: N_18  and  C_19 
REMARK    6  A    between atoms: C_19  and  C_20 
REMARK    7  A    between atoms: C_20  and  C_21 
ROOT
HETATM    1  C           1     -25.167  -6.731 -17.047  0.00  0.00     0.275 C 
ENDROOT
BRANCH   1   2
HETATM    2  C           1     -26.469  -7.007 -16.337  0.00  0.00     0.249 C 
HETATM    3  N           1     -27.658  -6.723 -16.951  0.00  0.00    -0.345 N 
HETATM    4  H           1     -27.664  -6.328 -17.883  0.00  0.00     0.163 HD
HETATM    5  O           1     -26.462  -7.479 -15.225  0.00  0.00    -0.271 OA
BRANCH   3   6
HETATM    6  C           1     -28.909  -6.988 -16.269  0.00  0.00     0.181 C 
HETATM    7  C           1     -29.297  -5.777 -15.430  0.00  0.00     0.043 C 
BRANCH   6   8
HETATM    8  C           1     -29.989  -7.262 -17.287  0.00  0.00     0.196 C 
HETATM    9  O           1     -29.807  -8.122 -18.175  0.00  0.00    -0.646 OA
HETATM   10  O           1     -31.066  -6.628 -17.243  0.00  0.00    -0.646 OA
ENDBRANCH   6   8
ENDBRANCH   3   6
ENDBRANCH   1   2
BRANCH   1  11
HETATM   11  C           1     -25.394  -6.749 -18.553  0.00  0.00     0.052 C 
BRANCH  11  12
HETATM   12  C           1     -24.091  -7.102 -19.259  0.00  0.00     0.105 C 
BRANCH  12  13
HETATM   13  C           1     -24.390  -7.934 -20.481  0.00  0.00     0.215 C 
HETATM   14  O           1     -25.506  -7.948 -20.944  0.00  0.00    -0.274 OA
HETATM   15  N           1     -23.397  -8.673 -21.065  0.00  0.00    -0.370 N 
HETATM   16  H           1     -22.462  -8.661 -20.677  0.00  0.00     0.159 HD
HETATM   17  H           1     -23.598  -9.232 -21.886  0.00  0.00     0.159 HD
ENDBRANCH  12  13
ENDBRANCH  11  12
ENDBRANCH   1  11
BRANCH   1  18
HETATM   18  N           1     -24.165  -7.785 -16.680  0.00  0.00    -0.066 N 
HETATM   19  H           1     -24.326  -8.092 -15.695  0.00  0.00     0.275 HD
HETATM   20  H           1     -24.271  -8.603 -17.321  0.00  0.00     0.275 HD
HETATM   21  H           1     -23.200  -7.393 -16.770  0.00  0.00     0.275 HD
ENDBRANCH   1  18
TORSDOF 7
ENDMDL
MODEL 8
REMARK VINA RESULT:      -5.8     12.749     14.931
REMARK  7 active torsions:
REMARK  status: ('A' for Active; 'I' for Inactive)
REMARK    1  A    between atoms: C_1  and  C_7 
REMARK    2  A    between atoms: C_1  and  C_21 
REMARK    3  A    between atoms: C_1  and  N_6 
REMARK    4  A    between atoms: N_3  and  C_10 
REMARK       I    between atoms: N_3  and  C_7 
REMARK    5  A    between atoms: C_10  and  C_16 
REMARK       I    between atoms: N_18  and  C_19 
REMARK    6  A    between atoms: C_19  and  C_20 
REMARK    7  A    between atoms: C_20  and  C_21 
ROOT
HETATM    1  C           1     -21.643  -3.584 -10.569  0.00  0.00     0.275 C 
ENDROOT
BRANCH   1   2
HETATM    2  C           1     -20.813  -4.458  -9.661  0.00  0.00     0.249 C 
HETATM    3  N           1     -21.191  -4.648  -8.360  0.00  0.00    -0.345 N 
HETATM    4  H           1     -22.028  -4.203  -8.007  0.00  0.00     0.163 HD
HETATM    5  O           1     -19.813  -4.989 -10.084  0.00  0.00    -0.271 OA
BRANCH   3   6
HETATM    6  C           1     -20.393  -5.487  -7.488  0.00  0.00     0.181 C 
HETATM    7  C           1     -19.383  -4.627  -6.741  0.00  0.00     0.043 C 
BRANCH   6   8
HETATM    8  C           1     -21.295  -6.181  -6.496  0.00  0.00     0.196 C 
HETATM    9  O           1     -22.149  -5.524  -5.862  0.00  0.00    -0.646 OA
HETATM   10  O           1     -21.188  -7.412  -6.308  0.00  0.00    -0.646 OA
ENDBRANCH   6   8
ENDBRANCH   3   6
ENDBRANCH   1   2
BRANCH   1  11
HETATM   11  C           1     -22.693  -4.433 -11.273  0.00  0.00     0.052 C 
BRANCH  11  12
HETATM   12  C           1     -24.016  -3.679 -11.306  0.00  0.00     0.105 C 
BRANCH  12  13
HETATM   13  C           1     -24.311  -3.241 -12.719  0.00  0.00     0.215 C 
HETATM   14  O           1     -25.293  -2.576 -12.953  0.00  0.00    -0.274 OA
HETATM   15  N           1     -23.468  -3.599 -13.736  0.00  0.00    -0.370 N 
HETATM   16  H           1     -22.646  -4.156 -13.540  0.00  0.00     0.159 HD
HETATM   17  H           1     -23.666  -3.305 -14.685  0.00  0.00     0.159 HD
ENDBRANCH  12  13
ENDBRANCH  11  12
ENDBRANCH   1  11
BRANCH   1  18
HETATM   18  N           1     -20.754  -2.940 -11.592  0.00  0.00    -0.066 N 
HETATM   19  H           1     -19.756  -3.048 -11.304  0.00  0.00     0.275 HD
HETATM   20  H           1     -20.901  -3.399 -12.519  0.00  0.00     0.275 HD
HETATM   21  H           1     -20.988  -1.924 -11.664  0.00  0.00     0.275 HD
ENDBRANCH   1  18
TORSDOF 7
ENDMDL
MODEL 9
REMARK VINA RESULT:      -5.8     12.528     14.809
REMARK  7 active torsions:
REMARK  status: ('A' for Active; 'I' for Inactive)
REMARK    1  A    between atoms: C_1  and  C_7 
REMARK    2  A    between atoms: C_1  and  C_21 
REMARK    3  A    between atoms: C_1  and  N_6 
REMARK    4  A    between atoms: N_3  and  C_10 
REMARK       I    between atoms: N_3  and  C_7 
REMARK    5  A    between atoms: C_10  and  C_16 
REMARK       I    between atoms: N_18  and  C_19 
REMARK    6  A    between atoms: C_19  and  C_20 
REMARK    7  A    between atoms: C_20  and  C_21 
ROOT
HETATM    1  C           1     -23.197  -4.186  -9.207  0.00  0.00     0.275 C 
ENDROOT
BRANCH   1   2
HETATM    2  C           1     -22.300  -4.187  -7.994  0.00  0.00     0.249 C 
HETATM    3  N           1     -22.181  -5.317  -7.231  0.00  0.00    -0.345 N 
HETATM    4  H           1     -22.694  -6.152  -7.481  0.00  0.00     0.163 HD
HETATM    5  O           1     -21.687  -3.189  -7.696  0.00  0.00    -0.271 OA
BRANCH   3   6
HETATM    6  C           1     -21.319  -5.317  -6.065  0.00  0.00     0.181 C 
HETATM    7  C           1     -21.828  -6.341  -5.058  0.00  0.00     0.043 C 
BRANCH   6   8
HETATM    8  C           1     -19.913  -5.675  -6.480  0.00  0.00     0.196 C 
HETATM    9  O           1     -19.031  -4.790  -6.524  0.00  0.00    -0.646 OA
HETATM   10  O           1     -19.629  -6.855  -6.778  0.00  0.00    -0.646 OA
ENDBRANCH   6   8
ENDBRANCH   3   6
ENDBRANCH   1   2
BRANCH   1  11
HETATM   11  C           1     -22.501  -3.465 -10.354  0.00  0.00     0.052 C 
BRANCH  11  12
HETATM   12  C           1     -23.024  -4.000 -11.681  0.00  0.00     0.105 C 
BRANCH  12  13
HETATM   13  C           1     -24.021  -3.026 -12.259  0.00  0.00     0.215 C 
HETATM   14  O           1     -25.170  -3.044 -11.883  0.00  0.00    -0.274 OA
HETATM   15  N           1     -23.625  -2.124 -13.208  0.00  0.00    -0.370 N 
HETATM   16  H           1     -22.664  -2.109 -13.523  0.00  0.00     0.159 HD
HETATM   17  H           1     -24.295  -1.470 -13.596  0.00  0.00     0.159 HD
ENDBRANCH  12  13
ENDBRANCH  11  12
ENDBRANCH   1  11
BRANCH   1  18
HETATM   18  N           1     -24.480  -3.483  -8.880  0.00  0.00    -0.066 N 
HETATM   19  H           1     -24.476  -3.200  -7.874  0.00  0.00     0.275 HD
HETATM   20  H           1     -24.573  -2.632  -9.479  0.00  0.00     0.275 HD
HETATM   21  H           1     -25.284  -4.125  -9.058  0.00  0.00     0.275 HD
ENDBRANCH   1  18
TORSDOF 7
ENDMDL
