MODEL 1
REMARK VINA RESULT:      -5.9      0.000      0.000
REMARK  8 active torsions:
REMARK  status: ('A' for Active; 'I' for Inactive)
REMARK    1  A    between atoms: O_3  and  C_20 
REMARK    2  A    between atoms: C_5  and  C_14 
REMARK    3  A    between atoms: C_5  and  C_7 
REMARK    4  A    between atoms: C_7  and  C_11 
REMARK    5  A    between atoms: C_7  and  N_15 
REMARK       I    between atoms: C_13  and  N_15 
REMARK    6  A    between atoms: C_13  and  C_17 
REMARK    7  A    between atoms: N_16  and  C_17 
REMARK    8  A    between atoms: C_17  and  C_20 
ROOT
HETATM    1  H           1     -34.821  -0.113 -12.250  0.00  0.00     0.163 HD
HETATM    2  O           1     -37.622  -0.758 -13.507  0.00  0.00    -0.271 OA
HETATM    3  C           1     -36.498  -0.319 -13.445  0.00  0.00     0.251 C 
HETATM    4  N           1     -35.763  -0.481 -12.302  0.00  0.00    -0.344 N 
ENDROOT
BRANCH   3   5
HETATM    5  C           1     -35.906   0.409 -14.627  0.00  0.00     0.297 C 
BRANCH   5   6
HETATM    6  N           1     -34.678   1.152 -14.191  0.00  0.00    -0.064 N 
HETATM    7  H           1     -33.832   0.696 -14.597  0.00  0.00     0.275 HD
HETATM    8  H           1     -34.734   2.141 -14.523  0.00  0.00     0.275 HD
HETATM    9  H           1     -34.615   1.138 -13.148  0.00  0.00     0.275 HD
ENDBRANCH   5   6
BRANCH   5  10
HETATM   10  C           1     -35.534  -0.595 -15.708  0.00  0.00     0.206 C 
BRANCH  10  11
HETATM   11  O           1     -35.205  -1.822 -15.115  0.00  0.00    -0.398 OA
HETATM   12  H           1     -35.735  -1.903 -14.341  0.00  0.00     0.209 HD
ENDBRANCH  10  11
ENDBRANCH   5  10
ENDBRANCH   3   5
BRANCH   4  13
HETATM   13  C           1     -36.332  -1.180 -11.167  0.00  0.00     0.189 C 
BRANCH  13  14
HETATM   14  C           1     -35.293  -2.129 -10.583  0.00  0.00     0.014 C 
HETATM   15  C           1     -35.713  -3.569 -10.851  0.00  0.00     0.012 C 
BRANCH  14  16
HETATM   16  C           1     -33.942  -1.864 -11.235  0.00  0.00     0.002 C 
HETATM   17  C           1     -33.155  -3.166 -11.323  0.00  0.00     0.005 C 
ENDBRANCH  14  16
ENDBRANCH  13  14
BRANCH  13  18
HETATM   18  C           1     -36.746  -0.179 -10.116  0.00  0.00     0.197 C 
HETATM   19  O           1     -36.198  -0.190  -8.992  0.00  0.00    -0.646 OA
HETATM   20  O           1     -37.636   0.660 -10.369  0.00  0.00    -0.646 OA
ENDBRANCH  13  18
ENDBRANCH   4  13
TORSDOF 8
ENDMDL
MODEL 2
REMARK VINA RESULT:      -5.6      2.499      4.412
REMARK  8 active torsions:
REMARK  status: ('A' for Active; 'I' for Inactive)
REMARK    1  A    between atoms: O_3  and  C_20 
REMARK    2  A    between atoms: C_5  and  C_14 
REMARK    3  A    between atoms: C_5  and  C_7 
REMARK    4  A    between atoms: C_7  and  C_11 
REMARK    5  A    between atoms: C_7  and  N_15 
REMARK       I    between atoms: C_13  and  N_15 
REMARK    6  A    between atoms: C_13  and  C_17 
REMARK    7  A    between atoms: N_16  and  C_17 
REMARK    8  A    between atoms: C_17  and  C_20 
ROOT
HETATM    1  H           1     -35.513  -2.299 -13.504  0.00  0.00     0.163 HD
HETATM    2  O           1     -33.432  -2.236 -11.157  0.00  0.00    -0.271 OA
HETATM    3  C           1     -34.068  -2.695 -12.076  0.00  0.00     0.251 C 
HETATM    4  N           1     -34.980  -1.914 -12.735  0.00  0.00    -0.344 N 
ENDROOT
BRANCH   3   5
HETATM    5  C           1     -33.858  -4.129 -12.497  0.00  0.00     0.297 C 
BRANCH   5   6
HETATM    6  N           1     -32.462  -4.552 -12.149  0.00  0.00    -0.064 N 
HETATM    7  H           1     -31.804  -3.758 -12.320  0.00  0.00     0.275 HD
HETATM    8  H           1     -32.421  -4.825 -11.141  0.00  0.00     0.275 HD
HETATM    9  H           1     -32.186  -5.366 -12.742  0.00  0.00     0.275 HD
ENDBRANCH   5   6
BRANCH   5  10
HETATM   10  C           1     -34.854  -5.023 -11.771  0.00  0.00     0.206 C 
BRANCH  10  11
HETATM   11  O           1     -35.766  -4.229 -11.062  0.00  0.00    -0.398 OA
HETATM   12  H           1     -36.050  -4.734 -10.319  0.00  0.00     0.209 HD
ENDBRANCH  10  11
ENDBRANCH   5  10
ENDBRANCH   3   5
BRANCH   4  13
HETATM   13  C           1     -35.181  -0.537 -12.330  0.00  0.00     0.189 C 
BRANCH  13  14
HETATM   14  C           1     -35.590   0.292 -13.541  0.00  0.00     0.014 C 
HETATM   15  C           1     -34.534   1.357 -13.806  0.00  0.00     0.012 C 
BRANCH  14  16
HETATM   16  C           1     -35.714  -0.616 -14.758  0.00  0.00     0.002 C 
HETATM   17  C           1     -36.871  -0.144 -15.629  0.00  0.00     0.005 C 
ENDBRANCH  14  16
ENDBRANCH  13  14
BRANCH  13  18
HETATM   18  C           1     -36.269  -0.474 -11.286  0.00  0.00     0.197 C 
HETATM   19  O           1     -37.120  -1.387 -11.215  0.00  0.00    -0.646 OA
HETATM   20  O           1     -36.319   0.490 -10.493  0.00  0.00    -0.646 OA
ENDBRANCH  13  18
ENDBRANCH   4  13
TORSDOF 8
ENDMDL
MODEL 3
REMARK VINA RESULT:      -5.5     12.741     14.889
REMARK  8 active torsions:
REMARK  status: ('A' for Active; 'I' for Inactive)
REMARK    1  A    between atoms: O_3  and  C_20 
REMARK    2  A    between atoms: C_5  and  C_14 
REMARK    3  A    between atoms: C_5  and  C_7 
REMARK    4  A    between atoms: C_7  and  C_11 
REMARK    5  A    between atoms: C_7  and  N_15 
REMARK       I    between atoms: C_13  and  N_15 
REMARK    6  A    between atoms: C_13  and  C_17 
REMARK    7  A    between atoms: N_16  and  C_17 
REMARK    8  A    between atoms: C_17  and  C_20 
ROOT
HETATM    1  H           1     -22.309  -5.771  -9.097  0.00  0.00     0.163 HD
HETATM    2  O           1     -21.555  -3.199  -7.468  0.00  0.00    -0.271 OA
HETATM    3  C           1     -21.626  -4.376  -7.730  0.00  0.00     0.251 C 
HETATM    4  N           1     -22.250  -4.784  -8.878  0.00  0.00    -0.344 N 
ENDROOT
BRANCH   3   5
HETATM    5  C           1     -21.028  -5.395  -6.791  0.00  0.00     0.297 C 
BRANCH   5   6
HETATM    6  N           1     -19.888  -4.773  -6.040  0.00  0.00    -0.064 N 
HETATM    7  H           1     -20.109  -4.760  -5.019  0.00  0.00     0.275 HD
HETATM    8  H           1     -19.020  -5.331  -6.201  0.00  0.00     0.275 HD
HETATM    9  H           1     -19.742  -3.795  -6.377  0.00  0.00     0.275 HD
ENDBRANCH   5   6
BRANCH   5  10
HETATM   10  C           1     -22.090  -5.862  -5.806  0.00  0.00     0.206 C 
BRANCH  10  11
HETATM   11  O           1     -23.301  -5.210  -6.077  0.00  0.00    -0.398 OA
HETATM   12  H           1     -23.087  -4.410  -6.526  0.00  0.00     0.209 HD
ENDBRANCH  10  11
ENDBRANCH   5  10
ENDBRANCH   3   5
BRANCH   4  13
HETATM   13  C           1     -22.823  -3.805  -9.779  0.00  0.00     0.189 C 
BRANCH  13  14
HETATM   14  C           1     -22.400  -4.122 -11.208  0.00  0.00     0.014 C 
HETATM   15  C           1     -22.899  -3.024 -12.139  0.00  0.00     0.012 C 
BRANCH  14  16
HETATM   16  C           1     -20.881  -4.199 -11.281  0.00  0.00     0.002 C 
HETATM   17  C           1     -20.294  -2.797 -11.181  0.00  0.00     0.005 C 
ENDBRANCH  14  16
ENDBRANCH  13  14
BRANCH  13  18
HETATM   18  C           1     -24.329  -3.850  -9.678  0.00  0.00     0.197 C 
HETATM   19  O           1     -24.971  -2.805  -9.440  0.00  0.00    -0.646 OA
HETATM   20  O           1     -24.933  -4.933  -9.833  0.00  0.00    -0.646 OA
ENDBRANCH  13  18
ENDBRANCH   4  13
TORSDOF 8
ENDMDL
MODEL 4
REMARK VINA RESULT:      -4.9     13.382     15.239
REMARK  8 active torsions:
REMARK  status: ('A' for Active; 'I' for Inactive)
REMARK    1  A    between atoms: O_3  and  C_20 
REMARK    2  A    between atoms: C_5  and  C_14 
REMARK    3  A    between atoms: C_5  and  C_7 
REMARK    4  A    between atoms: C_7  and  C_11 
REMARK    5  A    between atoms: C_7  and  N_15 
REMARK       I    between atoms: C_13  and  N_15 
REMARK    6  A    between atoms: C_13  and  C_17 
REMARK    7  A    between atoms: N_16  and  C_17 
REMARK    8  A    between atoms: C_17  and  C_20 
ROOT
HETATM    1  H           1     -22.314  -6.091  -8.504  0.00  0.00     0.163 HD
HETATM    2  O           1     -22.756  -3.049  -9.129  0.00  0.00    -0.271 OA
HETATM    3  C           1     -22.950  -4.241  -9.177  0.00  0.00     0.251 C 
HETATM    4  N           1     -22.151  -5.093  -8.462  0.00  0.00    -0.344 N 
ENDROOT
BRANCH   3   5
HETATM    5  C           1     -24.070  -4.789 -10.026  0.00  0.00     0.297 C 
BRANCH   5   6
HETATM    6  N           1     -25.305  -3.964  -9.815  0.00  0.00    -0.064 N 
HETATM    7  H           1     -25.042  -3.041  -9.404  0.00  0.00     0.275 HD
HETATM    8  H           1     -25.784  -3.813 -10.731  0.00  0.00     0.275 HD
HETATM    9  H           1     -25.950  -4.464  -9.163  0.00  0.00     0.275 HD
ENDBRANCH   5   6
BRANCH   5  10
HETATM   10  C           1     -23.669  -4.735 -11.494  0.00  0.00     0.206 C 
BRANCH  10  11
HETATM   11  O           1     -22.271  -4.718 -11.597  0.00  0.00    -0.398 OA
HETATM   12  H           1     -22.065  -4.680 -12.515  0.00  0.00     0.209 HD
ENDBRANCH  10  11
ENDBRANCH   5  10
ENDBRANCH   3   5
BRANCH   4  13
HETATM   13  C           1     -21.075  -4.566  -7.647  0.00  0.00     0.189 C 
BRANCH  13  14
HETATM   14  C           1     -20.878  -5.459  -6.430  0.00  0.00     0.014 C 
HETATM   15  C           1     -20.174  -4.671  -5.332  0.00  0.00     0.012 C 
BRANCH  14  16
HETATM   16  C           1     -22.234  -5.934  -5.924  0.00  0.00     0.002 C 
HETATM   17  C           1     -22.048  -6.729  -4.638  0.00  0.00     0.005 C 
ENDBRANCH  14  16
ENDBRANCH  13  14
BRANCH  13  18
HETATM   18  C           1     -19.802  -4.531  -8.457  0.00  0.00     0.197 C 
HETATM   19  O           1     -19.817  -4.872  -9.660  0.00  0.00    -0.646 OA
HETATM   20  O           1     -18.733  -4.161  -7.926  0.00  0.00    -0.646 OA
ENDBRANCH  13  18
ENDBRANCH   4  13
TORSDOF 8
ENDMDL
MODEL 5
REMARK VINA RESULT:      -4.8     10.430     12.208
REMARK  8 active torsions:
REMARK  status: ('A' for Active; 'I' for Inactive)
REMARK    1  A    between atoms: O_3  and  C_20 
REMARK    2  A    between atoms: C_5  and  C_14 
REMARK    3  A    between atoms: C_5  and  C_7 
REMARK    4  A    between atoms: C_7  and  C_11 
REMARK    5  A    between atoms: C_7  and  N_15 
REMARK       I    between atoms: C_13  and  N_15 
REMARK    6  A    between atoms: C_13  and  C_17 
REMARK    7  A    between atoms: N_16  and  C_17 
REMARK    8  A    between atoms: C_17  and  C_20 
ROOT
HETATM    1  H           1     -25.822  -7.196 -17.570  0.00  0.00     0.163 HD
HETATM    2  O           1     -27.169  -5.867 -20.071  0.00  0.00    -0.271 OA
HETATM    3  C           1     -26.337  -6.472 -19.439  0.00  0.00     0.251 C 
HETATM    4  N           1     -26.520  -6.689 -18.099  0.00  0.00    -0.344 N 
ENDROOT
BRANCH   3   5
HETATM    5  C           1     -25.095  -6.987 -20.125  0.00  0.00     0.297 C 
BRANCH   5   6
HETATM    6  N           1     -24.174  -7.586 -19.104  0.00  0.00    -0.064 N 
HETATM    7  H           1     -23.183  -7.391 -19.371  0.00  0.00     0.275 HD
HETATM    8  H           1     -24.370  -7.166 -18.168  0.00  0.00     0.275 HD
HETATM    9  H           1     -24.326  -8.618 -19.061  0.00  0.00     0.275 HD
ENDBRANCH   5   6
BRANCH   5  10
HETATM   10  C           1     -25.481  -8.049 -21.144  0.00  0.00     0.206 C 
BRANCH  10  11
HETATM   11  O           1     -26.804  -8.455 -20.921  0.00  0.00    -0.398 OA
HETATM   12  H           1     -26.807  -8.952 -20.121  0.00  0.00     0.209 HD
ENDBRANCH  10  11
ENDBRANCH   5  10
ENDBRANCH   3   5
BRANCH   4  13
HETATM   13  C           1     -27.713  -6.194 -17.441  0.00  0.00     0.189 C 
BRANCH  13  14
HETATM   14  C           1     -28.934  -6.917 -17.994  0.00  0.00     0.014 C 
HETATM   15  C           1     -29.300  -8.072 -17.070  0.00  0.00     0.012 C 
BRANCH  14  16
HETATM   16  C           1     -30.103  -5.944 -18.080  0.00  0.00     0.002 C 
HETATM   17  C           1     -31.280  -6.492 -17.284  0.00  0.00     0.005 C 
ENDBRANCH  14  16
ENDBRANCH  13  14
BRANCH  13  18
HETATM   18  C           1     -27.608  -6.446 -15.956  0.00  0.00     0.197 C 
HETATM   19  O           1     -26.836  -7.330 -15.526  0.00  0.00    -0.646 OA
HETATM   20  O           1     -28.293  -5.771 -15.158  0.00  0.00    -0.646 OA
ENDBRANCH  13  18
ENDBRANCH   4  13
TORSDOF 8
ENDMDL
MODEL 6
REMARK VINA RESULT:      -4.8     15.336     17.313
REMARK  8 active torsions:
REMARK  status: ('A' for Active; 'I' for Inactive)
REMARK    1  A    between atoms: O_3  and  C_20 
REMARK    2  A    between atoms: C_5  and  C_14 
REMARK    3  A    between atoms: C_5  and  C_7 
REMARK    4  A    between atoms: C_7  and  C_11 
REMARK    5  A    between atoms: C_7  and  N_15 
REMARK       I    between atoms: C_13  and  N_15 
REMARK    6  A    between atoms: C_13  and  C_17 
REMARK    7  A    between atoms: N_16  and  C_17 
REMARK    8  A    between atoms: C_17  and  C_20 
ROOT
HETATM    1  H           1     -22.441  -6.030  -5.369  0.00  0.00     0.163 HD
HETATM    2  O           1     -19.556  -4.957  -5.974  0.00  0.00    -0.271 OA
HETATM    3  C           1     -20.762  -5.009  -6.019  0.00  0.00     0.251 C 
HETATM    4  N           1     -21.431  -5.986  -5.331  0.00  0.00    -0.344 N 
ENDROOT
BRANCH   3   5
HETATM    5  C           1     -21.531  -3.999  -6.835  0.00  0.00     0.297 C 
BRANCH   5   6
HETATM    6  N           1     -20.650  -3.462  -7.923  0.00  0.00    -0.064 N 
HETATM    7  H           1     -21.228  -3.250  -8.767  0.00  0.00     0.275 HD
HETATM    8  H           1     -20.182  -2.588  -7.593  0.00  0.00     0.275 HD
HETATM    9  H           1     -19.926  -4.174  -8.168  0.00  0.00     0.275 HD
ENDBRANCH   5   6
BRANCH   5  10
HETATM   10  C           1     -22.751  -4.668  -7.453  0.00  0.00     0.206 C 
BRANCH  10  11
HETATM   11  O           1     -23.877  -4.418  -6.656  0.00  0.00    -0.398 OA
HETATM   12  H           1     -23.810  -3.527  -6.357  0.00  0.00     0.209 HD
ENDBRANCH  10  11
ENDBRANCH   5  10
ENDBRANCH   3   5
BRANCH   4  13
HETATM   13  C           1     -20.691  -6.956  -4.547  0.00  0.00     0.189 C 
BRANCH  13  14
HETATM   14  C           1     -21.536  -7.398  -3.359  0.00  0.00     0.014 C 
HETATM   15  C           1     -20.729  -8.356  -2.492  0.00  0.00     0.012 C 
BRANCH  14  16
HETATM   16  C           1     -21.930  -6.177  -2.536  0.00  0.00     0.002 C 
HETATM   17  C           1     -22.309  -6.615  -1.128  0.00  0.00     0.005 C 
ENDBRANCH  14  16
ENDBRANCH  13  14
BRANCH  13  18
HETATM   18  C           1     -20.367  -8.154  -5.407  0.00  0.00     0.197 C 
HETATM   19  O           1     -21.291  -8.834  -5.904  0.00  0.00    -0.646 OA
HETATM   20  O           1     -19.176  -8.465  -5.622  0.00  0.00    -0.646 OA
ENDBRANCH  13  18
ENDBRANCH   4  13
TORSDOF 8
ENDMDL
MODEL 7
REMARK VINA RESULT:      -4.5     17.924     19.642
REMARK  8 active torsions:
REMARK  status: ('A' for Active; 'I' for Inactive)
REMARK    1  A    between atoms: O_3  and  C_20 
REMARK    2  A    between atoms: C_5  and  C_14 
REMARK    3  A    between atoms: C_5  and  C_7 
REMARK    4  A    between atoms: C_7  and  C_11 
REMARK    5  A    between atoms: C_7  and  N_15 
REMARK       I    between atoms: C_13  and  N_15 
REMARK    6  A    between atoms: C_13  and  C_17 
REMARK    7  A    between atoms: N_16  and  C_17 
REMARK    8  A    between atoms: C_17  and  C_20 
ROOT
HETATM    1  H           1     -22.008  -9.851  -2.725  0.00  0.00     0.163 HD
HETATM    2  O           1     -20.841  -6.985  -2.213  0.00  0.00    -0.271 OA
HETATM    3  C           1     -21.359  -7.889  -2.824  0.00  0.00     0.251 C 
HETATM    4  N           1     -21.575  -9.094  -2.212  0.00  0.00    -0.344 N 
ENDROOT
BRANCH   3   5
HETATM    5  C           1     -21.765  -7.689  -4.264  0.00  0.00     0.297 C 
BRANCH   5   6
HETATM    6  N           1     -22.303  -6.300  -4.442  0.00  0.00    -0.064 N 
HETATM    7  H           1     -22.593  -5.917  -3.515  0.00  0.00     0.275 HD
HETATM    8  H           1     -21.563  -5.690  -4.855  0.00  0.00     0.275 HD
HETATM    9  H           1     -23.129  -6.327  -5.081  0.00  0.00     0.275 HD
ENDBRANCH   5   6
BRANCH   5  10
HETATM   10  C           1     -20.555  -7.884  -5.166  0.00  0.00     0.206 C 
BRANCH  10  11
HETATM   11  O           1     -19.512  -8.465  -4.431  0.00  0.00    -0.398 OA
HETATM   12  H           1     -19.829  -8.585  -3.552  0.00  0.00     0.209 HD
ENDBRANCH  10  11
ENDBRANCH   5  10
ENDBRANCH   3   5
BRANCH   4  13
HETATM   13  C           1     -21.184  -9.285  -0.829  0.00  0.00     0.189 C 
BRANCH  13  14
HETATM   14  C           1     -22.421  -9.566   0.013  0.00  0.00     0.014 C 
HETATM   15  C           1     -23.090  -8.249   0.387  0.00  0.00     0.012 C 
BRANCH  14  16
HETATM   16  C           1     -23.396 -10.421  -0.787  0.00  0.00     0.002 C 
HETATM   17  C           1     -23.791 -11.643   0.032  0.00  0.00     0.005 C 
ENDBRANCH  14  16
ENDBRANCH  13  14
BRANCH  13  18
HETATM   18  C           1     -20.234 -10.453  -0.733  0.00  0.00     0.197 C 
HETATM   19  O           1     -19.562 -10.796  -1.730  0.00  0.00    -0.646 OA
HETATM   20  O           1     -20.118 -11.078   0.343  0.00  0.00    -0.646 OA
ENDBRANCH  13  18
ENDBRANCH   4  13
TORSDOF 8
ENDMDL
MODEL 8
REMARK VINA RESULT:      -4.5      2.040      4.217
REMARK  8 active torsions:
REMARK  status: ('A' for Active; 'I' for Inactive)
REMARK    1  A    between atoms: O_3  and  C_20 
REMARK    2  A    between atoms: C_5  and  C_14 
REMARK    3  A    between atoms: C_5  and  C_7 
REMARK    4  A    between atoms: C_7  and  C_11 
REMARK    5  A    between atoms: C_7  and  N_15 
REMARK       I    between atoms: C_13  and  N_15 
REMARK    6  A    between atoms: C_13  and  C_17 
REMARK    7  A    between atoms: N_16  and  C_17 
REMARK    8  A    between atoms: C_17  and  C_20 
ROOT
HETATM    1  H           1     -35.940  -2.630 -11.997  0.00  0.00     0.163 HD
HETATM    2  O           1     -33.357  -1.626 -10.526  0.00  0.00    -0.271 OA
HETATM    3  C           1     -34.134  -2.415 -11.010  0.00  0.00     0.251 C 
HETATM    4  N           1     -35.290  -1.969 -11.593  0.00  0.00    -0.344 N 
ENDROOT
BRANCH   3   5
HETATM    5  C           1     -33.832  -3.893 -10.969  0.00  0.00     0.297 C 
BRANCH   5   6
HETATM    6  N           1     -35.083  -4.667 -11.259  0.00  0.00    -0.064 N 
HETATM    7  H           1     -35.749  -4.566 -10.461  0.00  0.00     0.275 HD
HETATM    8  H           1     -35.526  -4.298 -12.131  0.00  0.00     0.275 HD
HETATM    9  H           1     -34.847  -5.676 -11.389  0.00  0.00     0.275 HD
ENDBRANCH   5   6
BRANCH   5  10
HETATM   10  C           1     -32.776  -4.225 -12.014  0.00  0.00     0.206 C 
BRANCH  10  11
HETATM   11  O           1     -33.324  -4.079 -13.296  0.00  0.00    -0.398 OA
HETATM   12  H           1     -33.564  -4.940 -13.592  0.00  0.00     0.209 HD
ENDBRANCH  10  11
ENDBRANCH   5  10
ENDBRANCH   3   5
BRANCH   4  13
HETATM   13  C           1     -35.580  -0.549 -11.632  0.00  0.00     0.189 C 
BRANCH  13  14
HETATM   14  C           1     -35.901  -0.136 -13.062  0.00  0.00     0.014 C 
HETATM   15  C           1     -35.256  -1.121 -14.030  0.00  0.00     0.012 C 
BRANCH  14  16
HETATM   16  C           1     -37.411  -0.140 -13.264  0.00  0.00     0.002 C 
HETATM   17  C           1     -37.725  -0.061 -14.752  0.00  0.00     0.005 C 
ENDBRANCH  14  16
ENDBRANCH  13  14
BRANCH  13  18
HETATM   18  C           1     -36.765  -0.254 -10.745  0.00  0.00     0.197 C 
HETATM   19  O           1     -36.749   0.743  -9.991  0.00  0.00    -0.646 OA
HETATM   20  O           1     -37.763  -1.006 -10.765  0.00  0.00    -0.646 OA
ENDBRANCH  13  18
ENDBRANCH   4  13
TORSDOF 8
ENDMDL
MODEL 9
REMARK VINA RESULT:      -4.5     17.815     19.798
REMARK  8 active torsions:
REMARK  status: ('A' for Active; 'I' for Inactive)
REMARK    1  A    between atoms: O_3  and  C_20 
REMARK    2  A    between atoms: C_5  and  C_14 
REMARK    3  A    between atoms: C_5  and  C_7 
REMARK    4  A    between atoms: C_7  and  C_11 
REMARK    5  A    between atoms: C_7  and  N_15 
REMARK       I    between atoms: C_13  and  N_15 
REMARK    6  A    between atoms: C_13  and  C_17 
REMARK    7  A    between atoms: N_16  and  C_17 
REMARK    8  A    between atoms: C_17  and  C_20 
ROOT
HETATM    1  H           1     -22.524  -9.610  -2.312  0.00  0.00     0.163 HD
HETATM    2  O           1     -20.854  -9.789   0.338  0.00  0.00    -0.271 OA
HETATM    3  C           1     -21.645 -10.126  -0.511  0.00  0.00     0.251 C 
HETATM    4  N           1     -21.861  -9.327  -1.601  0.00  0.00    -0.344 N 
ENDROOT
BRANCH   3   5
HETATM    5  C           1     -22.395 -11.427  -0.367  0.00  0.00     0.297 C 
BRANCH   5   6
HETATM    6  N           1     -21.812 -12.217   0.767  0.00  0.00    -0.064 N 
HETATM    7  H           1     -20.770 -12.164   0.729  0.00  0.00     0.275 HD
HETATM    8  H           1     -22.147 -11.822   1.675  0.00  0.00     0.275 HD
HETATM    9  H           1     -22.113 -13.214   0.688  0.00  0.00     0.275 HD
ENDBRANCH   5   6
BRANCH   5  10
HETATM   10  C           1     -23.863 -11.139  -0.082  0.00  0.00     0.206 C 
BRANCH  10  11
HETATM   11  O           1     -24.026  -9.776   0.201  0.00  0.00    -0.398 OA
HETATM   12  H           1     -24.060  -9.693   1.139  0.00  0.00     0.209 HD
ENDBRANCH  10  11
ENDBRANCH   5  10
ENDBRANCH   3   5
BRANCH   4  13
HETATM   13  C           1     -21.139  -8.077  -1.739  0.00  0.00     0.189 C 
BRANCH  13  14
HETATM   14  C           1     -20.556  -7.981  -3.142  0.00  0.00     0.014 C 
HETATM   15  C           1     -19.301  -8.841  -3.230  0.00  0.00     0.012 C 
BRANCH  14  16
HETATM   16  C           1     -21.583  -8.475  -4.153  0.00  0.00     0.002 C 
HETATM   17  C           1     -21.534  -7.599  -5.398  0.00  0.00     0.005 C 
ENDBRANCH  14  16
ENDBRANCH  13  14
BRANCH  13  18
HETATM   18  C           1     -22.084  -6.924  -1.506  0.00  0.00     0.197 C 
HETATM   19  O           1     -22.936  -6.988  -0.593  0.00  0.00    -0.646 OA
HETATM   20  O           1     -22.016  -5.905  -2.226  0.00  0.00    -0.646 OA
ENDBRANCH  13  18
ENDBRANCH   4  13
TORSDOF 8
ENDMDL
