MODEL 1
REMARK VINA RESULT:      -8.2      0.000      0.000
REMARK  12 active torsions:
REMARK  status: ('A' for Active; 'I' for Inactive)
REMARK    1  A    between atoms: C_1  and  C_5 
REMARK    2  A    between atoms: C_4  and  O_21 
REMARK    3  A    between atoms: C_5  and  C_15 
REMARK    4  A    between atoms: C_6  and  C_12 
REMARK    5  A    between atoms: C_6  and  C_7 
REMARK    6  A    between atoms: N_10  and  C_13 
REMARK    7  A    between atoms: C_12  and  C_13 
REMARK    8  A    between atoms: C_13  and  C_14 
REMARK       I    between atoms: C_14  and  N_16 
REMARK    9  A    between atoms: C_15  and  C_18 
REMARK   10  A    between atoms: C_15  and  N_16 
REMARK   11  A    between atoms: P_20  and  O_21 
REMARK   12  A    between atoms: P_20  and  O_30 
ROOT
HETATM    1  C           1     -32.404  -4.505 -16.314  0.00  0.00     0.189 C 
ENDROOT
BRANCH   1   2
HETATM    2  C           1     -31.996  -5.775 -17.050  0.00  0.00     0.074 C 
BRANCH   2   3
HETATM    3  C           1     -30.636  -6.202 -16.593  0.00  0.00    -0.056 A 
HETATM    4  C           1     -30.031  -5.564 -15.511  0.00  0.00     0.010 A 
HETATM    5  C           1     -28.764  -5.962 -15.086  0.00  0.00     0.038 A 
HETATM    6  C           1     -28.102  -6.999 -15.743  0.00  0.00     0.081 A 
HETATM    7  C           1     -28.707  -7.638 -16.825  0.00  0.00     0.038 A 
HETATM    8  C           1     -29.974  -7.239 -17.250  0.00  0.00     0.010 A 
BRANCH   6   9
HETATM    9  O           1     -26.870  -7.386 -15.329  0.00  0.00    -0.247 OA
BRANCH   9  10
HETATM   10  P           1     -25.586  -6.693 -16.021  0.00  0.00     0.411 P 
HETATM   11  O           1     -26.003  -6.013 -17.268  0.00  0.00    -0.624 OA
HETATM   12  O           1     -24.579  -7.730 -16.339  0.00  0.00    -0.624 OA
BRANCH  10  13
HETATM   13  O           1     -24.946  -5.611 -15.007  0.00  0.00    -0.300 OA
HETATM   14  H           1     -25.540  -4.879 -15.026  0.00  0.00     0.223 HD
ENDBRANCH  10  13
ENDBRANCH   9  10
ENDBRANCH   6   9
ENDBRANCH   2   3
ENDBRANCH   1   2
BRANCH   1  15
HETATM   15  C           1     -32.387  -3.340 -17.272  0.00  0.00     0.197 C 
HETATM   16  O           1     -31.300  -2.911 -17.716  0.00  0.00    -0.646 OA
HETATM   17  O           1     -33.460  -2.803 -17.622  0.00  0.00    -0.646 OA
ENDBRANCH   1  15
BRANCH   1  18
HETATM   18  N           1     -33.740  -4.668 -15.774  0.00  0.00    -0.344 N 
HETATM   19  H           1     -34.402  -5.276 -16.239  0.00  0.00     0.163 HD
HETATM   20  C           1     -34.105  -4.000 -14.637  0.00  0.00     0.249 C 
HETATM   21  O           1     -34.598  -2.899 -14.715  0.00  0.00    -0.271 OA
BRANCH  20  22
HETATM   22  C           1     -33.892  -4.638 -13.287  0.00  0.00     0.275 C 
BRANCH  22  23
HETATM   23  N           1     -32.451  -4.501 -12.891  0.00  0.00    -0.066 N 
HETATM   24  H           1     -32.327  -3.635 -12.319  0.00  0.00     0.275 HD
HETATM   25  H           1     -32.164  -5.334 -12.329  0.00  0.00     0.275 HD
HETATM   26  H           1     -31.859  -4.438 -13.751  0.00  0.00     0.275 HD
ENDBRANCH  22  23
BRANCH  22  27
HETATM   27  C           1     -34.769  -3.943 -12.252  0.00  0.00     0.053 C 
BRANCH  27  28
HETATM   28  C           1     -33.939  -3.615 -11.019  0.00  0.00     0.115 C 
BRANCH  28  29
HETATM   29  C           1     -33.931  -2.122 -10.801  0.00  0.00     0.172 C 
HETATM   30  O           1     -33.530  -1.652  -9.713  0.00  0.00    -0.648 OA
HETATM   31  O           1     -34.324  -1.356 -11.706  0.00  0.00    -0.648 OA
ENDBRANCH  28  29
ENDBRANCH  27  28
ENDBRANCH  22  27
ENDBRANCH  20  22
ENDBRANCH   1  18
TORSDOF 12
ENDMDL
MODEL 2
REMARK VINA RESULT:      -7.7      1.725      2.203
REMARK  12 active torsions:
REMARK  status: ('A' for Active; 'I' for Inactive)
REMARK    1  A    between atoms: C_1  and  C_5 
REMARK    2  A    between atoms: C_4  and  O_21 
REMARK    3  A    between atoms: C_5  and  C_15 
REMARK    4  A    between atoms: C_6  and  C_12 
REMARK    5  A    between atoms: C_6  and  C_7 
REMARK    6  A    between atoms: N_10  and  C_13 
REMARK    7  A    between atoms: C_12  and  C_13 
REMARK    8  A    between atoms: C_13  and  C_14 
REMARK       I    between atoms: C_14  and  N_16 
REMARK    9  A    between atoms: C_15  and  C_18 
REMARK   10  A    between atoms: C_15  and  N_16 
REMARK   11  A    between atoms: P_20  and  O_21 
REMARK   12  A    between atoms: P_20  and  O_30 
ROOT
HETATM    1  C           1     -32.333  -4.522 -16.395  0.00  0.00     0.189 C 
ENDROOT
BRANCH   1   2
HETATM    2  C           1     -31.928  -5.793 -17.129  0.00  0.00     0.074 C 
BRANCH   2   3
HETATM    3  C           1     -30.580  -6.237 -16.654  0.00  0.00    -0.056 A 
HETATM    4  C           1     -29.916  -7.273 -17.309  0.00  0.00     0.010 A 
HETATM    5  C           1     -28.659  -7.685 -16.866  0.00  0.00     0.038 A 
HETATM    6  C           1     -28.066  -7.061 -15.769  0.00  0.00     0.081 A 
HETATM    7  C           1     -28.730  -6.023 -15.115  0.00  0.00     0.038 A 
HETATM    8  C           1     -29.987  -5.611 -15.558  0.00  0.00     0.010 A 
BRANCH   6   9
HETATM    9  O           1     -26.845  -7.461 -15.340  0.00  0.00    -0.247 OA
BRANCH   9  10
HETATM   10  P           1     -25.546  -6.722 -15.952  0.00  0.00     0.411 P 
HETATM   11  O           1     -25.931  -5.973 -17.169  0.00  0.00    -0.624 OA
HETATM   12  O           1     -24.521  -7.732 -16.299  0.00  0.00    -0.624 OA
BRANCH  10  13
HETATM   13  O           1     -24.945  -5.696 -14.858  0.00  0.00    -0.300 OA
HETATM   14  H           1     -25.210  -4.842 -15.154  0.00  0.00     0.223 HD
ENDBRANCH  10  13
ENDBRANCH   9  10
ENDBRANCH   6   9
ENDBRANCH   2   3
ENDBRANCH   1   2
BRANCH   1  15
HETATM   15  C           1     -32.382  -3.371 -17.370  0.00  0.00     0.197 C 
HETATM   16  O           1     -33.477  -2.845 -17.661  0.00  0.00    -0.646 OA
HETATM   17  O           1     -31.326  -2.944 -17.886  0.00  0.00    -0.646 OA
ENDBRANCH   1  15
BRANCH   1  18
HETATM   18  N           1     -33.642  -4.705 -15.798  0.00  0.00    -0.344 N 
HETATM   19  H           1     -34.240  -5.458 -16.112  0.00  0.00     0.163 HD
HETATM   20  C           1     -34.068  -3.859 -14.810  0.00  0.00     0.249 C 
HETATM   21  O           1     -34.673  -2.853 -15.096  0.00  0.00    -0.271 OA
BRANCH  20  22
HETATM   22  C           1     -33.781  -4.183 -13.365  0.00  0.00     0.275 C 
BRANCH  22  23
HETATM   23  N           1     -33.905  -2.937 -12.539  0.00  0.00    -0.066 N 
HETATM   24  H           1     -34.308  -2.169 -13.122  0.00  0.00     0.275 HD
HETATM   25  H           1     -34.533  -3.121 -11.724  0.00  0.00     0.275 HD
HETATM   26  H           1     -32.960  -2.652 -12.194  0.00  0.00     0.275 HD
ENDBRANCH  22  23
BRANCH  22  27
HETATM   27  C           1     -34.780  -5.221 -12.868  0.00  0.00     0.053 C 
BRANCH  27  28
HETATM   28  C           1     -34.868  -5.157 -11.350  0.00  0.00     0.115 C 
BRANCH  28  29
HETATM   29  C           1     -34.302  -6.425 -10.760  0.00  0.00     0.172 C 
HETATM   30  O           1     -33.082  -6.676 -10.869  0.00  0.00    -0.648 OA
HETATM   31  O           1     -35.052  -7.225 -10.161  0.00  0.00    -0.648 OA
ENDBRANCH  28  29
ENDBRANCH  27  28
ENDBRANCH  22  27
ENDBRANCH  20  22
ENDBRANCH   1  18
TORSDOF 12
ENDMDL
MODEL 3
REMARK VINA RESULT:      -7.7     11.006     13.558
REMARK  12 active torsions:
REMARK  status: ('A' for Active; 'I' for Inactive)
REMARK    1  A    between atoms: C_1  and  C_5 
REMARK    2  A    between atoms: C_4  and  O_21 
REMARK    3  A    between atoms: C_5  and  C_15 
REMARK    4  A    between atoms: C_6  and  C_12 
REMARK    5  A    between atoms: C_6  and  C_7 
REMARK    6  A    between atoms: N_10  and  C_13 
REMARK    7  A    between atoms: C_12  and  C_13 
REMARK    8  A    between atoms: C_13  and  C_14 
REMARK       I    between atoms: C_14  and  N_16 
REMARK    9  A    between atoms: C_15  and  C_18 
REMARK   10  A    between atoms: C_15  and  N_16 
REMARK   11  A    between atoms: P_20  and  O_21 
REMARK   12  A    between atoms: P_20  and  O_30 
ROOT
HETATM    1  C           1     -20.068  -5.919  -7.260  0.00  0.00     0.189 C 
ENDROOT
BRANCH   1   2
HETATM    2  C           1     -21.573  -5.713  -7.378  0.00  0.00     0.074 C 
BRANCH   2   3
HETATM    3  C           1     -21.868  -4.859  -8.572  0.00  0.00    -0.056 A 
HETATM    4  C           1     -23.103  -4.222  -8.686  0.00  0.00     0.010 A 
HETATM    5  C           1     -23.377  -3.426  -9.797  0.00  0.00     0.038 A 
HETATM    6  C           1     -22.416  -3.266 -10.795  0.00  0.00     0.081 A 
HETATM    7  C           1     -21.179  -3.902 -10.681  0.00  0.00     0.038 A 
HETATM    8  C           1     -20.905  -4.699  -9.569  0.00  0.00     0.010 A 
BRANCH   6   9
HETATM    9  O           1     -22.682  -2.492 -11.876  0.00  0.00    -0.247 OA
BRANCH   9  10
HETATM   10  P           1     -23.512  -3.152 -13.094  0.00  0.00     0.411 P 
HETATM   11  O           1     -22.806  -2.896 -14.369  0.00  0.00    -0.624 OA
HETATM   12  O           1     -24.864  -2.553 -13.151  0.00  0.00    -0.624 OA
BRANCH  10  13
HETATM   13  O           1     -23.636  -4.745 -12.860  0.00  0.00    -0.300 OA
HETATM   14  H           1     -24.041  -4.836 -12.013  0.00  0.00     0.223 HD
ENDBRANCH  10  13
ENDBRANCH   9  10
ENDBRANCH   6   9
ENDBRANCH   2   3
ENDBRANCH   1   2
BRANCH   1  15
HETATM   15  C           1     -19.443  -4.707  -6.614  0.00  0.00     0.197 C 
HETATM   16  O           1     -19.946  -4.222  -5.578  0.00  0.00    -0.646 OA
HETATM   17  O           1     -18.422  -4.189  -7.115  0.00  0.00    -0.646 OA
ENDBRANCH   1  15
BRANCH   1  18
HETATM   18  N           1     -19.804  -7.090  -6.448  0.00  0.00    -0.344 N 
HETATM   19  H           1     -18.903  -7.549  -6.499  0.00  0.00     0.163 HD
HETATM   20  C           1     -20.772  -7.577  -5.612  0.00  0.00     0.249 C 
HETATM   21  O           1     -21.556  -8.404  -6.012  0.00  0.00    -0.271 OA
BRANCH  20  22
HETATM   22  C           1     -20.861  -7.078  -4.190  0.00  0.00     0.275 C 
BRANCH  22  23
HETATM   23  N           1     -22.019  -6.133  -4.063  0.00  0.00    -0.066 N 
HETATM   24  H           1     -22.883  -6.669  -3.822  0.00  0.00     0.275 HD
HETATM   25  H           1     -21.819  -5.437  -3.309  0.00  0.00     0.275 HD
HETATM   26  H           1     -22.161  -5.633  -4.971  0.00  0.00     0.275 HD
ENDBRANCH  22  23
BRANCH  22  27
HETATM   27  C           1     -21.066  -8.259  -3.249  0.00  0.00     0.053 C 
BRANCH  27  28
HETATM   28  C           1     -20.727  -7.839  -1.826  0.00  0.00     0.115 C 
BRANCH  28  29
HETATM   29  C           1     -21.998  -7.719  -1.021  0.00  0.00     0.172 C 
HETATM   30  O           1     -22.652  -6.653  -1.039  0.00  0.00    -0.648 OA
HETATM   31  O           1     -22.397  -8.685  -0.335  0.00  0.00    -0.648 OA
ENDBRANCH  28  29
ENDBRANCH  27  28
ENDBRANCH  22  27
ENDBRANCH  20  22
ENDBRANCH   1  18
TORSDOF 12
ENDMDL
MODEL 4
REMARK VINA RESULT:      -7.6     10.867     13.369
REMARK  12 active torsions:
REMARK  status: ('A' for Active; 'I' for Inactive)
REMARK    1  A    between atoms: C_1  and  C_5 
REMARK    2  A    between atoms: C_4  and  O_21 
REMARK    3  A    between atoms: C_5  and  C_15 
REMARK    4  A    between atoms: C_6  and  C_12 
REMARK    5  A    between atoms: C_6  and  C_7 
REMARK    6  A    between atoms: N_10  and  C_13 
REMARK    7  A    between atoms: C_12  and  C_13 
REMARK    8  A    between atoms: C_13  and  C_14 
REMARK       I    between atoms: C_14  and  N_16 
REMARK    9  A    between atoms: C_15  and  C_18 
REMARK   10  A    between atoms: C_15  and  N_16 
REMARK   11  A    between atoms: P_20  and  O_21 
REMARK   12  A    between atoms: P_20  and  O_30 
ROOT
HETATM    1  C           1     -21.571  -5.495  -6.621  0.00  0.00     0.189 C 
ENDROOT
BRANCH   1   2
HETATM    2  C           1     -21.920  -4.099  -7.120  0.00  0.00     0.074 C 
BRANCH   2   3
HETATM    3  C           1     -22.389  -4.179  -8.540  0.00  0.00    -0.056 A 
HETATM    4  C           1     -23.751  -4.107  -8.829  0.00  0.00     0.010 A 
HETATM    5  C           1     -24.188  -4.181 -10.151  0.00  0.00     0.038 A 
HETATM    6  C           1     -23.263  -4.326 -11.185  0.00  0.00     0.081 A 
HETATM    7  C           1     -21.900  -4.396 -10.896  0.00  0.00     0.038 A 
HETATM    8  C           1     -21.463  -4.322  -9.573  0.00  0.00     0.010 A 
BRANCH   6   9
HETATM    9  O           1     -23.688  -4.397 -12.470  0.00  0.00    -0.247 OA
BRANCH   9  10
HETATM   10  P           1     -24.002  -3.014 -13.242  0.00  0.00     0.411 P 
HETATM   11  O           1     -25.422  -2.648 -13.043  0.00  0.00    -0.624 OA
HETATM   12  O           1     -23.735  -3.185 -14.688  0.00  0.00    -0.624 OA
BRANCH  10  13
HETATM   13  O           1     -23.058  -1.843 -12.653  0.00  0.00    -0.300 OA
HETATM   14  H           1     -22.782  -1.350 -13.408  0.00  0.00     0.223 HD
ENDBRANCH  10  13
ENDBRANCH   9  10
ENDBRANCH   6   9
ENDBRANCH   2   3
ENDBRANCH   1   2
BRANCH   1  15
HETATM   15  C           1     -20.076  -5.611  -6.452  0.00  0.00     0.197 C 
HETATM   16  O           1     -19.491  -6.667  -6.776  0.00  0.00    -0.646 OA
HETATM   17  O           1     -19.424  -4.651  -5.988  0.00  0.00    -0.646 OA
ENDBRANCH   1  15
BRANCH   1  18
HETATM   18  N           1     -22.221  -5.728  -5.346  0.00  0.00    -0.344 N 
HETATM   19  H           1     -23.157  -5.377  -5.184  0.00  0.00     0.163 HD
HETATM   20  C           1     -21.570  -6.420  -4.361  0.00  0.00     0.249 C 
HETATM   21  O           1     -20.884  -5.830  -3.561  0.00  0.00    -0.271 OA
BRANCH  20  22
HETATM   22  C           1     -21.709  -7.920  -4.277  0.00  0.00     0.275 C 
BRANCH  22  23
HETATM   23  N           1     -21.148  -8.545  -5.521  0.00  0.00    -0.066 N 
HETATM   24  H           1     -21.437  -9.548  -5.568  0.00  0.00     0.275 HD
HETATM   25  H           1     -21.512  -8.038  -6.359  0.00  0.00     0.275 HD
HETATM   26  H           1     -20.105  -8.483  -5.501  0.00  0.00     0.275 HD
ENDBRANCH  22  23
BRANCH  22  27
HETATM   27  C           1     -20.943  -8.434  -3.064  0.00  0.00     0.053 C 
BRANCH  27  28
HETATM   28  C           1     -21.928  -8.883  -1.994  0.00  0.00     0.115 C 
BRANCH  28  29
HETATM   29  C           1     -21.950  -7.872  -0.873  0.00  0.00     0.172 C 
HETATM   30  O           1     -21.248  -8.054   0.146  0.00  0.00    -0.648 OA
HETATM   31  O           1     -22.669  -6.854  -0.963  0.00  0.00    -0.648 OA
ENDBRANCH  28  29
ENDBRANCH  27  28
ENDBRANCH  22  27
ENDBRANCH  20  22
ENDBRANCH   1  18
TORSDOF 12
ENDMDL
MODEL 5
REMARK VINA RESULT:      -7.5     12.095     14.434
REMARK  12 active torsions:
REMARK  status: ('A' for Active; 'I' for Inactive)
REMARK    1  A    between atoms: C_1  and  C_5 
REMARK    2  A    between atoms: C_4  and  O_21 
REMARK    3  A    between atoms: C_5  and  C_15 
REMARK    4  A    between atoms: C_6  and  C_12 
REMARK    5  A    between atoms: C_6  and  C_7 
REMARK    6  A    between atoms: N_10  and  C_13 
REMARK    7  A    between atoms: C_12  and  C_13 
REMARK    8  A    between atoms: C_13  and  C_14 
REMARK       I    between atoms: C_14  and  N_16 
REMARK    9  A    between atoms: C_15  and  C_18 
REMARK   10  A    between atoms: C_15  and  N_16 
REMARK   11  A    between atoms: P_20  and  O_21 
REMARK   12  A    between atoms: P_20  and  O_30 
ROOT
HETATM    1  C           1     -21.659  -6.750  -5.397  0.00  0.00     0.189 C 
ENDROOT
BRANCH   1   2
HETATM    2  C           1     -20.683  -5.639  -5.764  0.00  0.00     0.074 C 
BRANCH   2   3
HETATM    3  C           1     -21.074  -5.047  -7.082  0.00  0.00    -0.056 A 
HETATM    4  C           1     -22.296  -4.389  -7.216  0.00  0.00     0.010 A 
HETATM    5  C           1     -22.660  -3.836  -8.444  0.00  0.00     0.038 A 
HETATM    6  C           1     -21.801  -3.941  -9.538  0.00  0.00     0.081 A 
HETATM    7  C           1     -20.577  -4.598  -9.404  0.00  0.00     0.038 A 
HETATM    8  C           1     -20.214  -5.151  -8.175  0.00  0.00     0.010 A 
BRANCH   6   9
HETATM    9  O           1     -22.154  -3.404 -10.731  0.00  0.00    -0.247 OA
BRANCH   9  10
HETATM   10  P           1     -23.514  -3.929 -11.425  0.00  0.00     0.411 P 
HETATM   11  O           1     -24.633  -3.030 -11.064  0.00  0.00    -0.624 OA
HETATM   12  O           1     -23.812  -5.300 -10.952  0.00  0.00    -0.624 OA
BRANCH  10  13
HETATM   13  O           1     -23.330  -3.940 -13.030  0.00  0.00    -0.300 OA
HETATM   14  H           1     -23.632  -4.789 -13.304  0.00  0.00     0.223 HD
ENDBRANCH  10  13
ENDBRANCH   9  10
ENDBRANCH   6   9
ENDBRANCH   2   3
ENDBRANCH   1   2
BRANCH   1  15
HETATM   15  C           1     -20.896  -8.027  -5.145  0.00  0.00     0.197 C 
HETATM   16  O           1     -19.658  -7.993  -4.976  0.00  0.00    -0.646 OA
HETATM   17  O           1     -21.503  -9.120  -5.106  0.00  0.00    -0.646 OA
ENDBRANCH   1  15
BRANCH   1  18
HETATM   18  N           1     -22.386  -6.377  -4.199  0.00  0.00    -0.344 N 
HETATM   19  H           1     -23.374  -6.164  -4.253  0.00  0.00     0.163 HD
HETATM   20  C           1     -21.736  -6.311  -2.996  0.00  0.00     0.249 C 
HETATM   21  O           1     -21.223  -5.277  -2.642  0.00  0.00    -0.271 OA
BRANCH  20  22
HETATM   22  C           1     -21.661  -7.533  -2.113  0.00  0.00     0.275 C 
BRANCH  22  23
HETATM   23  N           1     -20.223  -7.863  -1.838  0.00  0.00    -0.066 N 
HETATM   24  H           1     -19.692  -7.886  -2.738  0.00  0.00     0.275 HD
HETATM   25  H           1     -19.813  -7.137  -1.209  0.00  0.00     0.275 HD
HETATM   26  H           1     -20.164  -8.799  -1.376  0.00  0.00     0.275 HD
ENDBRANCH  22  23
BRANCH  22  27
HETATM   27  C           1     -22.376  -7.254  -0.797  0.00  0.00     0.053 C 
BRANCH  27  28
HETATM   28  C           1     -21.932  -8.267   0.248  0.00  0.00     0.115 C 
BRANCH  28  29
HETATM   29  C           1     -22.505  -9.622  -0.088  0.00  0.00     0.172 C 
HETATM   30  O           1     -23.731  -9.831   0.041  0.00  0.00    -0.648 OA
HETATM   31  O           1     -21.755 -10.535  -0.494  0.00  0.00    -0.648 OA
ENDBRANCH  28  29
ENDBRANCH  27  28
ENDBRANCH  22  27
ENDBRANCH  20  22
ENDBRANCH   1  18
TORSDOF 12
ENDMDL
MODEL 6
REMARK VINA RESULT:      -6.9     12.578     14.975
REMARK  12 active torsions:
REMARK  status: ('A' for Active; 'I' for Inactive)
REMARK    1  A    between atoms: C_1  and  C_5 
REMARK    2  A    between atoms: C_4  and  O_21 
REMARK    3  A    between atoms: C_5  and  C_15 
REMARK    4  A    between atoms: C_6  and  C_12 
REMARK    5  A    between atoms: C_6  and  C_7 
REMARK    6  A    between atoms: N_10  and  C_13 
REMARK    7  A    between atoms: C_12  and  C_13 
REMARK    8  A    between atoms: C_13  and  C_14 
REMARK       I    between atoms: C_14  and  N_16 
REMARK    9  A    between atoms: C_15  and  C_18 
REMARK   10  A    between atoms: C_15  and  N_16 
REMARK   11  A    between atoms: P_20  and  O_21 
REMARK   12  A    between atoms: P_20  and  O_30 
ROOT
HETATM    1  C           1     -21.106  -6.991  -6.007  0.00  0.00     0.189 C 
ENDROOT
BRANCH   1   2
HETATM    2  C           1     -19.882  -7.723  -5.471  0.00  0.00     0.074 C 
BRANCH   2   3
HETATM    3  C           1     -20.307  -8.710  -4.429  0.00  0.00    -0.056 A 
HETATM    4  C           1     -21.398  -9.546  -4.663  0.00  0.00     0.010 A 
HETATM    5  C           1     -21.793 -10.466  -3.692  0.00  0.00     0.038 A 
HETATM    6  C           1     -21.097 -10.549  -2.486  0.00  0.00     0.081 A 
HETATM    7  C           1     -20.005  -9.713  -2.252  0.00  0.00     0.038 A 
HETATM    8  C           1     -19.610  -8.794  -3.224  0.00  0.00     0.010 A 
BRANCH   6   9
HETATM    9  O           1     -21.482 -11.443  -1.543  0.00  0.00    -0.247 OA
BRANCH   9  10
HETATM   10  P           1     -22.230 -10.881  -0.226  0.00  0.00     0.411 P 
HETATM   11  O           1     -23.139 -11.920   0.307  0.00  0.00    -0.624 OA
HETATM   12  O           1     -23.014  -9.677  -0.582  0.00  0.00    -0.624 OA
BRANCH  10  13
HETATM   13  O           1     -21.132 -10.499   0.895  0.00  0.00    -0.300 OA
HETATM   14  H           1     -20.929 -11.314   1.324  0.00  0.00     0.223 HD
ENDBRANCH  10  13
ENDBRANCH   9  10
ENDBRANCH   6   9
ENDBRANCH   2   3
ENDBRANCH   1   2
BRANCH   1  15
HETATM   15  C           1     -21.695  -6.130  -4.916  0.00  0.00     0.197 C 
HETATM   16  O           1     -20.943  -5.512  -4.133  0.00  0.00    -0.646 OA
HETATM   17  O           1     -22.936  -6.036  -4.796  0.00  0.00    -0.646 OA
ENDBRANCH   1  15
BRANCH   1  18
HETATM   18  N           1     -20.716  -6.154  -7.125  0.00  0.00    -0.344 N 
HETATM   19  H           1     -20.012  -6.477  -7.777  0.00  0.00     0.163 HD
HETATM   20  C           1     -21.300  -4.929  -7.300  0.00  0.00     0.249 C 
HETATM   21  O           1     -20.813  -3.949  -6.788  0.00  0.00    -0.271 OA
BRANCH  20  22
HETATM   22  C           1     -22.553  -4.803  -8.131  0.00  0.00     0.275 C 
BRANCH  22  23
HETATM   23  N           1     -23.689  -4.354  -7.259  0.00  0.00    -0.066 N 
HETATM   24  H           1     -23.361  -3.595  -6.621  0.00  0.00     0.275 HD
HETATM   25  H           1     -24.467  -3.995  -7.858  0.00  0.00     0.275 HD
HETATM   26  H           1     -24.031  -5.163  -6.690  0.00  0.00     0.275 HD
ENDBRANCH  22  23
BRANCH  22  27
HETATM   27  C           1     -22.329  -3.778  -9.236  0.00  0.00     0.053 C 
BRANCH  27  28
HETATM   28  C           1     -23.087  -4.204 -10.486  0.00  0.00     0.115 C 
BRANCH  28  29
HETATM   29  C           1     -24.289  -3.312 -10.674  0.00  0.00     0.172 C 
HETATM   30  O           1     -24.951  -2.936  -9.682  0.00  0.00    -0.648 OA
HETATM   31  O           1     -24.624  -2.949 -11.822  0.00  0.00    -0.648 OA
ENDBRANCH  28  29
ENDBRANCH  27  28
ENDBRANCH  22  27
ENDBRANCH  20  22
ENDBRANCH   1  18
TORSDOF 12
ENDMDL
MODEL 7
REMARK VINA RESULT:      -6.4     12.375     15.306
REMARK  12 active torsions:
REMARK  status: ('A' for Active; 'I' for Inactive)
REMARK    1  A    between atoms: C_1  and  C_5 
REMARK    2  A    between atoms: C_4  and  O_21 
REMARK    3  A    between atoms: C_5  and  C_15 
REMARK    4  A    between atoms: C_6  and  C_12 
REMARK    5  A    between atoms: C_6  and  C_7 
REMARK    6  A    between atoms: N_10  and  C_13 
REMARK    7  A    between atoms: C_12  and  C_13 
REMARK    8  A    between atoms: C_13  and  C_14 
REMARK       I    between atoms: C_14  and  N_16 
REMARK    9  A    between atoms: C_15  and  C_18 
REMARK   10  A    between atoms: C_15  and  N_16 
REMARK   11  A    between atoms: P_20  and  O_21 
REMARK   12  A    between atoms: P_20  and  O_30 
ROOT
HETATM    1  C           1     -20.941  -7.349  -3.706  0.00  0.00     0.189 C 
ENDROOT
BRANCH   1   2
HETATM    2  C           1     -22.002  -7.276  -4.796  0.00  0.00     0.074 C 
BRANCH   2   3
HETATM    3  C           1     -21.556  -6.327  -5.864  0.00  0.00    -0.056 A 
HETATM    4  C           1     -20.282  -6.446  -6.417  0.00  0.00     0.010 A 
HETATM    5  C           1     -19.868  -5.562  -7.413  0.00  0.00     0.038 A 
HETATM    6  C           1     -20.728  -4.557  -7.856  0.00  0.00     0.081 A 
HETATM    7  C           1     -22.004  -4.438  -7.304  0.00  0.00     0.038 A 
HETATM    8  C           1     -22.418  -5.323  -6.308  0.00  0.00     0.010 A 
BRANCH   6   9
HETATM    9  O           1     -20.325  -3.698  -8.823  0.00  0.00    -0.247 OA
BRANCH   9  10
HETATM   10  P           1     -20.588  -4.112 -10.362  0.00  0.00     0.411 P 
HETATM   11  O           1     -21.964  -4.637 -10.504  0.00  0.00    -0.624 OA
HETATM   12  O           1     -19.619  -5.156 -10.764  0.00  0.00    -0.624 OA
BRANCH  10  13
HETATM   13  O           1     -20.407  -2.814 -11.307  0.00  0.00    -0.300 OA
HETATM   14  H           1     -20.493  -2.077 -10.726  0.00  0.00     0.223 HD
ENDBRANCH  10  13
ENDBRANCH   9  10
ENDBRANCH   6   9
ENDBRANCH   2   3
ENDBRANCH   1   2
BRANCH   1  15
HETATM   15  C           1     -21.506  -6.806  -2.416  0.00  0.00     0.197 C 
HETATM   16  O           1     -21.206  -7.342  -1.328  0.00  0.00    -0.646 OA
HETATM   17  O           1     -22.275  -5.820  -2.437  0.00  0.00    -0.646 OA
ENDBRANCH   1  15
BRANCH   1  18
HETATM   18  N           1     -20.539  -8.729  -3.515  0.00  0.00    -0.344 N 
HETATM   19  H           1     -21.167  -9.380  -3.061  0.00  0.00     0.163 HD
HETATM   20  C           1     -19.311  -9.151  -3.947  0.00  0.00     0.249 C 
HETATM   21  O           1     -18.356  -9.087  -3.211  0.00  0.00    -0.271 OA
BRANCH  20  22
HETATM   22  C           1     -19.151  -9.694  -5.346  0.00  0.00     0.275 C 
BRANCH  22  23
HETATM   23  N           1     -17.698  -9.700  -5.717  0.00  0.00    -0.066 N 
HETATM   24  H           1     -17.269 -10.611  -5.437  0.00  0.00     0.275 HD
HETATM   25  H           1     -17.602  -9.573  -6.750  0.00  0.00     0.275 HD
HETATM   26  H           1     -17.209  -8.919  -5.222  0.00  0.00     0.275 HD
ENDBRANCH  22  23
BRANCH  22  27
HETATM   27  C           1     -19.694 -11.117  -5.403  0.00  0.00     0.053 C 
BRANCH  27  28
HETATM   28  C           1     -21.087 -11.106  -6.015  0.00  0.00     0.115 C 
BRANCH  28  29
HETATM   29  C           1     -22.061 -11.755  -5.062  0.00  0.00     0.172 C 
HETATM   30  O           1     -22.680 -12.785  -5.407  0.00  0.00    -0.648 OA
HETATM   31  O           1     -22.248 -11.264  -3.928  0.00  0.00    -0.648 OA
ENDBRANCH  28  29
ENDBRANCH  27  28
ENDBRANCH  22  27
ENDBRANCH  20  22
ENDBRANCH   1  18
TORSDOF 12
ENDMDL
MODEL 8
REMARK VINA RESULT:      -6.4     13.946     16.411
REMARK  12 active torsions:
REMARK  status: ('A' for Active; 'I' for Inactive)
REMARK    1  A    between atoms: C_1  and  C_5 
REMARK    2  A    between atoms: C_4  and  O_21 
REMARK    3  A    between atoms: C_5  and  C_15 
REMARK    4  A    between atoms: C_6  and  C_12 
REMARK    5  A    between atoms: C_6  and  C_7 
REMARK    6  A    between atoms: N_10  and  C_13 
REMARK    7  A    between atoms: C_12  and  C_13 
REMARK    8  A    between atoms: C_13  and  C_14 
REMARK       I    between atoms: C_14  and  N_16 
REMARK    9  A    between atoms: C_15  and  C_18 
REMARK   10  A    between atoms: C_15  and  N_16 
REMARK   11  A    between atoms: P_20  and  O_21 
REMARK   12  A    between atoms: P_20  and  O_30 
ROOT
HETATM    1  C           1     -20.748  -8.501  -2.801  0.00  0.00     0.189 C 
ENDROOT
BRANCH   1   2
HETATM    2  C           1     -19.407  -8.836  -2.160  0.00  0.00     0.074 C 
BRANCH   2   3
HETATM    3  C           1     -18.445  -9.279  -3.217  0.00  0.00    -0.056 A 
HETATM    4  C           1     -18.906  -9.587  -4.496  0.00  0.00     0.010 A 
HETATM    5  C           1     -18.010  -9.999  -5.482  0.00  0.00     0.038 A 
HETATM    6  C           1     -16.650 -10.103  -5.188  0.00  0.00     0.081 A 
HETATM    7  C           1     -16.188  -9.795  -3.908  0.00  0.00     0.038 A 
HETATM    8  C           1     -17.085  -9.383  -2.923  0.00  0.00     0.010 A 
BRANCH   6   9
HETATM    9  O           1     -15.779 -10.504  -6.145  0.00  0.00    -0.247 OA
BRANCH   9  10
HETATM   10  P           1     -15.555 -12.090  -6.350  0.00  0.00     0.411 P 
HETATM   11  O           1     -14.136 -12.350  -6.682  0.00  0.00    -0.624 OA
HETATM   12  O           1     -16.415 -12.571  -7.455  0.00  0.00    -0.624 OA
BRANCH  10  13
HETATM   13  O           1     -15.939 -12.868  -4.988  0.00  0.00    -0.300 OA
HETATM   14  H           1     -16.408 -13.635  -5.270  0.00  0.00     0.223 HD
ENDBRANCH  10  13
ENDBRANCH   9  10
ENDBRANCH   6   9
ENDBRANCH   2   3
ENDBRANCH   1   2
BRANCH   1  15
HETATM   15  C           1     -21.867  -8.958  -1.898  0.00  0.00     0.197 C 
HETATM   16  O           1     -22.329  -8.181  -1.034  0.00  0.00    -0.646 OA
HETATM   17  O           1     -22.330 -10.113  -2.013  0.00  0.00    -0.646 OA
ENDBRANCH   1  15
BRANCH   1  18
HETATM   18  N           1     -20.842  -7.068  -3.000  0.00  0.00    -0.344 N 
HETATM   19  H           1     -20.506  -6.435  -2.286  0.00  0.00     0.163 HD
HETATM   20  C           1     -21.386  -6.571  -4.154  0.00  0.00     0.249 C 
HETATM   21  O           1     -22.573  -6.353  -4.218  0.00  0.00    -0.271 OA
BRANCH  20  22
HETATM   22  C           1     -20.503  -6.297  -5.346  0.00  0.00     0.275 C 
BRANCH  22  23
HETATM   23  N           1     -20.893  -7.204  -6.476  0.00  0.00    -0.066 N 
HETATM   24  H           1     -20.312  -8.072  -6.445  0.00  0.00     0.275 HD
HETATM   25  H           1     -21.903  -7.458  -6.386  0.00  0.00     0.275 HD
HETATM   26  H           1     -20.737  -6.713  -7.386  0.00  0.00     0.275 HD
ENDBRANCH  22  23
BRANCH  22  27
HETATM   27  C           1     -20.672  -4.846  -5.781  0.00  0.00     0.053 C 
BRANCH  27  28
HETATM   28  C           1     -20.741  -4.775  -7.299  0.00  0.00     0.115 C 
BRANCH  28  29
HETATM   29  C           1     -22.092  -4.247  -7.717  0.00  0.00     0.172 C 
HETATM   30  O           1     -23.100  -4.485  -7.018  0.00  0.00    -0.648 OA
HETATM   31  O           1     -22.202  -3.572  -8.763  0.00  0.00    -0.648 OA
ENDBRANCH  28  29
ENDBRANCH  27  28
ENDBRANCH  22  27
ENDBRANCH  20  22
ENDBRANCH   1  18
TORSDOF 12
ENDMDL
MODEL 9
REMARK VINA RESULT:      -6.4     13.940     16.394
REMARK  12 active torsions:
REMARK  status: ('A' for Active; 'I' for Inactive)
REMARK    1  A    between atoms: C_1  and  C_5 
REMARK    2  A    between atoms: C_4  and  O_21 
REMARK    3  A    between atoms: C_5  and  C_15 
REMARK    4  A    between atoms: C_6  and  C_12 
REMARK    5  A    between atoms: C_6  and  C_7 
REMARK    6  A    between atoms: N_10  and  C_13 
REMARK    7  A    between atoms: C_12  and  C_13 
REMARK    8  A    between atoms: C_13  and  C_14 
REMARK       I    between atoms: C_14  and  N_16 
REMARK    9  A    between atoms: C_15  and  C_18 
REMARK   10  A    between atoms: C_15  and  N_16 
REMARK   11  A    between atoms: P_20  and  O_21 
REMARK   12  A    between atoms: P_20  and  O_30 
ROOT
HETATM    1  C           1     -21.567  -8.588  -1.378  0.00  0.00     0.189 C 
ENDROOT
BRANCH   1   2
HETATM    2  C           1     -20.508  -9.683  -1.381  0.00  0.00     0.074 C 
BRANCH   2   3
HETATM    3  C           1     -20.096  -9.976  -2.789  0.00  0.00    -0.056 A 
HETATM    4  C           1     -21.027 -10.470  -3.701  0.00  0.00     0.010 A 
HETATM    5  C           1     -20.643 -10.742  -5.014  0.00  0.00     0.038 A 
HETATM    6  C           1     -19.325 -10.520  -5.415  0.00  0.00     0.081 A 
HETATM    7  C           1     -18.393 -10.025  -4.503  0.00  0.00     0.038 A 
HETATM    8  C           1     -18.778  -9.753  -3.190  0.00  0.00     0.010 A 
BRANCH   6   9
HETATM    9  O           1     -18.952 -10.784  -6.691  0.00  0.00    -0.247 OA
BRANCH   9  10
HETATM   10  P           1     -18.267 -12.214  -6.999  0.00  0.00     0.411 P 
HETATM   11  O           1     -16.796 -12.092  -6.885  0.00  0.00    -0.624 OA
HETATM   12  O           1     -18.620 -12.645  -8.370  0.00  0.00    -0.624 OA
BRANCH  10  13
HETATM   13  O           1     -18.799 -13.306  -5.934  0.00  0.00    -0.300 OA
HETATM   14  H           1     -18.387 -14.114  -6.189  0.00  0.00     0.223 HD
ENDBRANCH  10  13
ENDBRANCH   9  10
ENDBRANCH   6   9
ENDBRANCH   2   3
ENDBRANCH   1   2
BRANCH   1  15
HETATM   15  C           1     -21.951  -8.261   0.044  0.00  0.00     0.197 C 
HETATM   16  O           1     -21.102  -8.353   0.957  0.00  0.00    -0.646 OA
HETATM   17  O           1     -23.117  -7.899   0.308  0.00  0.00    -0.646 OA
ENDBRANCH   1  15
BRANCH   1  18
HETATM   18  N           1     -21.035  -7.402  -2.020  0.00  0.00    -0.344 N 
HETATM   19  H           1     -20.085  -7.108  -1.832  0.00  0.00     0.163 HD
HETATM   20  C           1     -21.817  -6.679  -2.880  0.00  0.00     0.249 C 
HETATM   21  O           1     -22.502  -5.777  -2.461  0.00  0.00    -0.271 OA
BRANCH  20  22
HETATM   22  C           1     -21.824  -7.011  -4.352  0.00  0.00     0.275 C 
BRANCH  22  23
HETATM   23  N           1     -22.831  -6.149  -5.055  0.00  0.00    -0.066 N 
HETATM   24  H           1     -23.106  -5.356  -4.433  0.00  0.00     0.275 HD
HETATM   25  H           1     -22.412  -5.773  -5.935  0.00  0.00     0.275 HD
HETATM   26  H           1     -23.676  -6.719  -5.286  0.00  0.00     0.275 HD
ENDBRANCH  22  23
BRANCH  22  27
HETATM   27  C           1     -20.441  -6.754  -4.938  0.00  0.00     0.053 C 
BRANCH  27  28
HETATM   28  C           1     -20.342  -5.305  -5.392  0.00  0.00     0.115 C 
BRANCH  28  29
HETATM   29  C           1     -20.172  -5.258  -6.891  0.00  0.00     0.172 C 
HETATM   30  O           1     -19.553  -4.310  -7.421  0.00  0.00    -0.648 OA
HETATM   31  O           1     -20.649  -6.168  -7.603  0.00  0.00    -0.648 OA
ENDBRANCH  28  29
ENDBRANCH  27  28
ENDBRANCH  22  27
ENDBRANCH  20  22
ENDBRANCH   1  18
TORSDOF 12
ENDMDL
