MODEL 1
REMARK VINA RESULT:      -6.6      0.000      0.000
REMARK  7 active torsions:
REMARK  status: ('A' for Active; 'I' for Inactive)
REMARK    1  A    between atoms: C_3  and  C_4 
REMARK    2  A    between atoms: C_3  and  N_5 
REMARK    3  A    between atoms: C_4  and  C_18 
REMARK       I    between atoms: N_10  and  C_11 
REMARK    4  A    between atoms: C_11  and  C_19 
REMARK    5  A    between atoms: N_17  and  C_19 
REMARK    6  A    between atoms: C_18  and  C_19 
REMARK    7  A    between atoms: C_20  and  C_21 
ROOT
HETATM    1  C           1     -36.074  -0.145 -13.288  0.00  0.00     0.275 C 
ENDROOT
BRANCH   1   2
HETATM    2  C           1     -35.239  -1.386 -13.487  0.00  0.00     0.251 C 
HETATM    3  N           1     -34.796  -2.094 -12.404  0.00  0.00    -0.336 N 
HETATM    4  C           1     -35.031  -1.801 -10.992  0.00  0.00     0.127 C 
HETATM    5  C           1     -33.984  -3.308 -12.405  0.00  0.00     0.188 C 
HETATM    6  C           1     -33.697  -2.103 -10.331  0.00  0.00     0.022 C 
HETATM    7  C           1     -33.006  -3.092 -11.263  0.00  0.00     0.038 C 
HETATM    8  O           1     -34.962  -1.756 -14.604  0.00  0.00    -0.271 OA
BRANCH   5   9
HETATM    9  C           1     -34.839  -4.527 -12.156  0.00  0.00     0.196 C 
HETATM   10  O           1     -35.243  -5.215 -13.119  0.00  0.00    -0.646 OA
HETATM   11  O           1     -35.143  -4.848 -10.987  0.00  0.00    -0.646 OA
ENDBRANCH   5   9
ENDBRANCH   1   2
BRANCH   1  12
HETATM   12  N           1     -35.441   1.004 -14.015  0.00  0.00    -0.067 N 
HETATM   13  H           1     -36.048   1.283 -14.819  0.00  0.00     0.275 HD
HETATM   14  H           1     -35.333   1.812 -13.363  0.00  0.00     0.275 HD
HETATM   15  H           1     -34.502   0.715 -14.371  0.00  0.00     0.275 HD
ENDBRANCH   1  12
BRANCH   1  16
HETATM   16  C           1     -37.475  -0.382 -13.836  0.00  0.00     0.044 C 
BRANCH  16  17
HETATM   17  C           1     -37.642   0.372 -15.148  0.00  0.00     0.030 C 
BRANCH  17  18
HETATM   18  C           1     -37.772  -0.623 -16.294  0.00  0.00     0.230 C 
BRANCH  18  19
HETATM   19  N           1     -36.476  -0.692 -17.047  0.00  0.00    -0.079 N 
HETATM   20  H           1     -35.943  -1.538 -16.743  0.00  0.00     0.274 HD
HETATM   21  H           1     -36.670  -0.752 -18.072  0.00  0.00     0.274 HD
HETATM   22  H           1     -35.913   0.165 -16.849  0.00  0.00     0.274 HD
ENDBRANCH  18  19
ENDBRANCH  17  18
ENDBRANCH  16  17
ENDBRANCH   1  16
TORSDOF 7
ENDMDL
MODEL 2
REMARK VINA RESULT:      -5.9     13.122     15.637
REMARK  7 active torsions:
REMARK  status: ('A' for Active; 'I' for Inactive)
REMARK    1  A    between atoms: C_3  and  C_4 
REMARK    2  A    between atoms: C_3  and  N_5 
REMARK    3  A    between atoms: C_4  and  C_18 
REMARK       I    between atoms: N_10  and  C_11 
REMARK    4  A    between atoms: C_11  and  C_19 
REMARK    5  A    between atoms: N_17  and  C_19 
REMARK    6  A    between atoms: C_18  and  C_19 
REMARK    7  A    between atoms: C_20  and  C_21 
ROOT
HETATM    1  C           1     -20.436  -5.407  -7.598  0.00  0.00     0.275 C 
ENDROOT
BRANCH   1   2
HETATM    2  C           1     -21.547  -4.595  -8.217  0.00  0.00     0.251 C 
HETATM    3  N           1     -21.544  -4.344  -9.563  0.00  0.00    -0.336 N 
HETATM    4  C           1     -20.555  -4.779 -10.546  0.00  0.00     0.127 C 
HETATM    5  C           1     -22.528  -3.584 -10.329  0.00  0.00     0.188 C 
HETATM    6  C           1     -20.389  -3.572 -11.453  0.00  0.00     0.022 C 
HETATM    7  C           1     -21.685  -2.782 -11.306  0.00  0.00     0.038 C 
HETATM    8  O           1     -22.440  -4.166  -7.526  0.00  0.00    -0.271 OA
BRANCH   5   9
HETATM    9  C           1     -23.468  -4.508 -11.063  0.00  0.00     0.196 C 
HETATM   10  O           1     -23.696  -4.332 -12.279  0.00  0.00    -0.646 OA
HETATM   11  O           1     -24.018  -5.451 -10.454  0.00  0.00    -0.646 OA
ENDBRANCH   5   9
ENDBRANCH   1   2
BRANCH   1  12
HETATM   12  N           1     -19.591  -4.519  -6.734  0.00  0.00    -0.067 N 
HETATM   13  H           1     -19.492  -3.583  -7.189  0.00  0.00     0.275 HD
HETATM   14  H           1     -20.046  -4.407  -5.800  0.00  0.00     0.275 HD
HETATM   15  H           1     -18.646  -4.948  -6.612  0.00  0.00     0.275 HD
ENDBRANCH   1  12
BRANCH   1  16
HETATM   16  C           1     -21.034  -6.520  -6.749  0.00  0.00     0.044 C 
BRANCH  16  17
HETATM   17  C           1     -20.446  -6.461  -5.345  0.00  0.00     0.030 C 
BRANCH  17  18
HETATM   18  C           1     -21.569  -6.299  -4.329  0.00  0.00     0.230 C 
BRANCH  18  19
HETATM   19  N           1     -22.876  -6.136  -5.049  0.00  0.00    -0.079 N 
HETATM   20  H           1     -22.729  -6.278  -6.074  0.00  0.00     0.274 HD
HETATM   21  H           1     -23.561  -6.841  -4.695  0.00  0.00     0.274 HD
HETATM   22  H           1     -23.247  -5.174  -4.880  0.00  0.00     0.274 HD
ENDBRANCH  18  19
ENDBRANCH  17  18
ENDBRANCH  16  17
ENDBRANCH   1  16
TORSDOF 7
ENDMDL
MODEL 3
REMARK VINA RESULT:      -5.9     12.701     14.435
REMARK  7 active torsions:
REMARK  status: ('A' for Active; 'I' for Inactive)
REMARK    1  A    between atoms: C_3  and  C_4 
REMARK    2  A    between atoms: C_3  and  N_5 
REMARK    3  A    between atoms: C_4  and  C_18 
REMARK       I    between atoms: N_10  and  C_11 
REMARK    4  A    between atoms: C_11  and  C_19 
REMARK    5  A    between atoms: N_17  and  C_19 
REMARK    6  A    between atoms: C_18  and  C_19 
REMARK    7  A    between atoms: C_20  and  C_21 
ROOT
HETATM    1  C           1     -21.884  -3.236 -10.666  0.00  0.00     0.275 C 
ENDROOT
BRANCH   1   2
HETATM    2  C           1     -22.085  -4.422  -9.756  0.00  0.00     0.251 C 
HETATM    3  N           1     -21.334  -4.549  -8.619  0.00  0.00    -0.336 N 
HETATM    4  C           1     -20.299  -3.641  -8.131  0.00  0.00     0.127 C 
HETATM    5  C           1     -21.391  -5.621  -7.630  0.00  0.00     0.188 C 
HETATM    6  C           1     -19.216  -4.571  -7.612  0.00  0.00     0.022 C 
HETATM    7  C           1     -19.933  -5.875  -7.287  0.00  0.00     0.038 C 
HETATM    8  O           1     -22.911  -5.261 -10.030  0.00  0.00    -0.271 OA
BRANCH   5   9
HETATM    9  C           1     -22.162  -5.184  -6.408  0.00  0.00     0.196 C 
HETATM   10  O           1     -21.679  -5.357  -5.268  0.00  0.00    -0.646 OA
HETATM   11  O           1     -23.285  -4.650  -6.537  0.00  0.00    -0.646 OA
ENDBRANCH   5   9
ENDBRANCH   1   2
BRANCH   1  12
HETATM   12  N           1     -20.841  -3.566 -11.692  0.00  0.00    -0.067 N 
HETATM   13  H           1     -19.968  -3.880 -11.212  0.00  0.00     0.275 HD
HETATM   14  H           1     -21.193  -4.329 -12.312  0.00  0.00     0.275 HD
HETATM   15  H           1     -20.637  -2.717 -12.267  0.00  0.00     0.275 HD
ENDBRANCH   1  12
BRANCH   1  16
HETATM   16  C           1     -23.196  -2.903 -11.364  0.00  0.00     0.044 C 
BRANCH  16  17
HETATM   17  C           1     -23.237  -3.590 -12.723  0.00  0.00     0.030 C 
BRANCH  17  18
HETATM   18  C           1     -23.389  -2.543 -13.818  0.00  0.00     0.230 C 
BRANCH  18  19
HETATM   19  N           1     -22.476  -2.878 -14.962  0.00  0.00    -0.079 N 
HETATM   20  H           1     -21.883  -3.699 -14.703  0.00  0.00     0.274 HD
HETATM   21  H           1     -23.045  -3.111 -15.806  0.00  0.00     0.274 HD
HETATM   22  H           1     -21.865  -2.056 -15.170  0.00  0.00     0.274 HD
ENDBRANCH  18  19
ENDBRANCH  17  18
ENDBRANCH  16  17
ENDBRANCH   1  16
TORSDOF 7
ENDMDL
MODEL 4
REMARK VINA RESULT:      -5.9     12.815     15.556
REMARK  7 active torsions:
REMARK  status: ('A' for Active; 'I' for Inactive)
REMARK    1  A    between atoms: C_3  and  C_4 
REMARK    2  A    between atoms: C_3  and  N_5 
REMARK    3  A    between atoms: C_4  and  C_18 
REMARK       I    between atoms: N_10  and  C_11 
REMARK    4  A    between atoms: C_11  and  C_19 
REMARK    5  A    between atoms: N_17  and  C_19 
REMARK    6  A    between atoms: C_18  and  C_19 
REMARK    7  A    between atoms: C_20  and  C_21 
ROOT
HETATM    1  C           1     -21.585  -4.162  -7.001  0.00  0.00     0.275 C 
ENDROOT
BRANCH   1   2
HETATM    2  C           1     -21.328  -4.575  -8.429  0.00  0.00     0.251 C 
HETATM    3  N           1     -22.209  -4.220  -9.414  0.00  0.00    -0.336 N 
HETATM    4  C           1     -23.441  -3.448  -9.269  0.00  0.00     0.127 C 
HETATM    5  C           1     -22.124  -4.528 -10.838  0.00  0.00     0.188 C 
HETATM    6  C           1     -24.421  -4.152 -10.192  0.00  0.00     0.022 C 
HETATM    7  C           1     -23.554  -4.868 -11.222  0.00  0.00     0.038 C 
HETATM    8  O           1     -20.343  -5.219  -8.704  0.00  0.00    -0.271 OA
BRANCH   5   9
HETATM    9  C           1     -21.627  -3.336 -11.618  0.00  0.00     0.196 C 
HETATM   10  O           1     -22.287  -2.903 -12.587  0.00  0.00    -0.646 OA
HETATM   11  O           1     -20.554  -2.781 -11.294  0.00  0.00    -0.646 OA
ENDBRANCH   5   9
ENDBRANCH   1   2
BRANCH   1  12
HETATM   12  N           1     -22.826  -4.839  -6.501  0.00  0.00    -0.067 N 
HETATM   13  H           1     -23.588  -4.735  -7.210  0.00  0.00     0.275 HD
HETATM   14  H           1     -22.631  -5.853  -6.345  0.00  0.00     0.275 HD
HETATM   15  H           1     -23.125  -4.399  -5.602  0.00  0.00     0.275 HD
ENDBRANCH   1  12
BRANCH   1  16
HETATM   16  C           1     -20.401  -4.569  -6.133  0.00  0.00     0.044 C 
BRANCH  16  17
HETATM   17  C           1     -20.832  -5.665  -5.168  0.00  0.00     0.030 C 
BRANCH  17  18
HETATM   18  C           1     -20.163  -6.977  -5.556  0.00  0.00     0.230 C 
BRANCH  18  19
HETATM   19  N           1     -21.207  -7.957  -6.006  0.00  0.00    -0.079 N 
HETATM   20  H           1     -21.618  -7.635  -6.912  0.00  0.00     0.274 HD
HETATM   21  H           1     -20.771  -8.897  -6.136  0.00  0.00     0.274 HD
HETATM   22  H           1     -21.960  -8.019  -5.284  0.00  0.00     0.274 HD
ENDBRANCH  18  19
ENDBRANCH  17  18
ENDBRANCH  16  17
ENDBRANCH   1  16
TORSDOF 7
ENDMDL
MODEL 5
REMARK VINA RESULT:      -5.5     12.381     13.801
REMARK  7 active torsions:
REMARK  status: ('A' for Active; 'I' for Inactive)
REMARK    1  A    between atoms: C_3  and  C_4 
REMARK    2  A    between atoms: C_3  and  N_5 
REMARK    3  A    between atoms: C_4  and  C_18 
REMARK       I    between atoms: N_10  and  C_11 
REMARK    4  A    between atoms: C_11  and  C_19 
REMARK    5  A    between atoms: N_17  and  C_19 
REMARK    6  A    between atoms: C_18  and  C_19 
REMARK    7  A    between atoms: C_20  and  C_21 
ROOT
HETATM    1  C           1     -23.120  -3.726 -11.880  0.00  0.00     0.275 C 
ENDROOT
BRANCH   1   2
HETATM    2  C           1     -21.983  -3.364 -10.956  0.00  0.00     0.251 C 
HETATM    3  N           1     -21.914  -3.916  -9.706  0.00  0.00    -0.336 N 
HETATM    4  C           1     -22.843  -4.867  -9.101  0.00  0.00     0.127 C 
HETATM    5  C           1     -20.895  -3.684  -8.686  0.00  0.00     0.188 C 
HETATM    6  C           1     -22.968  -4.388  -7.665  0.00  0.00     0.022 C 
HETATM    7  C           1     -21.689  -3.605  -7.393  0.00  0.00     0.038 C 
HETATM    8  O           1     -21.133  -2.586 -11.320  0.00  0.00    -0.271 OA
BRANCH   5   9
HETATM    9  C           1     -19.908  -4.825  -8.642  0.00  0.00     0.196 C 
HETATM   10  O           1     -19.514  -5.352  -9.705  0.00  0.00    -0.646 OA
HETATM   11  O           1     -19.485  -5.242  -7.543  0.00  0.00    -0.646 OA
ENDBRANCH   5   9
ENDBRANCH   1   2
BRANCH   1  12
HETATM   12  N           1     -24.388  -3.099 -11.381  0.00  0.00    -0.067 N 
HETATM   13  H           1     -25.090  -3.846 -11.179  0.00  0.00     0.275 HD
HETATM   14  H           1     -24.190  -2.561 -10.508  0.00  0.00     0.275 HD
HETATM   15  H           1     -24.767  -2.453 -12.110  0.00  0.00     0.275 HD
ENDBRANCH   1  12
BRANCH   1  16
HETATM   16  C           1     -22.819  -3.214 -13.282  0.00  0.00     0.044 C 
BRANCH  16  17
HETATM   17  C           1     -23.815  -2.123 -13.650  0.00  0.00     0.030 C 
BRANCH  17  18
HETATM   18  C           1     -23.414  -1.495 -14.979  0.00  0.00     0.230 C 
BRANCH  18  19
HETATM   19  N           1     -24.247  -0.271 -15.226  0.00  0.00    -0.079 N 
HETATM   20  H           1     -25.249  -0.485 -15.018  0.00  0.00     0.274 HD
HETATM   21  H           1     -23.921   0.504 -14.607  0.00  0.00     0.274 HD
HETATM   22  H           1     -24.152   0.017 -16.225  0.00  0.00     0.274 HD
ENDBRANCH  18  19
ENDBRANCH  17  18
ENDBRANCH  16  17
ENDBRANCH   1  16
TORSDOF 7
ENDMDL
MODEL 6
REMARK VINA RESULT:      -5.3     14.086     16.514
REMARK  7 active torsions:
REMARK  status: ('A' for Active; 'I' for Inactive)
REMARK    1  A    between atoms: C_3  and  C_4 
REMARK    2  A    between atoms: C_3  and  N_5 
REMARK    3  A    between atoms: C_4  and  C_18 
REMARK       I    between atoms: N_10  and  C_11 
REMARK    4  A    between atoms: C_11  and  C_19 
REMARK    5  A    between atoms: N_17  and  C_19 
REMARK    6  A    between atoms: C_18  and  C_19 
REMARK    7  A    between atoms: C_20  and  C_21 
ROOT
HETATM    1  C           1     -20.738  -4.990  -6.781  0.00  0.00     0.275 C 
ENDROOT
BRANCH   1   2
HETATM    2  C           1     -21.687  -5.713  -5.857  0.00  0.00     0.251 C 
HETATM    3  N           1     -21.232  -6.738  -5.073  0.00  0.00    -0.336 N 
HETATM    4  C           1     -19.871  -7.265  -4.999  0.00  0.00     0.127 C 
HETATM    5  C           1     -21.999  -7.544  -4.128  0.00  0.00     0.188 C 
HETATM    6  C           1     -20.068  -8.768  -4.909  0.00  0.00     0.022 C 
HETATM    7  C           1     -21.470  -8.953  -4.341  0.00  0.00     0.038 C 
HETATM    8  O           1     -22.850  -5.387  -5.809  0.00  0.00    -0.271 OA
BRANCH   5   9
HETATM    9  C           1     -21.757  -7.087  -2.711  0.00  0.00     0.196 C 
HETATM   10  O           1     -22.036  -5.916  -2.375  0.00  0.00    -0.646 OA
HETATM   11  O           1     -21.279  -7.881  -1.872  0.00  0.00    -0.646 OA
ENDBRANCH   5   9
ENDBRANCH   1   2
BRANCH   1  12
HETATM   12  N           1     -20.292  -5.922  -7.868  0.00  0.00    -0.067 N 
HETATM   13  H           1     -19.534  -6.543  -7.504  0.00  0.00     0.275 HD
HETATM   14  H           1     -21.101  -6.505  -8.180  0.00  0.00     0.275 HD
HETATM   15  H           1     -19.930  -5.367  -8.676  0.00  0.00     0.275 HD
ENDBRANCH   1  12
BRANCH   1  16
HETATM   16  C           1     -21.445  -3.791  -7.399  0.00  0.00     0.044 C 
BRANCH  16  17
HETATM   17  C           1     -21.558  -3.988  -8.905  0.00  0.00     0.030 C 
BRANCH  17  18
HETATM   18  C           1     -22.972  -3.650  -9.358  0.00  0.00     0.230 C 
BRANCH  18  19
HETATM   19  N           1     -23.949  -4.042  -8.288  0.00  0.00    -0.079 N 
HETATM   20  H           1     -24.642  -3.272  -8.152  0.00  0.00     0.274 HD
HETATM   21  H           1     -24.448  -4.914  -8.574  0.00  0.00     0.274 HD
HETATM   22  H           1     -23.435  -4.212  -7.395  0.00  0.00     0.274 HD
ENDBRANCH  18  19
ENDBRANCH  17  18
ENDBRANCH  16  17
ENDBRANCH   1  16
TORSDOF 7
ENDMDL
MODEL 7
REMARK VINA RESULT:      -5.3     13.819     16.102
REMARK  7 active torsions:
REMARK  status: ('A' for Active; 'I' for Inactive)
REMARK    1  A    between atoms: C_3  and  C_4 
REMARK    2  A    between atoms: C_3  and  N_5 
REMARK    3  A    between atoms: C_4  and  C_18 
REMARK       I    between atoms: N_10  and  C_11 
REMARK    4  A    between atoms: C_11  and  C_19 
REMARK    5  A    between atoms: N_17  and  C_19 
REMARK    6  A    between atoms: C_18  and  C_19 
REMARK    7  A    between atoms: C_20  and  C_21 
ROOT
HETATM    1  C           1     -21.649  -5.031  -7.211  0.00  0.00     0.275 C 
ENDROOT
BRANCH   1   2
HETATM    2  C           1     -20.796  -6.123  -6.613  0.00  0.00     0.251 C 
HETATM    3  N           1     -21.173  -6.723  -5.443  0.00  0.00    -0.336 N 
HETATM    4  C           1     -22.358  -6.438  -4.638  0.00  0.00     0.127 C 
HETATM    5  C           1     -20.478  -7.788  -4.724  0.00  0.00     0.188 C 
HETATM    6  C           1     -21.851  -6.502  -3.208  0.00  0.00     0.022 C 
HETATM    7  C           1     -20.611  -7.387  -3.265  0.00  0.00     0.038 C 
HETATM    8  O           1     -19.780  -6.469  -7.169  0.00  0.00    -0.271 OA
BRANCH   5   9
HETATM    9  C           1     -21.134  -9.123  -4.976  0.00  0.00     0.196 C 
HETATM   10  O           1     -21.643  -9.759  -4.028  0.00  0.00    -0.646 OA
HETATM   11  O           1     -21.169  -9.593  -6.134  0.00  0.00    -0.646 OA
ENDBRANCH   5   9
ENDBRANCH   1   2
BRANCH   1  12
HETATM   12  N           1     -21.096  -3.694  -6.814  0.00  0.00    -0.067 N 
HETATM   13  H           1     -21.649  -3.314  -6.013  0.00  0.00     0.275 HD
HETATM   14  H           1     -20.097  -3.800  -6.530  0.00  0.00     0.275 HD
HETATM   15  H           1     -21.160  -3.037  -7.624  0.00  0.00     0.275 HD
ENDBRANCH   1  12
BRANCH   1  16
HETATM   16  C           1     -21.640  -5.153  -8.729  0.00  0.00     0.044 C 
BRANCH  16  17
HETATM   17  C           1     -22.533  -4.077  -9.331  0.00  0.00     0.030 C 
BRANCH  17  18
HETATM   18  C           1     -23.609  -4.729 -10.189  0.00  0.00     0.230 C 
BRANCH  18  19
HETATM   19  N           1     -24.962  -4.413  -9.621  0.00  0.00    -0.079 N 
HETATM   20  H           1     -24.853  -3.792  -8.788  0.00  0.00     0.274 HD
HETATM   21  H           1     -25.539  -3.927 -10.344  0.00  0.00     0.274 HD
HETATM   22  H           1     -25.435  -5.300  -9.337  0.00  0.00     0.274 HD
ENDBRANCH  18  19
ENDBRANCH  17  18
ENDBRANCH  16  17
ENDBRANCH   1  16
TORSDOF 7
ENDMDL
MODEL 8
REMARK VINA RESULT:      -5.1     17.363     18.998
REMARK  7 active torsions:
REMARK  status: ('A' for Active; 'I' for Inactive)
REMARK    1  A    between atoms: C_3  and  C_4 
REMARK    2  A    between atoms: C_3  and  N_5 
REMARK    3  A    between atoms: C_4  and  C_18 
REMARK       I    between atoms: N_10  and  C_11 
REMARK    4  A    between atoms: C_11  and  C_19 
REMARK    5  A    between atoms: N_17  and  C_19 
REMARK    6  A    between atoms: C_18  and  C_19 
REMARK    7  A    between atoms: C_20  and  C_21 
ROOT
HETATM    1  C           1     -21.986  -6.587  -2.805  0.00  0.00     0.275 C 
ENDROOT
BRANCH   1   2
HETATM    2  C           1     -21.212  -7.746  -2.226  0.00  0.00     0.251 C 
HETATM    3  N           1     -21.606  -8.310  -1.043  0.00  0.00    -0.336 N 
HETATM    4  C           1     -22.741  -7.925  -0.208  0.00  0.00     0.127 C 
HETATM    5  C           1     -20.983  -9.427  -0.339  0.00  0.00     0.188 C 
HETATM    6  C           1     -22.202  -8.028   1.208  0.00  0.00     0.022 C 
HETATM    7  C           1     -21.042  -9.014   1.121  0.00  0.00     0.038 C 
HETATM    8  O           1     -20.244  -8.177  -2.808  0.00  0.00    -0.271 OA
BRANCH   5   9
HETATM    9  C           1     -21.755 -10.704  -0.568  0.00  0.00     0.196 C 
HETATM   10  O           1     -22.060 -11.052  -1.729  0.00  0.00    -0.646 OA
HETATM   11  O           1     -22.090 -11.414   0.405  0.00  0.00    -0.646 OA
ENDBRANCH   5   9
ENDBRANCH   1   2
BRANCH   1  12
HETATM   12  N           1     -22.150  -5.525  -1.760  0.00  0.00    -0.067 N 
HETATM   13  H           1     -22.901  -5.808  -1.090  0.00  0.00     0.275 HD
HETATM   14  H           1     -21.250  -5.403  -1.244  0.00  0.00     0.275 HD
HETATM   15  H           1     -22.413  -4.623  -2.218  0.00  0.00     0.275 HD
ENDBRANCH   1  12
BRANCH   1  16
HETATM   16  C           1     -21.229  -6.015  -3.996  0.00  0.00     0.044 C 
BRANCH  16  17
HETATM   17  C           1     -21.996  -6.313  -5.277  0.00  0.00     0.030 C 
BRANCH  17  18
HETATM   18  C           1     -21.013  -6.637  -6.395  0.00  0.00     0.230 C 
BRANCH  18  19
HETATM   19  N           1     -19.963  -7.578  -5.882  0.00  0.00    -0.079 N 
HETATM   20  H           1     -19.930  -8.427  -6.490  0.00  0.00     0.274 HD
HETATM   21  H           1     -19.032  -7.104  -5.896  0.00  0.00     0.274 HD
HETATM   22  H           1     -20.196  -7.858  -4.903  0.00  0.00     0.274 HD
ENDBRANCH  18  19
ENDBRANCH  17  18
ENDBRANCH  16  17
ENDBRANCH   1  16
TORSDOF 7
ENDMDL
MODEL 9
REMARK VINA RESULT:      -4.9     19.474     20.906
REMARK  7 active torsions:
REMARK  status: ('A' for Active; 'I' for Inactive)
REMARK    1  A    between atoms: C_3  and  C_4 
REMARK    2  A    between atoms: C_3  and  N_5 
REMARK    3  A    between atoms: C_4  and  C_18 
REMARK       I    between atoms: N_10  and  C_11 
REMARK    4  A    between atoms: C_11  and  C_19 
REMARK    5  A    between atoms: N_17  and  C_19 
REMARK    6  A    between atoms: C_18  and  C_19 
REMARK    7  A    between atoms: C_20  and  C_21 
ROOT
HETATM    1  C           1     -21.213 -12.102  -0.070  0.00  0.00     0.275 C 
ENDROOT
BRANCH   1   2
HETATM    2  C           1     -20.980 -10.644   0.242  0.00  0.00     0.251 C 
HETATM    3  N           1     -21.233  -9.691  -0.707  0.00  0.00    -0.336 N 
HETATM    4  C           1     -21.728  -9.899  -2.066  0.00  0.00     0.127 C 
HETATM    5  C           1     -21.067  -8.246  -0.584  0.00  0.00     0.188 C 
HETATM    6  C           1     -20.922  -8.919  -2.900  0.00  0.00     0.022 C 
HETATM    7  C           1     -20.482  -7.833  -1.924  0.00  0.00     0.038 C 
HETATM    8  O           1     -20.570 -10.317   1.331  0.00  0.00    -0.271 OA
BRANCH   5   9
HETATM    9  C           1     -22.395  -7.570  -0.346  0.00  0.00     0.196 C 
HETATM   10  O           1     -22.718  -6.570  -1.022  0.00  0.00    -0.646 OA
HETATM   11  O           1     -23.172  -8.012   0.527  0.00  0.00    -0.646 OA
ENDBRANCH   5   9
ENDBRANCH   1   2
BRANCH   1  12
HETATM   12  N           1     -19.929 -12.859   0.096  0.00  0.00    -0.067 N 
HETATM   13  H           1     -19.352 -12.405   0.840  0.00  0.00     0.275 HD
HETATM   14  H           1     -20.139 -13.845   0.370  0.00  0.00     0.275 HD
HETATM   15  H           1     -19.402 -12.853  -0.806  0.00  0.00     0.275 HD
ENDBRANCH   1  12
BRANCH   1  16
HETATM   16  C           1     -22.260 -12.663   0.883  0.00  0.00     0.044 C 
BRANCH  16  17
HETATM   17  C           1     -23.647 -12.231   0.427  0.00  0.00     0.030 C 
BRANCH  17  18
HETATM   18  C           1     -23.879 -12.692  -1.005  0.00  0.00     0.230 C 
BRANCH  18  19
HETATM   19  N           1     -24.364 -14.112  -1.002  0.00  0.00    -0.079 N 
HETATM   20  H           1     -25.183 -14.198  -0.359  0.00  0.00     0.274 HD
HETATM   21  H           1     -24.651 -14.385  -1.969  0.00  0.00     0.274 HD
HETATM   22  H           1     -23.596 -14.740  -0.677  0.00  0.00     0.274 HD
ENDBRANCH  18  19
ENDBRANCH  17  18
ENDBRANCH  16  17
ENDBRANCH   1  16
TORSDOF 7
ENDMDL
