MODEL 1
REMARK VINA RESULT:      -5.7      0.000      0.000
REMARK  10 active torsions:
REMARK  status: ('A' for Active; 'I' for Inactive)
REMARK    1  A    between atoms: N_1  and  C_11 
REMARK       I    between atoms: N_1  and  C_4 
REMARK    2  A    between atoms: C_4  and  C_8 
REMARK    3  A    between atoms: C_5  and  S_13 
REMARK    4  A    between atoms: C_5  and  C_6 
REMARK    5  A    between atoms: C_6  and  C_11 
REMARK    6  A    between atoms: C_8  and  C_19 
REMARK    7  A    between atoms: C_8  and  N_21 
REMARK    8  A    between atoms: C_11  and  C_12 
REMARK    9  A    between atoms: S_16  and  C_17 
REMARK   10  A    between atoms: C_17  and  C_19 
ROOT
HETATM    1  N           1     -35.148  -1.856 -12.265  0.00  0.00    -0.345 N 
HETATM    2  C           1     -34.193  -2.592 -11.619  0.00  0.00     0.249 C 
HETATM    3  H           1     -35.766  -2.303 -12.930  0.00  0.00     0.163 HD
HETATM    4  O           1     -33.455  -2.059 -10.824  0.00  0.00    -0.271 OA
ENDROOT
BRANCH   2   5
HETATM    5  C           1     -34.059  -4.069 -11.898  0.00  0.00     0.275 C 
BRANCH   5   6
HETATM    6  C           1     -34.076  -4.839 -10.584  0.00  0.00     0.053 C 
BRANCH   6   7
HETATM    7  C           1     -33.821  -6.316 -10.858  0.00  0.00     0.076 C 
BRANCH   7   8
HETATM    8  S           1     -34.938  -7.323  -9.844  0.00  0.00    -0.173 SA
HETATM    9  C           1     -33.902  -8.812  -9.825  0.00  0.00     0.089 C 
ENDBRANCH   7   8
ENDBRANCH   6   7
ENDBRANCH   5   6
BRANCH   5  10
HETATM   10  N           1     -32.765  -4.327 -12.611  0.00  0.00    -0.066 N 
HETATM   11  H           1     -32.867  -4.073 -13.620  0.00  0.00     0.275 HD
HETATM   12  H           1     -32.009  -3.749 -12.181  0.00  0.00     0.275 HD
HETATM   13  H           1     -32.518  -5.340 -12.531  0.00  0.00     0.275 HD
ENDBRANCH   5  10
ENDBRANCH   2   5
BRANCH   1  14
HETATM   14  C           1     -35.277  -0.437 -11.996  0.00  0.00     0.186 C 
BRANCH  14  15
HETATM   15  C           1     -35.387   0.320 -13.312  0.00  0.00     0.046 C 
BRANCH  15  16
HETATM   16  C           1     -35.463  -0.672 -14.466  0.00  0.00     0.076 C 
BRANCH  16  17
HETATM   17  S           1     -36.564  -0.021 -15.753  0.00  0.00    -0.173 SA
HETATM   18  C           1     -38.073  -0.020 -14.743  0.00  0.00     0.089 C 
ENDBRANCH  16  17
ENDBRANCH  15  16
ENDBRANCH  14  15
BRANCH  14  19
HETATM   19  C           1     -36.516  -0.193 -11.169  0.00  0.00     0.196 C 
HETATM   20  O           1     -36.500   0.662 -10.258  0.00  0.00    -0.646 OA
HETATM   21  O           1     -37.557  -0.847 -11.396  0.00  0.00    -0.646 OA
ENDBRANCH  14  19
ENDBRANCH   1  14
TORSDOF 10
ENDMDL
MODEL 2
REMARK VINA RESULT:      -5.5     12.355     13.760
REMARK  10 active torsions:
REMARK  status: ('A' for Active; 'I' for Inactive)
REMARK    1  A    between atoms: N_1  and  C_11 
REMARK       I    between atoms: N_1  and  C_4 
REMARK    2  A    between atoms: C_4  and  C_8 
REMARK    3  A    between atoms: C_5  and  S_13 
REMARK    4  A    between atoms: C_5  and  C_6 
REMARK    5  A    between atoms: C_6  and  C_11 
REMARK    6  A    between atoms: C_8  and  C_19 
REMARK    7  A    between atoms: C_8  and  N_21 
REMARK    8  A    between atoms: C_11  and  C_12 
REMARK    9  A    between atoms: S_16  and  C_17 
REMARK   10  A    between atoms: C_17  and  C_19 
ROOT
HETATM    1  N           1     -22.126  -4.828  -8.872  0.00  0.00    -0.345 N 
HETATM    2  C           1     -21.604  -4.459  -7.662  0.00  0.00     0.249 C 
HETATM    3  H           1     -22.120  -5.801  -9.150  0.00  0.00     0.163 HD
HETATM    4  O           1     -21.612  -3.297  -7.331  0.00  0.00    -0.271 OA
ENDROOT
BRANCH   2   5
HETATM    5  C           1     -21.018  -5.502  -6.743  0.00  0.00     0.275 C 
BRANCH   5   6
HETATM    6  C           1     -22.061  -5.914  -5.712  0.00  0.00     0.053 C 
BRANCH   6   7
HETATM    7  C           1     -21.470  -6.970  -4.786  0.00  0.00     0.076 C 
BRANCH   7   8
HETATM    8  S           1     -21.591  -6.405  -3.066  0.00  0.00    -0.173 SA
HETATM    9  C           1     -20.851  -7.884  -2.318  0.00  0.00     0.089 C 
ENDBRANCH   7   8
ENDBRANCH   6   7
ENDBRANCH   5   6
BRANCH   5  10
HETATM   10  N           1     -19.821  -4.933  -6.041  0.00  0.00    -0.066 N 
HETATM   11  H           1     -19.986  -3.921  -5.837  0.00  0.00     0.275 HD
HETATM   12  H           1     -19.664  -5.448  -5.146  0.00  0.00     0.275 HD
HETATM   13  H           1     -18.978  -5.031  -6.652  0.00  0.00     0.275 HD
ENDBRANCH   5  10
ENDBRANCH   2   5
BRANCH   1  14
HETATM   14  C           1     -22.689  -3.826  -9.756  0.00  0.00     0.186 C 
BRANCH  14  15
HETATM   15  C           1     -22.223  -4.088 -11.182  0.00  0.00     0.046 C 
BRANCH  15  16
HETATM   16  C           1     -22.360  -2.812 -12.003  0.00  0.00     0.076 C 
BRANCH  16  17
HETATM   17  S           1     -23.803  -2.948 -13.096  0.00  0.00    -0.173 SA
HETATM   18  C           1     -22.908  -2.653 -14.647  0.00  0.00     0.089 C 
ENDBRANCH  16  17
ENDBRANCH  15  16
ENDBRANCH  14  15
BRANCH  14  19
HETATM   19  C           1     -24.196  -3.896  -9.698  0.00  0.00     0.196 C 
HETATM   20  O           1     -24.780  -4.982  -9.902  0.00  0.00    -0.646 OA
HETATM   21  O           1     -24.860  -2.866  -9.446  0.00  0.00    -0.646 OA
ENDBRANCH  14  19
ENDBRANCH   1  14
TORSDOF 10
ENDMDL
MODEL 3
REMARK VINA RESULT:      -5.4      2.596      3.285
REMARK  10 active torsions:
REMARK  status: ('A' for Active; 'I' for Inactive)
REMARK    1  A    between atoms: N_1  and  C_11 
REMARK       I    between atoms: N_1  and  C_4 
REMARK    2  A    between atoms: C_4  and  C_8 
REMARK    3  A    between atoms: C_5  and  S_13 
REMARK    4  A    between atoms: C_5  and  C_6 
REMARK    5  A    between atoms: C_6  and  C_11 
REMARK    6  A    between atoms: C_8  and  C_19 
REMARK    7  A    between atoms: C_8  and  N_21 
REMARK    8  A    between atoms: C_11  and  C_12 
REMARK    9  A    between atoms: S_16  and  C_17 
REMARK   10  A    between atoms: C_17  and  C_19 
ROOT
HETATM    1  N           1     -35.102  -0.950 -12.197  0.00  0.00    -0.345 N 
HETATM    2  C           1     -34.401  -2.112 -12.371  0.00  0.00     0.249 C 
HETATM    3  H           1     -34.889  -0.344 -11.414  0.00  0.00     0.163 HD
HETATM    4  O           1     -34.654  -2.835 -13.305  0.00  0.00    -0.271 OA
ENDROOT
BRANCH   2   5
HETATM    5  C           1     -33.313  -2.492 -11.396  0.00  0.00     0.275 C 
BRANCH   5   6
HETATM    6  C           1     -33.065  -3.993 -11.470  0.00  0.00     0.053 C 
BRANCH   6   7
HETATM    7  C           1     -34.016  -4.712 -10.521  0.00  0.00     0.076 C 
BRANCH   7   8
HETATM    8  S           1     -34.700  -6.178 -11.342  0.00  0.00    -0.173 SA
HETATM    9  C           1     -34.822  -7.204  -9.850  0.00  0.00     0.089 C 
ENDBRANCH   7   8
ENDBRANCH   6   7
ENDBRANCH   5   6
BRANCH   5  10
HETATM   10  N           1     -33.739  -2.124 -10.005  0.00  0.00    -0.066 N 
HETATM   11  H           1     -32.937  -2.263  -9.349  0.00  0.00     0.275 HD
HETATM   12  H           1     -34.036  -1.123  -9.985  0.00  0.00     0.275 HD
HETATM   13  H           1     -34.538  -2.731  -9.713  0.00  0.00     0.275 HD
ENDBRANCH   5  10
ENDBRANCH   2   5
BRANCH   1  14
HETATM   14  C           1     -36.146  -0.585 -13.133  0.00  0.00     0.186 C 
BRANCH  14  15
HETATM   15  C           1     -37.352  -0.057 -12.367  0.00  0.00     0.046 C 
BRANCH  15  16
HETATM   16  C           1     -37.424  -0.734 -11.004  0.00  0.00     0.076 C 
BRANCH  16  17
HETATM   17  S           1     -38.075   0.438  -9.780  0.00  0.00    -0.173 SA
HETATM   18  C           1     -36.879   0.045  -8.473  0.00  0.00     0.089 C 
ENDBRANCH  16  17
ENDBRANCH  15  16
ENDBRANCH  14  15
BRANCH  14  19
HETATM   19  C           1     -35.634   0.486 -14.065  0.00  0.00     0.196 C 
HETATM   20  O           1     -34.714   1.248 -13.695  0.00  0.00    -0.646 OA
HETATM   21  O           1     -36.129   0.611 -15.206  0.00  0.00    -0.646 OA
ENDBRANCH  14  19
ENDBRANCH   1  14
TORSDOF 10
ENDMDL
MODEL 4
REMARK VINA RESULT:      -5.3      4.483      6.201
REMARK  10 active torsions:
REMARK  status: ('A' for Active; 'I' for Inactive)
REMARK    1  A    between atoms: N_1  and  C_11 
REMARK       I    between atoms: N_1  and  C_4 
REMARK    2  A    between atoms: C_4  and  C_8 
REMARK    3  A    between atoms: C_5  and  S_13 
REMARK    4  A    between atoms: C_5  and  C_6 
REMARK    5  A    between atoms: C_6  and  C_11 
REMARK    6  A    between atoms: C_8  and  C_19 
REMARK    7  A    between atoms: C_8  and  N_21 
REMARK    8  A    between atoms: C_11  and  C_12 
REMARK    9  A    between atoms: S_16  and  C_17 
REMARK   10  A    between atoms: C_17  and  C_19 
ROOT
HETATM    1  N           1     -33.357  -3.986 -14.318  0.00  0.00    -0.345 N 
HETATM    2  C           1     -33.911  -4.505 -15.456  0.00  0.00     0.249 C 
HETATM    3  H           1     -32.435  -3.570 -14.349  0.00  0.00     0.163 HD
HETATM    4  O           1     -35.012  -5.001 -15.420  0.00  0.00    -0.271 OA
ENDROOT
BRANCH   2   5
HETATM    5  C           1     -33.148  -4.459 -16.757  0.00  0.00     0.275 C 
BRANCH   5   6
HETATM    6  C           1     -31.675  -4.742 -16.492  0.00  0.00     0.053 C 
BRANCH   6   7
HETATM    7  C           1     -31.278  -6.047 -17.172  0.00  0.00     0.076 C 
BRANCH   7   8
HETATM    8  S           1     -29.598  -6.509 -16.667  0.00  0.00    -0.173 SA
HETATM    9  C           1     -28.889  -6.537 -18.337  0.00  0.00     0.089 C 
ENDBRANCH   7   8
ENDBRANCH   6   7
ENDBRANCH   5   6
BRANCH   5  10
HETATM   10  N           1     -33.291  -3.098 -17.372  0.00  0.00    -0.066 N 
HETATM   11  H           1     -32.370  -2.794 -17.761  0.00  0.00     0.275 HD
HETATM   12  H           1     -33.998  -3.135 -18.139  0.00  0.00     0.275 HD
HETATM   13  H           1     -33.603  -2.417 -16.643  0.00  0.00     0.275 HD
ENDBRANCH   5  10
ENDBRANCH   2   5
BRANCH   1  14
HETATM   14  C           1     -34.091  -4.029 -13.068  0.00  0.00     0.186 C 
BRANCH  14  15
HETATM   15  C           1     -33.112  -4.164 -11.910  0.00  0.00     0.046 C 
BRANCH  15  16
HETATM   16  C           1     -33.198  -5.571 -11.332  0.00  0.00     0.076 C 
BRANCH  16  17
HETATM   17  S           1     -34.769  -5.767 -10.445  0.00  0.00    -0.173 SA
HETATM   18  C           1     -34.627  -7.556 -10.179  0.00  0.00     0.089 C 
ENDBRANCH  16  17
ENDBRANCH  15  16
ENDBRANCH  14  15
BRANCH  14  19
HETATM   19  C           1     -34.888  -2.757 -12.909  0.00  0.00     0.196 C 
HETATM   20  O           1     -34.796  -1.852 -13.766  0.00  0.00    -0.646 OA
HETATM   21  O           1     -35.638  -2.610 -11.920  0.00  0.00    -0.646 OA
ENDBRANCH  14  19
ENDBRANCH   1  14
TORSDOF 10
ENDMDL
MODEL 5
REMARK VINA RESULT:      -5.2      1.705      6.717
REMARK  10 active torsions:
REMARK  status: ('A' for Active; 'I' for Inactive)
REMARK    1  A    between atoms: N_1  and  C_11 
REMARK       I    between atoms: N_1  and  C_4 
REMARK    2  A    between atoms: C_4  and  C_8 
REMARK    3  A    between atoms: C_5  and  S_13 
REMARK    4  A    between atoms: C_5  and  C_6 
REMARK    5  A    between atoms: C_6  and  C_11 
REMARK    6  A    between atoms: C_8  and  C_19 
REMARK    7  A    between atoms: C_8  and  N_21 
REMARK    8  A    between atoms: C_11  and  C_12 
REMARK    9  A    between atoms: S_16  and  C_17 
REMARK   10  A    between atoms: C_17  and  C_19 
ROOT
HETATM    1  N           1     -35.449  -2.891 -11.504  0.00  0.00    -0.345 N 
HETATM    2  C           1     -35.421  -1.695 -10.839  0.00  0.00     0.249 C 
HETATM    3  H           1     -36.178  -3.076 -12.180  0.00  0.00     0.163 HD
HETATM    4  O           1     -34.549  -1.474 -10.031  0.00  0.00    -0.271 OA
ENDROOT
BRANCH   2   5
HETATM    5  C           1     -36.478  -0.653 -11.113  0.00  0.00     0.275 C 
BRANCH   5   6
HETATM    6  C           1     -36.446  -0.273 -12.587  0.00  0.00     0.053 C 
BRANCH   6   7
HETATM    7  C           1     -35.142   0.453 -12.897  0.00  0.00     0.076 C 
BRANCH   7   8
HETATM    8  S           1     -35.094   0.891 -14.657  0.00  0.00    -0.173 SA
HETATM    9  C           1     -36.733   0.233 -15.071  0.00  0.00     0.089 C 
ENDBRANCH   7   8
ENDBRANCH   6   7
ENDBRANCH   5   6
BRANCH   5  10
HETATM   10  N           1     -36.208   0.563 -10.277  0.00  0.00    -0.066 N 
HETATM   11  H           1     -35.250   0.923 -10.487  0.00  0.00     0.275 HD
HETATM   12  H           1     -36.914   1.300 -10.498  0.00  0.00     0.275 HD
HETATM   13  H           1     -36.272   0.312  -9.265  0.00  0.00     0.275 HD
ENDBRANCH   5  10
ENDBRANCH   2   5
BRANCH   1  14
HETATM   14  C           1     -34.433  -3.891 -11.241  0.00  0.00     0.186 C 
BRANCH  14  15
HETATM   15  C           1     -35.092  -5.257 -11.102  0.00  0.00     0.046 C 
BRANCH  15  16
HETATM   16  C           1     -34.086  -6.250 -10.532  0.00  0.00     0.076 C 
BRANCH  16  17
HETATM   17  S           1     -34.970  -7.574  -9.659  0.00  0.00    -0.173 SA
HETATM   18  C           1     -33.750  -8.877  -9.987  0.00  0.00     0.089 C 
ENDBRANCH  16  17
ENDBRANCH  15  16
ENDBRANCH  14  15
BRANCH  14  19
HETATM   19  C           1     -33.449  -3.920 -12.385  0.00  0.00     0.196 C 
HETATM   20  O           1     -32.235  -4.113 -12.159  0.00  0.00    -0.646 OA
HETATM   21  O           1     -33.848  -3.751 -13.557  0.00  0.00    -0.646 OA
ENDBRANCH  14  19
ENDBRANCH   1  14
TORSDOF 10
ENDMDL
MODEL 6
REMARK VINA RESULT:      -4.9     14.057     16.896
REMARK  10 active torsions:
REMARK  status: ('A' for Active; 'I' for Inactive)
REMARK    1  A    between atoms: N_1  and  C_11 
REMARK       I    between atoms: N_1  and  C_4 
REMARK    2  A    between atoms: C_4  and  C_8 
REMARK    3  A    between atoms: C_5  and  S_13 
REMARK    4  A    between atoms: C_5  and  C_6 
REMARK    5  A    between atoms: C_6  and  C_11 
REMARK    6  A    between atoms: C_8  and  C_19 
REMARK    7  A    between atoms: C_8  and  N_21 
REMARK    8  A    between atoms: C_11  and  C_12 
REMARK    9  A    between atoms: S_16  and  C_17 
REMARK   10  A    between atoms: C_17  and  C_19 
ROOT
HETATM    1  N           1     -21.138  -6.570  -6.456  0.00  0.00    -0.345 N 
HETATM    2  C           1     -21.004  -5.253  -6.804  0.00  0.00     0.249 C 
HETATM    3  H           1     -21.552  -7.225  -7.107  0.00  0.00     0.163 HD
HETATM    4  O           1     -20.509  -4.471  -6.028  0.00  0.00    -0.271 OA
ENDROOT
BRANCH   2   5
HETATM    5  C           1     -21.475  -4.778  -8.157  0.00  0.00     0.275 C 
BRANCH   5   6
HETATM    6  C           1     -20.319  -4.111  -8.891  0.00  0.00     0.053 C 
BRANCH   6   7
HETATM    7  C           1     -20.322  -4.552 -10.350  0.00  0.00     0.076 C 
BRANCH   7   8
HETATM    8  S           1     -21.212  -3.330 -11.352  0.00  0.00    -0.173 SA
HETATM    9  C           1     -22.685  -4.348 -11.646  0.00  0.00     0.089 C 
ENDBRANCH   7   8
ENDBRANCH   6   7
ENDBRANCH   5   6
BRANCH   5  10
HETATM   10  N           1     -22.590  -3.791  -7.979  0.00  0.00    -0.066 N 
HETATM   11  H           1     -23.139  -4.039  -7.125  0.00  0.00     0.275 HD
HETATM   12  H           1     -22.193  -2.832  -7.873  0.00  0.00     0.275 HD
HETATM   13  H           1     -23.217  -3.818  -8.816  0.00  0.00     0.275 HD
ENDBRANCH   5  10
ENDBRANCH   2   5
BRANCH   1  14
HETATM   14  C           1     -20.686  -7.027  -5.157  0.00  0.00     0.186 C 
BRANCH  14  15
HETATM   15  C           1     -21.853  -7.008  -4.178  0.00  0.00     0.046 C 
BRANCH  15  16
HETATM   16  C           1     -21.390  -6.432  -2.846  0.00  0.00     0.076 C 
BRANCH  16  17
HETATM   17  S           1     -21.160  -7.778  -1.651  0.00  0.00    -0.173 SA
HETATM   18  C           1     -22.462  -7.249  -0.502  0.00  0.00     0.089 C 
ENDBRANCH  16  17
ENDBRANCH  15  16
ENDBRANCH  14  15
BRANCH  14  19
HETATM   19  C           1     -20.151  -8.433  -5.277  0.00  0.00     0.196 C 
HETATM   20  O           1     -20.822  -9.308  -5.866  0.00  0.00    -0.646 OA
HETATM   21  O           1     -19.038  -8.722  -4.786  0.00  0.00    -0.646 OA
ENDBRANCH  14  19
ENDBRANCH   1  14
TORSDOF 10
ENDMDL
MODEL 7
REMARK VINA RESULT:      -4.8     14.113     17.084
REMARK  10 active torsions:
REMARK  status: ('A' for Active; 'I' for Inactive)
REMARK    1  A    between atoms: N_1  and  C_11 
REMARK       I    between atoms: N_1  and  C_4 
REMARK    2  A    between atoms: C_4  and  C_8 
REMARK    3  A    between atoms: C_5  and  S_13 
REMARK    4  A    between atoms: C_5  and  C_6 
REMARK    5  A    between atoms: C_6  and  C_11 
REMARK    6  A    between atoms: C_8  and  C_19 
REMARK    7  A    between atoms: C_8  and  N_21 
REMARK    8  A    between atoms: C_11  and  C_12 
REMARK    9  A    between atoms: S_16  and  C_17 
REMARK   10  A    between atoms: C_17  and  C_19 
ROOT
HETATM    1  N           1     -20.811  -6.657  -4.875  0.00  0.00    -0.345 N 
HETATM    2  C           1     -21.416  -5.765  -5.719  0.00  0.00     0.249 C 
HETATM    3  H           1     -19.804  -6.755  -4.880  0.00  0.00     0.163 HD
HETATM    4  O           1     -22.618  -5.647  -5.712  0.00  0.00    -0.271 OA
ENDROOT
BRANCH   2   5
HETATM    5  C           1     -20.581  -4.929  -6.657  0.00  0.00     0.275 C 
BRANCH   5   6
HETATM    6  C           1     -21.449  -3.844  -7.281  0.00  0.00     0.053 C 
BRANCH   6   7
HETATM    7  C           1     -21.773  -4.219  -8.722  0.00  0.00     0.076 C 
BRANCH   7   8
HETATM    8  S           1     -23.556  -4.050  -9.007  0.00  0.00    -0.173 SA
HETATM    9  C           1     -23.564  -4.787 -10.666  0.00  0.00     0.089 C 
ENDBRANCH   7   8
ENDBRANCH   6   7
ENDBRANCH   5   6
BRANCH   5  10
HETATM   10  N           1     -20.020  -5.803  -7.740  0.00  0.00    -0.066 N 
HETATM   11  H           1     -19.242  -5.300  -8.224  0.00  0.00     0.275 HD
HETATM   12  H           1     -19.655  -6.687  -7.319  0.00  0.00     0.275 HD
HETATM   13  H           1     -20.771  -6.030  -8.430  0.00  0.00     0.275 HD
ENDBRANCH   5  10
ENDBRANCH   2   5
BRANCH   1  14
HETATM   14  C           1     -21.613  -7.460  -3.973  0.00  0.00     0.186 C 
BRANCH  14  15
HETATM   15  C           1     -21.042  -8.870  -3.905  0.00  0.00     0.046 C 
BRANCH  15  16
HETATM   16  C           1     -19.720  -8.920  -4.660  0.00  0.00     0.076 C 
BRANCH  16  17
HETATM   17  S           1     -18.424  -9.573  -3.571  0.00  0.00    -0.173 SA
HETATM   18  C           1     -19.537 -10.476  -2.457  0.00  0.00     0.089 C 
ENDBRANCH  16  17
ENDBRANCH  15  16
ENDBRANCH  14  15
BRANCH  14  19
HETATM   19  C           1     -21.592  -6.841  -2.596  0.00  0.00     0.196 C 
HETATM   20  O           1     -22.354  -5.886  -2.329  0.00  0.00    -0.646 OA
HETATM   21  O           1     -20.812  -7.282  -1.725  0.00  0.00    -0.646 OA
ENDBRANCH  14  19
ENDBRANCH   1  14
TORSDOF 10
ENDMDL
MODEL 8
REMARK VINA RESULT:      -4.6     15.270     17.380
REMARK  10 active torsions:
REMARK  status: ('A' for Active; 'I' for Inactive)
REMARK    1  A    between atoms: N_1  and  C_11 
REMARK       I    between atoms: N_1  and  C_4 
REMARK    2  A    between atoms: C_4  and  C_8 
REMARK    3  A    between atoms: C_5  and  S_13 
REMARK    4  A    between atoms: C_5  and  C_6 
REMARK    5  A    between atoms: C_6  and  C_11 
REMARK    6  A    between atoms: C_8  and  C_19 
REMARK    7  A    between atoms: C_8  and  N_21 
REMARK    8  A    between atoms: C_11  and  C_12 
REMARK    9  A    between atoms: S_16  and  C_17 
REMARK   10  A    between atoms: C_17  and  C_19 
ROOT
HETATM    1  N           1     -20.940  -6.634  -3.514  0.00  0.00    -0.345 N 
HETATM    2  C           1     -21.266  -6.796  -4.833  0.00  0.00     0.249 C 
HETATM    3  H           1     -20.346  -5.865  -3.231  0.00  0.00     0.163 HD
HETATM    4  O           1     -21.975  -7.714  -5.172  0.00  0.00    -0.271 OA
ENDROOT
BRANCH   2   5
HETATM    5  C           1     -20.738  -5.830  -5.865  0.00  0.00     0.275 C 
BRANCH   5   6
HETATM    6  C           1     -21.905  -5.163  -6.582  0.00  0.00     0.053 C 
BRANCH   6   7
HETATM    7  C           1     -21.411  -3.918  -7.307  0.00  0.00     0.076 C 
BRANCH   7   8
HETATM    8  S           1     -22.027  -3.924  -9.013  0.00  0.00    -0.173 SA
HETATM    9  C           1     -20.457  -4.397  -9.790  0.00  0.00     0.089 C 
ENDBRANCH   7   8
ENDBRANCH   6   7
ENDBRANCH   5   6
BRANCH   5  10
HETATM   10  N           1     -19.900  -6.574  -6.863  0.00  0.00    -0.066 N 
HETATM   11  H           1     -20.520  -7.149  -7.477  0.00  0.00     0.275 HD
HETATM   12  H           1     -19.365  -5.893  -7.446  0.00  0.00     0.275 HD
HETATM   13  H           1     -19.232  -7.201  -6.359  0.00  0.00     0.275 HD
ENDBRANCH   5  10
ENDBRANCH   2   5
BRANCH   1  14
HETATM   14  C           1     -21.448  -7.561  -2.522  0.00  0.00     0.186 C 
BRANCH  14  15
HETATM   15  C           1     -20.284  -8.303  -1.879  0.00  0.00     0.046 C 
BRANCH  15  16
HETATM   16  C           1     -20.217  -9.721  -2.431  0.00  0.00     0.076 C 
BRANCH  16  17
HETATM   17  S           1     -21.849 -10.503  -2.292  0.00  0.00    -0.173 SA
HETATM   18  C           1     -21.970 -11.022  -4.027  0.00  0.00     0.089 C 
ENDBRANCH  16  17
ENDBRANCH  15  16
ENDBRANCH  14  15
BRANCH  14  19
HETATM   19  C           1     -22.207  -6.799  -1.463  0.00  0.00     0.196 C 
HETATM   20  O           1     -22.644  -7.397  -0.456  0.00  0.00    -0.646 OA
HETATM   21  O           1     -22.397  -5.570  -1.594  0.00  0.00    -0.646 OA
ENDBRANCH  14  19
ENDBRANCH   1  14
TORSDOF 10
ENDMDL
MODEL 9
REMARK VINA RESULT:      -4.4     26.068     27.265
REMARK  10 active torsions:
REMARK  status: ('A' for Active; 'I' for Inactive)
REMARK    1  A    between atoms: N_1  and  C_11 
REMARK       I    between atoms: N_1  and  C_4 
REMARK    2  A    between atoms: C_4  and  C_8 
REMARK    3  A    between atoms: C_5  and  S_13 
REMARK    4  A    between atoms: C_5  and  C_6 
REMARK    5  A    between atoms: C_6  and  C_11 
REMARK    6  A    between atoms: C_8  and  C_19 
REMARK    7  A    between atoms: C_8  and  N_21 
REMARK    8  A    between atoms: C_11  and  C_12 
REMARK    9  A    between atoms: S_16  and  C_17 
REMARK   10  A    between atoms: C_17  and  C_19 
ROOT
HETATM    1  N           1     -10.647   7.158 -20.996  0.00  0.00    -0.345 N 
HETATM    2  C           1      -9.921   6.026 -20.741  0.00  0.00     0.249 C 
HETATM    3  H           1     -11.513   7.097 -21.516  0.00  0.00     0.163 HD
HETATM    4  O           1      -8.888   6.098 -20.119  0.00  0.00    -0.271 OA
ENDROOT
BRANCH   2   5
HETATM    5  C           1     -10.412   4.687 -21.237  0.00  0.00     0.275 C 
BRANCH   5   6
HETATM    6  C           1     -11.571   4.896 -22.202  0.00  0.00     0.053 C 
BRANCH   6   7
HETATM    7  C           1     -12.506   3.695 -22.140  0.00  0.00     0.076 C 
BRANCH   7   8
HETATM    8  S           1     -14.228   4.260 -22.225  0.00  0.00    -0.173 SA
HETATM    9  C           1     -14.302   4.930 -20.540  0.00  0.00     0.089 C 
ENDBRANCH   7   8
ENDBRANCH   6   7
ENDBRANCH   5   6
BRANCH   5  10
HETATM   10  N           1     -10.874   3.862 -20.072  0.00  0.00    -0.066 N 
HETATM   11  H           1     -11.140   2.909 -20.407  0.00  0.00     0.275 HD
HETATM   12  H           1     -10.102   3.784 -19.373  0.00  0.00     0.275 HD
HETATM   13  H           1     -11.702   4.319 -19.627  0.00  0.00     0.275 HD
ENDBRANCH   5  10
ENDBRANCH   2   5
BRANCH   1  14
HETATM   14  C           1     -10.177   8.443 -20.519  0.00  0.00     0.186 C 
BRANCH  14  15
HETATM   15  C           1     -10.552   9.525 -21.523  0.00  0.00     0.046 C 
BRANCH  15  16
HETATM   16  C           1     -11.459   8.932 -22.594  0.00  0.00     0.076 C 
BRANCH  16  17
HETATM   17  S           1     -13.118   9.655 -22.452  0.00  0.00    -0.173 SA
HETATM   18  C           1     -12.603  11.163 -21.582  0.00  0.00     0.089 C 
ENDBRANCH  16  17
ENDBRANCH  15  16
ENDBRANCH  14  15
BRANCH  14  19
HETATM   19  C           1     -10.816   8.749 -19.186  0.00  0.00     0.196 C 
HETATM   20  O           1     -10.102   9.060 -18.208  0.00  0.00    -0.646 OA
HETATM   21  O           1     -12.058   8.691 -19.061  0.00  0.00    -0.646 OA
ENDBRANCH  14  19
ENDBRANCH   1  14
TORSDOF 10
ENDMDL
