MODEL 1
REMARK VINA RESULT:      -5.5      0.000      0.000
REMARK  8 active torsions:
REMARK  status: ('A' for Active; 'I' for Inactive)
REMARK    1  A    between atoms: C_1  and  C_5 
REMARK    2  A    between atoms: C_1  and  C_2 
REMARK    3  A    between atoms: C_2  and  C_12 
REMARK    4  A    between atoms: C_2  and  N_9 
REMARK    5  A    between atoms: O_7  and  C_8 
REMARK    6  A    between atoms: C_8  and  C_14 
REMARK       I    between atoms: N_9  and  C_10 
REMARK    7  A    between atoms: C_10  and  C_14 
REMARK    8  A    between atoms: C_14  and  N_16 
ROOT
HETATM    1  N           1     -23.252  -3.274 -11.833  0.00  0.00    -0.344 N 
HETATM    2  C           1     -23.590  -3.279 -13.159  0.00  0.00     0.251 C 
HETATM    3  O           1     -24.386  -4.086 -13.576  0.00  0.00    -0.271 OA
HETATM    4  H           1     -22.585  -2.597 -11.484  0.00  0.00     0.163 HD
ENDROOT
BRANCH   1   5
HETATM    5  C           1     -23.851  -4.235 -10.928  0.00  0.00     0.195 C 
BRANCH   5   6
HETATM    6  C           1     -22.754  -5.044 -10.249  0.00  0.00     0.149 C 
BRANCH   6   7
HETATM    7  C           1     -21.424  -4.362 -10.453  0.00  0.00     0.175 C 
HETATM    8  O           1     -20.772  -4.563 -11.501  0.00  0.00    -0.648 OA
HETATM    9  O           1     -20.974  -3.595  -9.575  0.00  0.00    -0.648 OA
ENDBRANCH   6   7
ENDBRANCH   5   6
BRANCH   5  10
HETATM   10  C           1     -24.658  -3.506  -9.883  0.00  0.00     0.197 C 
HETATM   11  O           1     -25.809  -3.097 -10.154  0.00  0.00    -0.646 OA
HETATM   12  O           1     -24.179  -3.311  -8.745  0.00  0.00    -0.646 OA
ENDBRANCH   5  10
ENDBRANCH   1   5
BRANCH   2  13
HETATM   13  C           1     -22.967  -2.278 -14.101  0.00  0.00     0.297 C 
BRANCH  13  14
HETATM   14  C           1     -24.051  -1.374 -14.672  0.00  0.00     0.206 C 
BRANCH  14  15
HETATM   15  O           1     -25.168  -1.390 -13.824  0.00  0.00    -0.398 OA
HETATM   16  H           1     -25.924  -1.237 -14.365  0.00  0.00     0.209 HD
ENDBRANCH  14  15
ENDBRANCH  13  14
BRANCH  13  17
HETATM   17  N           1     -22.282  -3.005 -15.220  0.00  0.00    -0.064 N 
HETATM   18  H           1     -21.438  -3.499 -14.851  0.00  0.00     0.275 HD
HETATM   19  H           1     -22.939  -3.702 -15.636  0.00  0.00     0.275 HD
HETATM   20  H           1     -21.991  -2.320 -15.954  0.00  0.00     0.275 HD
ENDBRANCH  13  17
ENDBRANCH   2  13
TORSDOF 8
ENDMDL
MODEL 2
REMARK VINA RESULT:      -5.5      1.553      3.193
REMARK  8 active torsions:
REMARK  status: ('A' for Active; 'I' for Inactive)
REMARK    1  A    between atoms: C_1  and  C_5 
REMARK    2  A    between atoms: C_1  and  C_2 
REMARK    3  A    between atoms: C_2  and  C_12 
REMARK    4  A    between atoms: C_2  and  N_9 
REMARK    5  A    between atoms: O_7  and  C_8 
REMARK    6  A    between atoms: C_8  and  C_14 
REMARK       I    between atoms: N_9  and  C_10 
REMARK    7  A    between atoms: C_10  and  C_14 
REMARK    8  A    between atoms: C_14  and  N_16 
ROOT
HETATM    1  N           1     -22.253  -4.021 -11.261  0.00  0.00    -0.344 N 
HETATM    2  C           1     -22.436  -3.048 -12.207  0.00  0.00     0.251 C 
HETATM    3  O           1     -22.201  -1.894 -11.939  0.00  0.00    -0.271 OA
HETATM    4  H           1     -22.450  -4.988 -11.485  0.00  0.00     0.163 HD
ENDROOT
BRANCH   1   5
HETATM    5  C           1     -21.775  -3.666  -9.939  0.00  0.00     0.195 C 
BRANCH   5   6
HETATM    6  C           1     -22.860  -3.960  -8.911  0.00  0.00     0.149 C 
BRANCH   6   7
HETATM    7  C           1     -24.212  -3.922  -9.581  0.00  0.00     0.175 C 
HETATM    8  O           1     -24.661  -4.945 -10.142  0.00  0.00    -0.648 OA
HETATM    9  O           1     -24.883  -2.868  -9.574  0.00  0.00    -0.648 OA
ENDBRANCH   6   7
ENDBRANCH   5   6
BRANCH   5  10
HETATM   10  C           1     -20.543  -4.474  -9.616  0.00  0.00     0.197 C 
HETATM   11  O           1     -19.818  -4.906 -10.539  0.00  0.00    -0.646 OA
HETATM   12  O           1     -20.245  -4.711  -8.426  0.00  0.00    -0.646 OA
ENDBRANCH   5  10
ENDBRANCH   1   5
BRANCH   2  13
HETATM   13  C           1     -22.933  -3.418 -13.583  0.00  0.00     0.297 C 
BRANCH  13  14
HETATM   14  C           1     -23.340  -2.157 -14.332  0.00  0.00     0.206 C 
BRANCH  14  15
HETATM   15  O           1     -24.550  -1.675 -13.814  0.00  0.00    -0.398 OA
HETATM   16  H           1     -24.895  -1.065 -14.444  0.00  0.00     0.209 HD
ENDBRANCH  14  15
ENDBRANCH  13  14
BRANCH  13  17
HETATM   17  N           1     -24.118  -4.329 -13.458  0.00  0.00    -0.064 N 
HETATM   18  H           1     -24.691  -4.279 -14.330  0.00  0.00     0.275 HD
HETATM   19  H           1     -23.789  -5.311 -13.314  0.00  0.00     0.275 HD
HETATM   20  H           1     -24.699  -4.034 -12.641  0.00  0.00     0.275 HD
ENDBRANCH  13  17
ENDBRANCH   2  13
TORSDOF 8
ENDMDL
MODEL 3
REMARK VINA RESULT:      -5.4      3.367      5.706
REMARK  8 active torsions:
REMARK  status: ('A' for Active; 'I' for Inactive)
REMARK    1  A    between atoms: C_1  and  C_5 
REMARK    2  A    between atoms: C_1  and  C_2 
REMARK    3  A    between atoms: C_2  and  C_12 
REMARK    4  A    between atoms: C_2  and  N_9 
REMARK    5  A    between atoms: O_7  and  C_8 
REMARK    6  A    between atoms: C_8  and  C_14 
REMARK       I    between atoms: N_9  and  C_10 
REMARK    7  A    between atoms: C_10  and  C_14 
REMARK    8  A    between atoms: C_14  and  N_16 
ROOT
HETATM    1  N           1     -22.499  -4.804  -8.307  0.00  0.00    -0.344 N 
HETATM    2  C           1     -21.768  -4.343  -7.246  0.00  0.00     0.251 C 
HETATM    3  O           1     -21.370  -3.203  -7.237  0.00  0.00    -0.271 OA
HETATM    4  H           1     -22.833  -5.759  -8.315  0.00  0.00     0.163 HD
ENDROOT
BRANCH   1   5
HETATM    5  C           1     -22.797  -3.923  -9.420  0.00  0.00     0.195 C 
BRANCH   5   6
HETATM    6  C           1     -22.157  -4.473 -10.687  0.00  0.00     0.149 C 
BRANCH   6   7
HETATM    7  C           1     -20.701  -4.080 -10.728  0.00  0.00     0.175 C 
HETATM    8  O           1     -20.361  -2.986 -11.230  0.00  0.00    -0.648 OA
HETATM    9  O           1     -19.834  -4.849 -10.259  0.00  0.00    -0.648 OA
ENDBRANCH   6   7
ENDBRANCH   5   6
BRANCH   5  10
HETATM   10  C           1     -24.292  -3.837  -9.606  0.00  0.00     0.197 C 
HETATM   11  O           1     -24.875  -2.738  -9.482  0.00  0.00    -0.646 OA
HETATM   12  O           1     -24.947  -4.864  -9.886  0.00  0.00    -0.646 OA
ENDBRANCH   5  10
ENDBRANCH   1   5
BRANCH   2  13
HETATM   13  C           1     -21.458  -5.260  -6.088  0.00  0.00     0.297 C 
BRANCH  13  14
HETATM   14  C           1     -20.556  -6.391  -6.563  0.00  0.00     0.206 C 
BRANCH  14  15
HETATM   15  O           1     -19.901  -6.005  -7.741  0.00  0.00    -0.398 OA
HETATM   16  H           1     -19.203  -6.621  -7.881  0.00  0.00     0.209 HD
ENDBRANCH  14  15
ENDBRANCH  13  14
BRANCH  13  17
HETATM   17  N           1     -22.736  -5.833  -5.549  0.00  0.00    -0.064 N 
HETATM   18  H           1     -22.937  -6.743  -6.022  0.00  0.00     0.275 HD
HETATM   19  H           1     -22.640  -5.988  -4.521  0.00  0.00     0.275 HD
HETATM   20  H           1     -23.520  -5.166  -5.730  0.00  0.00     0.275 HD
ENDBRANCH  13  17
ENDBRANCH   2  13
TORSDOF 8
ENDMDL
MODEL 4
REMARK VINA RESULT:      -5.3     16.276     17.795
REMARK  8 active torsions:
REMARK  status: ('A' for Active; 'I' for Inactive)
REMARK    1  A    between atoms: C_1  and  C_5 
REMARK    2  A    between atoms: C_1  and  C_2 
REMARK    3  A    between atoms: C_2  and  C_12 
REMARK    4  A    between atoms: C_2  and  N_9 
REMARK    5  A    between atoms: O_7  and  C_8 
REMARK    6  A    between atoms: C_8  and  C_14 
REMARK       I    between atoms: N_9  and  C_10 
REMARK    7  A    between atoms: C_10  and  C_14 
REMARK    8  A    between atoms: C_14  and  N_16 
ROOT
HETATM    1  N           1     -11.854   6.915 -19.981  0.00  0.00    -0.344 N 
HETATM    2  C           1     -11.775   8.066 -20.717  0.00  0.00     0.251 C 
HETATM    3  O           1     -11.811   8.015 -21.923  0.00  0.00    -0.271 OA
HETATM    4  H           1     -11.824   6.957 -18.970  0.00  0.00     0.163 HD
ENDROOT
BRANCH   1   5
HETATM    5  C           1     -11.984   5.635 -20.649  0.00  0.00     0.195 C 
BRANCH   5   6
HETATM    6  C           1     -10.847   4.719 -20.217  0.00  0.00     0.149 C 
BRANCH   6   7
HETATM    7  C           1      -9.794   5.527 -19.499  0.00  0.00     0.175 C 
HETATM    8  O           1      -8.874   6.072 -20.147  0.00  0.00    -0.648 OA
HETATM    9  O           1      -9.842   5.651 -18.256  0.00  0.00    -0.648 OA
ENDBRANCH   6   7
ENDBRANCH   5   6
BRANCH   5  10
HETATM   10  C           1     -13.305   5.006 -20.281  0.00  0.00     0.197 C 
HETATM   11  O           1     -13.504   3.792 -20.504  0.00  0.00    -0.646 OA
HETATM   12  O           1     -14.201   5.698 -19.751  0.00  0.00    -0.646 OA
ENDBRANCH   5  10
ENDBRANCH   1   5
BRANCH   2  13
HETATM   13  C           1     -11.641   9.398 -20.021  0.00  0.00     0.297 C 
BRANCH  13  14
HETATM   14  C           1     -10.276   9.486 -19.350  0.00  0.00     0.206 C 
BRANCH  14  15
HETATM   15  O           1     -10.276   8.708 -18.184  0.00  0.00    -0.398 OA
HETATM   16  H           1      -9.470   8.221 -18.179  0.00  0.00     0.209 HD
ENDBRANCH  14  15
ENDBRANCH  13  14
BRANCH  13  17
HETATM   17  N           1     -12.716   9.530 -18.983  0.00  0.00    -0.064 N 
HETATM   18  H           1     -13.651   9.405 -19.431  0.00  0.00     0.275 HD
HETATM   19  H           1     -12.582   8.799 -18.249  0.00  0.00     0.275 HD
HETATM   20  H           1     -12.663  10.477 -18.545  0.00  0.00     0.275 HD
ENDBRANCH  13  17
ENDBRANCH   2  13
TORSDOF 8
ENDMDL
MODEL 5
REMARK VINA RESULT:      -5.2      2.297      2.954
REMARK  8 active torsions:
REMARK  status: ('A' for Active; 'I' for Inactive)
REMARK    1  A    between atoms: C_1  and  C_5 
REMARK    2  A    between atoms: C_1  and  C_2 
REMARK    3  A    between atoms: C_2  and  C_12 
REMARK    4  A    between atoms: C_2  and  N_9 
REMARK    5  A    between atoms: O_7  and  C_8 
REMARK    6  A    between atoms: C_8  and  C_14 
REMARK       I    between atoms: N_9  and  C_10 
REMARK    7  A    between atoms: C_10  and  C_14 
REMARK    8  A    between atoms: C_14  and  N_16 
ROOT
HETATM    1  N           1     -22.128  -3.382  -9.756  0.00  0.00    -0.344 N 
HETATM    2  C           1     -22.520  -3.880 -10.969  0.00  0.00     0.251 C 
HETATM    3  O           1     -22.698  -5.067 -11.105  0.00  0.00    -0.271 OA
HETATM    4  H           1     -21.979  -2.388  -9.641  0.00  0.00     0.163 HD
ENDROOT
BRANCH   1   5
HETATM    5  C           1     -21.930  -4.278  -8.634  0.00  0.00     0.195 C 
BRANCH   5   6
HETATM    6  C           1     -20.792  -3.760  -7.765  0.00  0.00     0.149 C 
BRANCH   6   7
HETATM    7  C           1     -19.725  -4.821  -7.646  0.00  0.00     0.175 C 
HETATM    8  O           1     -18.532  -4.492  -7.468  0.00  0.00    -0.648 OA
HETATM    9  O           1     -20.035  -6.029  -7.724  0.00  0.00    -0.648 OA
ENDBRANCH   6   7
ENDBRANCH   5   6
BRANCH   5  10
HETATM   10  C           1     -23.196  -4.348  -7.816  0.00  0.00     0.197 C 
HETATM   11  O           1     -24.292  -4.041  -8.333  0.00  0.00    -0.646 OA
HETATM   12  O           1     -23.150  -4.713  -6.621  0.00  0.00    -0.646 OA
ENDBRANCH   5  10
ENDBRANCH   1   5
BRANCH   2  13
HETATM   13  C           1     -22.727  -2.946 -12.136  0.00  0.00     0.297 C 
BRANCH  13  14
HETATM   14  C           1     -24.213  -2.855 -12.456  0.00  0.00     0.206 C 
BRANCH  14  15
HETATM   15  O           1     -24.958  -3.145 -11.305  0.00  0.00    -0.398 OA
HETATM   16  H           1     -24.885  -4.072 -11.157  0.00  0.00     0.209 HD
ENDBRANCH  14  15
ENDBRANCH  13  14
BRANCH  13  17
HETATM   17  N           1     -21.991  -3.472 -13.333  0.00  0.00    -0.064 N 
HETATM   18  H           1     -21.818  -4.496 -13.215  0.00  0.00     0.275 HD
HETATM   19  H           1     -22.564  -3.312 -14.192  0.00  0.00     0.275 HD
HETATM   20  H           1     -21.077  -2.974 -13.426  0.00  0.00     0.275 HD
ENDBRANCH  13  17
ENDBRANCH   2  13
TORSDOF 8
ENDMDL
MODEL 6
REMARK VINA RESULT:      -5.2      3.133      5.568
REMARK  8 active torsions:
REMARK  status: ('A' for Active; 'I' for Inactive)
REMARK    1  A    between atoms: C_1  and  C_5 
REMARK    2  A    between atoms: C_1  and  C_2 
REMARK    3  A    between atoms: C_2  and  C_12 
REMARK    4  A    between atoms: C_2  and  N_9 
REMARK    5  A    between atoms: O_7  and  C_8 
REMARK    6  A    between atoms: C_8  and  C_14 
REMARK       I    between atoms: N_9  and  C_10 
REMARK    7  A    between atoms: C_10  and  C_14 
REMARK    8  A    between atoms: C_14  and  N_16 
ROOT
HETATM    1  N           1     -22.230  -4.765  -8.793  0.00  0.00    -0.344 N 
HETATM    2  C           1     -21.627  -4.421  -7.613  0.00  0.00     0.251 C 
HETATM    3  O           1     -21.549  -3.259  -7.291  0.00  0.00    -0.271 OA
HETATM    4  H           1     -22.295  -5.738  -9.062  0.00  0.00     0.163 HD
ENDROOT
BRANCH   1   5
HETATM    5  C           1     -22.777  -3.735  -9.655  0.00  0.00     0.195 C 
BRANCH   5   6
HETATM    6  C           1     -22.239  -3.918 -11.067  0.00  0.00     0.149 C 
BRANCH   6   7
HETATM    7  C           1     -20.738  -3.756 -11.060  0.00  0.00     0.175 C 
HETATM    8  O           1     -20.228  -2.645 -11.322  0.00  0.00    -0.648 OA
HETATM    9  O           1     -20.006  -4.732 -10.792  0.00  0.00    -0.648 OA
ENDBRANCH   6   7
ENDBRANCH   5   6
BRANCH   5  10
HETATM   10  C           1     -24.281  -3.841  -9.671  0.00  0.00     0.197 C 
HETATM   11  O           1     -24.829  -4.950  -9.855  0.00  0.00    -0.646 OA
HETATM   12  O           1     -24.982  -2.820  -9.501  0.00  0.00    -0.646 OA
ENDBRANCH   5  10
ENDBRANCH   1   5
BRANCH   2  13
HETATM   13  C           1     -21.058  -5.493  -6.716  0.00  0.00     0.297 C 
BRANCH  13  14
HETATM   14  C           1     -22.111  -5.917  -5.701  0.00  0.00     0.206 C 
BRANCH  14  15
HETATM   15  O           1     -23.332  -5.297  -6.006  0.00  0.00    -0.398 OA
HETATM   16  H           1     -23.996  -5.741  -5.507  0.00  0.00     0.209 HD
ENDBRANCH  14  15
ENDBRANCH  13  14
BRANCH  13  17
HETATM   17  N           1     -19.858  -4.955  -5.995  0.00  0.00    -0.064 N 
HETATM   18  H           1     -19.153  -5.717  -5.873  0.00  0.00     0.275 HD
HETATM   19  H           1     -19.437  -4.178  -6.551  0.00  0.00     0.275 HD
HETATM   20  H           1     -20.147  -4.595  -5.057  0.00  0.00     0.275 HD
ENDBRANCH  13  17
ENDBRANCH   2  13
TORSDOF 8
ENDMDL
MODEL 7
REMARK VINA RESULT:      -5.2      2.433      5.510
REMARK  8 active torsions:
REMARK  status: ('A' for Active; 'I' for Inactive)
REMARK    1  A    between atoms: C_1  and  C_5 
REMARK    2  A    between atoms: C_1  and  C_2 
REMARK    3  A    between atoms: C_2  and  C_12 
REMARK    4  A    between atoms: C_2  and  N_9 
REMARK    5  A    between atoms: O_7  and  C_8 
REMARK    6  A    between atoms: C_8  and  C_14 
REMARK       I    between atoms: N_9  and  C_10 
REMARK    7  A    between atoms: C_10  and  C_14 
REMARK    8  A    between atoms: C_14  and  N_16 
ROOT
HETATM    1  N           1     -21.795  -3.972  -9.780  0.00  0.00    -0.344 N 
HETATM    2  C           1     -20.563  -4.366  -9.334  0.00  0.00     0.251 C 
HETATM    3  O           1     -19.862  -5.061 -10.032  0.00  0.00    -0.271 OA
HETATM    4  H           1     -22.382  -3.390  -9.196  0.00  0.00     0.163 HD
ENDROOT
BRANCH   1   5
HETATM    5  C           1     -22.259  -4.386 -11.090  0.00  0.00     0.195 C 
BRANCH   5   6
HETATM    6  C           1     -23.702  -4.863 -10.989  0.00  0.00     0.149 C 
BRANCH   6   7
HETATM    7  C           1     -24.447  -4.009  -9.992  0.00  0.00     0.175 C 
HETATM    8  O           1     -25.320  -3.205 -10.386  0.00  0.00    -0.648 OA
HETATM    9  O           1     -24.191  -4.106  -8.773  0.00  0.00    -0.648 OA
ENDBRANCH   6   7
ENDBRANCH   5   6
BRANCH   5  10
HETATM   10  C           1     -22.180  -3.219 -12.043  0.00  0.00     0.197 C 
HETATM   11  O           1     -22.796  -3.257 -13.131  0.00  0.00    -0.646 OA
HETATM   12  O           1     -21.499  -2.214 -11.747  0.00  0.00    -0.646 OA
ENDBRANCH   5  10
ENDBRANCH   1   5
BRANCH   2  13
HETATM   13  C           1     -20.080  -3.935  -7.971  0.00  0.00     0.297 C 
BRANCH  13  14
HETATM   14  C           1     -19.399  -5.108  -7.279  0.00  0.00     0.206 C 
BRANCH  14  15
HETATM   15  O           1     -20.191  -6.257  -7.416  0.00  0.00    -0.398 OA
HETATM   16  H           1     -19.836  -6.750  -8.135  0.00  0.00     0.209 HD
ENDBRANCH  14  15
ENDBRANCH  13  14
BRANCH  13  17
HETATM   17  N           1     -21.248  -3.480  -7.148  0.00  0.00    -0.064 N 
HETATM   18  H           1     -22.024  -4.175  -7.227  0.00  0.00     0.275 HD
HETATM   19  H           1     -20.957  -3.395  -6.148  0.00  0.00     0.275 HD
HETATM   20  H           1     -21.577  -2.550  -7.495  0.00  0.00     0.275 HD
ENDBRANCH  13  17
ENDBRANCH   2  13
TORSDOF 8
ENDMDL
MODEL 8
REMARK VINA RESULT:      -5.1      3.299      5.188
REMARK  8 active torsions:
REMARK  status: ('A' for Active; 'I' for Inactive)
REMARK    1  A    between atoms: C_1  and  C_5 
REMARK    2  A    between atoms: C_1  and  C_2 
REMARK    3  A    between atoms: C_2  and  C_12 
REMARK    4  A    between atoms: C_2  and  N_9 
REMARK    5  A    between atoms: O_7  and  C_8 
REMARK    6  A    between atoms: C_8  and  C_14 
REMARK       I    between atoms: N_9  and  C_10 
REMARK    7  A    between atoms: C_10  and  C_14 
REMARK    8  A    between atoms: C_14  and  N_16 
ROOT
HETATM    1  N           1     -22.105  -4.805  -8.140  0.00  0.00    -0.344 N 
HETATM    2  C           1     -22.933  -4.086  -8.959  0.00  0.00     0.251 C 
HETATM    3  O           1     -22.750  -2.902  -9.114  0.00  0.00    -0.271 OA
HETATM    4  H           1     -22.257  -5.797  -8.011  0.00  0.00     0.163 HD
ENDROOT
BRANCH   1   5
HETATM    5  C           1     -21.007  -4.145  -7.460  0.00  0.00     0.195 C 
BRANCH   5   6
HETATM    6  C           1     -20.879  -4.701  -6.048  0.00  0.00     0.149 C 
BRANCH   6   7
HETATM    7  C           1     -21.642  -5.999  -5.945  0.00  0.00     0.175 C 
HETATM    8  O           1     -21.178  -7.039  -6.460  0.00  0.00    -0.648 OA
HETATM    9  O           1     -22.738  -6.034  -5.345  0.00  0.00    -0.648 OA
ENDBRANCH   6   7
ENDBRANCH   5   6
BRANCH   5  10
HETATM   10  C           1     -19.726  -4.392  -8.216  0.00  0.00     0.197 C 
HETATM   11  O           1     -19.761  -4.648  -9.439  0.00  0.00    -0.646 OA
HETATM   12  O           1     -18.628  -4.339  -7.621  0.00  0.00    -0.646 OA
ENDBRANCH   5  10
ENDBRANCH   1   5
BRANCH   2  13
HETATM   13  C           1     -24.074  -4.773  -9.668  0.00  0.00     0.297 C 
BRANCH  13  14
HETATM   14  C           1     -23.696  -5.015 -11.124  0.00  0.00     0.206 C 
BRANCH  14  15
HETATM   15  O           1     -22.332  -4.745 -11.304  0.00  0.00    -0.398 OA
HETATM   16  H           1     -22.179  -3.878 -10.972  0.00  0.00     0.209 HD
ENDBRANCH  14  15
ENDBRANCH  13  14
BRANCH  13  17
HETATM   17  N           1     -25.295  -3.904  -9.608  0.00  0.00    -0.064 N 
HETATM   18  H           1     -25.928  -4.133 -10.407  0.00  0.00     0.275 HD
HETATM   19  H           1     -25.797  -4.072  -8.707  0.00  0.00     0.275 HD
HETATM   20  H           1     -25.011  -2.900  -9.666  0.00  0.00     0.275 HD
ENDBRANCH  13  17
ENDBRANCH   2  13
TORSDOF 8
ENDMDL
MODEL 9
REMARK VINA RESULT:      -5.0      3.049      6.224
REMARK  8 active torsions:
REMARK  status: ('A' for Active; 'I' for Inactive)
REMARK    1  A    between atoms: C_1  and  C_5 
REMARK    2  A    between atoms: C_1  and  C_2 
REMARK    3  A    between atoms: C_2  and  C_12 
REMARK    4  A    between atoms: C_2  and  N_9 
REMARK    5  A    between atoms: O_7  and  C_8 
REMARK    6  A    between atoms: C_8  and  C_14 
REMARK       I    between atoms: N_9  and  C_10 
REMARK    7  A    between atoms: C_10  and  C_14 
REMARK    8  A    between atoms: C_14  and  N_16 
ROOT
HETATM    1  N           1     -21.872  -3.944  -8.689  0.00  0.00    -0.344 N 
HETATM    2  C           1     -21.533  -4.943  -7.817  0.00  0.00     0.251 C 
HETATM    3  O           1     -21.338  -6.062  -8.228  0.00  0.00    -0.271 OA
HETATM    4  H           1     -22.035  -3.006  -8.345  0.00  0.00     0.163 HD
ENDROOT
BRANCH   1   5
HETATM    5  C           1     -21.995  -4.228 -10.105  0.00  0.00     0.195 C 
BRANCH   5   6
HETATM    6  C           1     -23.112  -3.379 -10.698  0.00  0.00     0.149 C 
BRANCH   6   7
HETATM    7  C           1     -24.440  -3.839 -10.149  0.00  0.00     0.175 C 
HETATM    8  O           1     -24.618  -5.044  -9.869  0.00  0.00    -0.648 OA
HETATM    9  O           1     -25.363  -3.014  -9.974  0.00  0.00    -0.648 OA
ENDBRANCH   6   7
ENDBRANCH   5   6
BRANCH   5  10
HETATM   10  C           1     -20.695  -3.905 -10.798  0.00  0.00     0.197 C 
HETATM   11  O           1     -20.513  -2.768 -11.287  0.00  0.00    -0.646 OA
HETATM   12  O           1     -19.799  -4.772 -10.884  0.00  0.00    -0.646 OA
ENDBRANCH   5  10
ENDBRANCH   1   5
BRANCH   2  13
HETATM   13  C           1     -21.404  -4.647  -6.343  0.00  0.00     0.297 C 
BRANCH  13  14
HETATM   14  C           1     -19.938  -4.720  -5.937  0.00  0.00     0.206 C 
BRANCH  14  15
HETATM   15  O           1     -19.130  -4.609  -7.078  0.00  0.00    -0.398 OA
HETATM   16  H           1     -19.670  -4.827  -7.818  0.00  0.00     0.209 HD
ENDBRANCH  14  15
ENDBRANCH  13  14
BRANCH  13  17
HETATM   17  N           1     -22.189  -5.657  -5.560  0.00  0.00    -0.064 N 
HETATM   18  H           1     -22.118  -5.440  -4.541  0.00  0.00     0.275 HD
HETATM   19  H           1     -23.191  -5.622  -5.854  0.00  0.00     0.275 HD
HETATM   20  H           1     -21.807  -6.612  -5.741  0.00  0.00     0.275 HD
ENDBRANCH  13  17
ENDBRANCH   2  13
TORSDOF 8
ENDMDL
