MODEL 1
REMARK VINA RESULT:      -6.2      0.000      0.000
REMARK  5 active torsions:
REMARK  status: ('A' for Active; 'I' for Inactive)
REMARK    1  A    between atoms: C_5  and  C_19 
REMARK    2  A    between atoms: N_8  and  C_18 
REMARK    3  A    between atoms: C_13  and  C_15 
REMARK       I    between atoms: N_16  and  C_17 
REMARK    4  A    between atoms: C_17  and  C_18 
REMARK    5  A    between atoms: C_18  and  C_19 
ROOT
HETATM    1  C           1     -23.546  -4.872 -11.178  0.00  0.00     0.038 C 
HETATM    2  O           1     -20.199  -5.080  -8.827  0.00  0.00    -0.271 OA
HETATM    3  C           1     -23.457  -3.552  -9.155  0.00  0.00     0.127 C 
HETATM    4  C           1     -24.418  -4.288 -10.072  0.00  0.00     0.022 C 
HETATM    5  C           1     -22.132  -4.433 -10.839  0.00  0.00     0.188 C 
HETATM    6  N           1     -22.173  -4.207  -9.397  0.00  0.00    -0.336 N 
HETATM    7  C           1     -21.219  -4.537  -8.473  0.00  0.00     0.251 C 
ENDROOT
BRANCH   7   8
HETATM    8  C           1     -21.440  -4.222  -7.014  0.00  0.00     0.284 C 
BRANCH   8   9
HETATM    9  N           1     -22.652  -4.955  -6.523  0.00  0.00    -0.066 N 
HETATM   10  H           1     -23.436  -4.278  -6.382  0.00  0.00     0.275 HD
HETATM   11  H           1     -22.935  -5.671  -7.230  0.00  0.00     0.275 HD
HETATM   12  H           1     -22.432  -5.426  -5.618  0.00  0.00     0.275 HD
ENDBRANCH   8   9
BRANCH   8  13
HETATM   13  C           1     -20.223  -4.660  -6.210  0.00  0.00     0.155 C 
BRANCH  13  14
HETATM   14  C           1     -20.522  -5.963  -5.511  0.00  0.00     0.175 C 
HETATM   15  O           1     -20.323  -7.048  -6.098  0.00  0.00    -0.648 OA
HETATM   16  O           1     -20.969  -5.957  -4.343  0.00  0.00    -0.648 OA
ENDBRANCH  13  14
ENDBRANCH   8  13
ENDBRANCH   7   8
BRANCH   5  17
HETATM   17  C           1     -21.773  -3.163 -11.572  0.00  0.00     0.196 C 
HETATM   18  O           1     -22.585  -2.653 -12.373  0.00  0.00    -0.646 OA
HETATM   19  O           1     -20.664  -2.622 -11.376  0.00  0.00    -0.646 OA
ENDBRANCH   5  17
TORSDOF 5
ENDMDL
MODEL 2
REMARK VINA RESULT:      -6.1      1.779      2.459
REMARK  5 active torsions:
REMARK  status: ('A' for Active; 'I' for Inactive)
REMARK    1  A    between atoms: C_5  and  C_19 
REMARK    2  A    between atoms: N_8  and  C_18 
REMARK    3  A    between atoms: C_13  and  C_15 
REMARK       I    between atoms: N_16  and  C_17 
REMARK    4  A    between atoms: C_17  and  C_18 
REMARK    5  A    between atoms: C_18  and  C_19 
ROOT
HETATM    1  C           1     -21.692  -2.837 -11.252  0.00  0.00     0.038 C 
HETATM    2  O           1     -22.784  -4.004  -7.481  0.00  0.00    -0.271 OA
HETATM    3  C           1     -20.590  -4.743 -10.255  0.00  0.00     0.127 C 
HETATM    4  C           1     -20.367  -3.590 -11.218  0.00  0.00     0.022 C 
HETATM    5  C           1     -22.606  -3.604 -10.312  0.00  0.00     0.188 C 
HETATM    6  N           1     -21.683  -4.281  -9.404  0.00  0.00    -0.336 N 
HETATM    7  C           1     -21.814  -4.446  -8.052  0.00  0.00     0.251 C 
ENDROOT
BRANCH   7   8
HETATM    8  C           1     -20.749  -5.179  -7.274  0.00  0.00     0.284 C 
BRANCH   8   9
HETATM    9  N           1     -20.380  -4.381  -6.060  0.00  0.00    -0.066 N 
HETATM   10  H           1     -19.455  -4.706  -5.698  0.00  0.00     0.275 HD
HETATM   11  H           1     -20.318  -3.370  -6.314  0.00  0.00     0.275 HD
HETATM   12  H           1     -21.108  -4.512  -5.322  0.00  0.00     0.275 HD
ENDBRANCH   8   9
BRANCH   8  13
HETATM   13  C           1     -21.281  -6.540  -6.845  0.00  0.00     0.155 C 
BRANCH  13  14
HETATM   14  C           1     -21.475  -6.557  -5.348  0.00  0.00     0.175 C 
HETATM   15  O           1     -20.579  -7.013  -4.606  0.00  0.00    -0.648 OA
HETATM   16  O           1     -22.534  -6.114  -4.851  0.00  0.00    -0.648 OA
ENDBRANCH  13  14
ENDBRANCH   8  13
ENDBRANCH   7   8
BRANCH   5  17
HETATM   17  C           1     -23.442  -4.604 -11.072  0.00  0.00     0.196 C 
HETATM   18  O           1     -23.587  -4.487 -12.308  0.00  0.00    -0.646 OA
HETATM   19  O           1     -23.990  -5.550 -10.465  0.00  0.00    -0.646 OA
ENDBRANCH   5  17
TORSDOF 5
ENDMDL
MODEL 3
REMARK VINA RESULT:      -5.8      2.722      6.271
REMARK  5 active torsions:
REMARK  status: ('A' for Active; 'I' for Inactive)
REMARK    1  A    between atoms: C_5  and  C_19 
REMARK    2  A    between atoms: N_8  and  C_18 
REMARK    3  A    between atoms: C_13  and  C_15 
REMARK       I    between atoms: N_16  and  C_17 
REMARK    4  A    between atoms: C_17  and  C_18 
REMARK    5  A    between atoms: C_18  and  C_19 
ROOT
HETATM    1  C           1     -20.297  -4.626  -9.835  0.00  0.00     0.038 C 
HETATM    2  O           1     -23.976  -5.697 -11.279  0.00  0.00    -0.271 OA
HETATM    3  C           1     -21.594  -2.990 -11.052  0.00  0.00     0.127 C 
HETATM    4  C           1     -20.167  -3.418 -10.756  0.00  0.00     0.022 C 
HETATM    5  C           1     -21.791  -4.822  -9.648  0.00  0.00     0.188 C 
HETATM    6  N           1     -22.375  -4.206 -10.836  0.00  0.00    -0.336 N 
HETATM    7  C           1     -23.424  -4.666 -11.584  0.00  0.00     0.251 C 
ENDROOT
BRANCH   7   8
HETATM    8  C           1     -23.891  -3.888 -12.789  0.00  0.00     0.284 C 
BRANCH   8   9
HETATM    9  N           1     -25.059  -3.028 -12.405  0.00  0.00    -0.066 N 
HETATM   10  H           1     -25.725  -2.967 -13.208  0.00  0.00     0.275 HD
HETATM   11  H           1     -25.545  -3.449 -11.582  0.00  0.00     0.275 HD
HETATM   12  H           1     -24.721  -2.071 -12.159  0.00  0.00     0.275 HD
ENDBRANCH   8   9
BRANCH   8  13
HETATM   13  C           1     -22.757  -3.006 -13.295  0.00  0.00     0.155 C 
BRANCH  13  14
HETATM   14  C           1     -23.059  -2.552 -14.702  0.00  0.00     0.175 C 
HETATM   15  O           1     -24.070  -1.853 -14.931  0.00  0.00    -0.648 OA
HETATM   16  O           1     -22.299  -2.877 -15.640  0.00  0.00    -0.648 OA
ENDBRANCH  13  14
ENDBRANCH   8  13
ENDBRANCH   7   8
BRANCH   5  17
HETATM   17  C           1     -22.270  -4.132  -8.394  0.00  0.00     0.196 C 
HETATM   18  O           1     -23.495  -4.019  -8.171  0.00  0.00    -0.646 OA
HETATM   19  O           1     -21.442  -3.673  -7.578  0.00  0.00    -0.646 OA
ENDBRANCH   5  17
TORSDOF 5
ENDMDL
MODEL 4
REMARK VINA RESULT:      -5.2      3.361      7.387
REMARK  5 active torsions:
REMARK  status: ('A' for Active; 'I' for Inactive)
REMARK    1  A    between atoms: C_5  and  C_19 
REMARK    2  A    between atoms: N_8  and  C_18 
REMARK    3  A    between atoms: C_13  and  C_15 
REMARK       I    between atoms: N_16  and  C_17 
REMARK    4  A    between atoms: C_17  and  C_18 
REMARK    5  A    between atoms: C_18  and  C_19 
ROOT
HETATM    1  C           1     -21.902 -10.113  -3.715  0.00  0.00     0.038 C 
HETATM    2  O           1     -21.896  -6.033  -4.078  0.00  0.00    -0.271 OA
HETATM    3  C           1     -20.020  -9.039  -4.786  0.00  0.00     0.127 C 
HETATM    4  C           1     -20.840 -10.318  -4.789  0.00  0.00     0.022 C 
HETATM    5  C           1     -21.630  -8.729  -3.149  0.00  0.00     0.188 C 
HETATM    6  N           1     -20.932  -8.041  -4.232  0.00  0.00    -0.336 N 
HETATM    7  C           1     -21.096  -6.745  -4.639  0.00  0.00     0.251 C 
ENDROOT
BRANCH   7   8
HETATM    8  C           1     -20.279  -6.205  -5.786  0.00  0.00     0.284 C 
BRANCH   8   9
HETATM    9  N           1     -20.927  -6.586  -7.083  0.00  0.00    -0.066 N 
HETATM   10  H           1     -20.531  -7.494  -7.417  0.00  0.00     0.275 HD
HETATM   11  H           1     -21.957  -6.688  -6.941  0.00  0.00     0.275 HD
HETATM   12  H           1     -20.745  -5.844  -7.795  0.00  0.00     0.275 HD
ENDBRANCH   8   9
BRANCH   8  13
HETATM   13  C           1     -20.202  -4.687  -5.684  0.00  0.00     0.155 C 
BRANCH  13  14
HETATM   14  C           1     -20.585  -4.073  -7.009  0.00  0.00     0.175 C 
HETATM   15  O           1     -21.757  -3.683  -7.202  0.00  0.00    -0.648 OA
HETATM   16  O           1     -19.730  -3.954  -7.913  0.00  0.00    -0.648 OA
ENDBRANCH  13  14
ENDBRANCH   8  13
ENDBRANCH   7   8
BRANCH   5  17
HETATM   17  C           1     -20.762  -8.814  -1.918  0.00  0.00     0.196 C 
HETATM   18  O           1     -20.218  -7.784  -1.464  0.00  0.00    -0.646 OA
HETATM   19  O           1     -20.587  -9.915  -1.352  0.00  0.00    -0.646 OA
ENDBRANCH   5  17
TORSDOF 5
ENDMDL
MODEL 5
REMARK VINA RESULT:      -5.2      5.216      9.431
REMARK  5 active torsions:
REMARK  status: ('A' for Active; 'I' for Inactive)
REMARK    1  A    between atoms: C_5  and  C_19 
REMARK    2  A    between atoms: N_8  and  C_18 
REMARK    3  A    between atoms: C_13  and  C_15 
REMARK       I    between atoms: N_16  and  C_17 
REMARK    4  A    between atoms: C_17  and  C_18 
REMARK    5  A    between atoms: C_18  and  C_19 
ROOT
HETATM    1  C           1     -21.041  -8.856   1.217  0.00  0.00     0.038 C 
HETATM    2  O           1     -19.828  -8.528  -2.681  0.00  0.00    -0.271 OA
HETATM    3  C           1     -22.661  -8.223  -0.460  0.00  0.00     0.127 C 
HETATM    4  C           1     -22.308  -8.036   1.005  0.00  0.00     0.022 C 
HETATM    5  C           1     -20.741  -9.476  -0.137  0.00  0.00     0.188 C 
HETATM    6  N           1     -21.388  -8.574  -1.085  0.00  0.00    -0.336 N 
HETATM    7  C           1     -20.908  -8.149  -2.294  0.00  0.00     0.251 C 
ENDROOT
BRANCH   7   8
HETATM    8  C           1     -21.727  -7.208  -3.143  0.00  0.00     0.284 C 
BRANCH   8   9
HETATM    9  N           1     -21.564  -5.807  -2.633  0.00  0.00    -0.066 N 
HETATM   10  H           1     -21.698  -5.132  -3.420  0.00  0.00     0.275 HD
HETATM   11  H           1     -22.276  -5.622  -1.891  0.00  0.00     0.275 HD
HETATM   12  H           1     -20.606  -5.690  -2.234  0.00  0.00     0.275 HD
ENDBRANCH   8   9
BRANCH   8  13
HETATM   13  C           1     -21.248  -7.281  -4.587  0.00  0.00     0.155 C 
BRANCH  13  14
HETATM   14  C           1     -21.414  -5.931  -5.242  0.00  0.00     0.175 C 
HETATM   15  O           1     -20.433  -5.165  -5.352  0.00  0.00    -0.648 OA
HETATM   16  O           1     -22.533  -5.580  -5.674  0.00  0.00    -0.648 OA
ENDBRANCH  13  14
ENDBRANCH   8  13
ENDBRANCH   7   8
BRANCH   5  17
HETATM   17  C           1     -21.323 -10.865  -0.233  0.00  0.00     0.196 C 
HETATM   18  O           1     -21.471 -11.405  -1.351  0.00  0.00    -0.646 OA
HETATM   19  O           1     -21.656 -11.476   0.805  0.00  0.00    -0.646 OA
ENDBRANCH   5  17
TORSDOF 5
ENDMDL
MODEL 6
REMARK VINA RESULT:      -5.2      1.857      2.794
REMARK  5 active torsions:
REMARK  status: ('A' for Active; 'I' for Inactive)
REMARK    1  A    between atoms: C_5  and  C_19 
REMARK    2  A    between atoms: N_8  and  C_18 
REMARK    3  A    between atoms: C_13  and  C_15 
REMARK       I    between atoms: N_16  and  C_17 
REMARK    4  A    between atoms: C_17  and  C_18 
REMARK    5  A    between atoms: C_18  and  C_19 
ROOT
HETATM    1  C           1     -22.365  -2.285 -12.207  0.00  0.00     0.038 C 
HETATM    2  O           1     -24.607  -3.289  -8.929  0.00  0.00    -0.271 OA
HETATM    3  C           1     -21.477  -3.889 -10.632  0.00  0.00     0.127 C 
HETATM    4  C           1     -21.062  -2.802 -11.608  0.00  0.00     0.022 C 
HETATM    5  C           1     -23.457  -3.109 -11.546  0.00  0.00     0.188 C 
HETATM    6  N           1     -22.854  -3.543 -10.289  0.00  0.00    -0.336 N 
HETATM    7  C           1     -23.449  -3.611  -9.059  0.00  0.00     0.251 C 
ENDROOT
BRANCH   7   8
HETATM    8  C           1     -22.661  -4.088  -7.864  0.00  0.00     0.284 C 
BRANCH   8   9
HETATM    9  N           1     -23.605  -4.548  -6.794  0.00  0.00    -0.066 N 
HETATM   10  H           1     -23.665  -5.591  -6.808  0.00  0.00     0.275 HD
HETATM   11  H           1     -23.255  -4.233  -5.862  0.00  0.00     0.275 HD
HETATM   12  H           1     -24.552  -4.142  -6.967  0.00  0.00     0.275 HD
ENDBRANCH   8   9
BRANCH   8  13
HETATM   13  C           1     -21.761  -5.244  -8.278  0.00  0.00     0.155 C 
BRANCH  13  14
HETATM   14  C           1     -20.711  -5.473  -7.218  0.00  0.00     0.175 C 
HETATM   15  O           1     -20.468  -4.581  -6.377  0.00  0.00    -0.648 OA
HETATM   16  O           1     -20.084  -6.554  -7.183  0.00  0.00    -0.648 OA
ENDBRANCH  13  14
ENDBRANCH   8  13
ENDBRANCH   7   8
BRANCH   5  17
HETATM   17  C           1     -23.827  -4.296 -12.403  0.00  0.00     0.196 C 
HETATM   18  O           1     -24.217  -4.122 -13.577  0.00  0.00    -0.646 OA
HETATM   19  O           1     -23.742  -5.452 -11.937  0.00  0.00    -0.646 OA
ENDBRANCH   5  17
TORSDOF 5
ENDMDL
MODEL 7
REMARK VINA RESULT:      -5.0      8.088     10.594
REMARK  5 active torsions:
REMARK  status: ('A' for Active; 'I' for Inactive)
REMARK    1  A    between atoms: C_5  and  C_19 
REMARK    2  A    between atoms: N_8  and  C_18 
REMARK    3  A    between atoms: C_13  and  C_15 
REMARK       I    between atoms: N_16  and  C_17 
REMARK    4  A    between atoms: C_17  and  C_18 
REMARK    5  A    between atoms: C_18  and  C_19 
ROOT
HETATM    1  C           1     -20.483  -7.858  -2.235  0.00  0.00     0.038 C 
HETATM    2  O           1     -20.991 -10.111   1.147  0.00  0.00    -0.271 OA
HETATM    3  C           1     -22.000  -9.738  -2.302  0.00  0.00     0.127 C 
HETATM    4  C           1     -21.047  -8.928  -3.163  0.00  0.00     0.022 C 
HETATM    5  C           1     -21.151  -8.107  -0.893  0.00  0.00     0.188 C 
HETATM    6  N           1     -21.513  -9.521  -0.942  0.00  0.00    -0.336 N 
HETATM    7  C           1     -21.417 -10.442   0.066  0.00  0.00     0.251 C 
ENDROOT
BRANCH   7   8
HETATM    8  C           1     -21.843 -11.870  -0.173  0.00  0.00     0.284 C 
BRANCH   8   9
HETATM    9  N           1     -20.905 -12.796   0.541  0.00  0.00    -0.066 N 
HETATM   10  H           1     -20.119 -12.245   0.954  0.00  0.00     0.275 HD
HETATM   11  H           1     -21.420 -13.292   1.304  0.00  0.00     0.275 HD
HETATM   12  H           1     -20.523 -13.495  -0.135  0.00  0.00     0.275 HD
ENDBRANCH   8   9
BRANCH   8  13
HETATM   13  C           1     -23.257 -12.073   0.355  0.00  0.00     0.155 C 
BRANCH  13  14
HETATM   14  C           1     -23.387 -13.463   0.927  0.00  0.00     0.175 C 
HETATM   15  O           1     -23.429 -13.629   2.165  0.00  0.00    -0.648 OA
HETATM   16  O           1     -23.453 -14.449   0.162  0.00  0.00    -0.648 OA
ENDBRANCH  13  14
ENDBRANCH   8  13
ENDBRANCH   7   8
BRANCH   5  17
HETATM   17  C           1     -22.377  -7.243  -0.734  0.00  0.00     0.196 C 
HETATM   18  O           1     -23.230  -7.522   0.137  0.00  0.00    -0.646 OA
HETATM   19  O           1     -22.540  -6.248  -1.472  0.00  0.00    -0.646 OA
ENDBRANCH   5  17
TORSDOF 5
ENDMDL
MODEL 8
REMARK VINA RESULT:      -4.8      6.303      9.862
REMARK  5 active torsions:
REMARK  status: ('A' for Active; 'I' for Inactive)
REMARK    1  A    between atoms: C_5  and  C_19 
REMARK    2  A    between atoms: N_8  and  C_18 
REMARK    3  A    between atoms: C_13  and  C_15 
REMARK       I    between atoms: N_16  and  C_17 
REMARK    4  A    between atoms: C_17  and  C_18 
REMARK    5  A    between atoms: C_18  and  C_19 
ROOT
HETATM    1  C           1     -23.689 -10.912  -0.024  0.00  0.00     0.038 C 
HETATM    2  O           1     -21.236  -7.714  -0.752  0.00  0.00    -0.271 OA
HETATM    3  C           1     -22.568 -10.764  -2.159  0.00  0.00     0.127 C 
HETATM    4  C           1     -23.837 -11.273  -1.498  0.00  0.00     0.022 C 
HETATM    5  C           1     -22.340 -10.222   0.081  0.00  0.00     0.188 C 
HETATM    6  N           1     -22.107  -9.705  -1.265  0.00  0.00    -0.336 N 
HETATM    7  C           1     -21.575  -8.493  -1.612  0.00  0.00     0.251 C 
ENDROOT
BRANCH   7   8
HETATM    8  C           1     -21.409  -8.131  -3.067  0.00  0.00     0.284 C 
BRANCH   8   9
HETATM    9  N           1     -21.564  -6.648  -3.232  0.00  0.00    -0.066 N 
HETATM   10  H           1     -20.994  -6.327  -4.048  0.00  0.00     0.275 HD
HETATM   11  H           1     -22.569  -6.419  -3.399  0.00  0.00     0.275 HD
HETATM   12  H           1     -21.235  -6.165  -2.366  0.00  0.00     0.275 HD
ENDBRANCH   8   9
BRANCH   8  13
HETATM   13  C           1     -20.025  -8.552  -3.542  0.00  0.00     0.155 C 
BRANCH  13  14
HETATM   14  C           1     -20.018  -8.660  -5.047  0.00  0.00     0.175 C 
HETATM   15  O           1     -21.074  -8.482  -5.692  0.00  0.00    -0.648 OA
HETATM   16  O           1     -18.956  -8.927  -5.649  0.00  0.00    -0.648 OA
ENDBRANCH  13  14
ENDBRANCH   8  13
ENDBRANCH   7   8
BRANCH   5  17
HETATM   17  C           1     -21.263 -11.205   0.473  0.00  0.00     0.196 C 
HETATM   18  O           1     -20.059 -10.914   0.304  0.00  0.00    -0.646 OA
HETATM   19  O           1     -21.576 -12.309   0.967  0.00  0.00    -0.646 OA
ENDBRANCH   5  17
TORSDOF 5
ENDMDL
MODEL 9
REMARK VINA RESULT:      -4.8      4.193      8.257
REMARK  5 active torsions:
REMARK  status: ('A' for Active; 'I' for Inactive)
REMARK    1  A    between atoms: C_5  and  C_19 
REMARK    2  A    between atoms: N_8  and  C_18 
REMARK    3  A    between atoms: C_13  and  C_15 
REMARK       I    between atoms: N_16  and  C_17 
REMARK    4  A    between atoms: C_17  and  C_18 
REMARK    5  A    between atoms: C_18  and  C_19 
ROOT
HETATM    1  C           1     -22.382 -10.500  -1.451  0.00  0.00     0.038 C 
HETATM    2  O           1     -21.099  -6.837  -2.760  0.00  0.00    -0.271 OA
HETATM    3  C           1     -21.933 -10.193  -3.806  0.00  0.00     0.127 C 
HETATM    4  C           1     -22.813 -10.965  -2.838  0.00  0.00     0.022 C 
HETATM    5  C           1     -21.273  -9.492  -1.700  0.00  0.00     0.188 C 
HETATM    6  N           1     -21.539  -9.007  -3.051  0.00  0.00    -0.336 N 
HETATM    7  C           1     -21.441  -7.721  -3.509  0.00  0.00     0.251 C 
ENDROOT
BRANCH   7   8
HETATM    8  C           1     -21.760  -7.408  -4.951  0.00  0.00     0.284 C 
BRANCH   8   9
HETATM    9  N           1     -22.645  -6.199  -5.014  0.00  0.00    -0.066 N 
HETATM   10  H           1     -23.544  -6.450  -5.483  0.00  0.00     0.275 HD
HETATM   11  H           1     -22.841  -5.860  -4.045  0.00  0.00     0.275 HD
HETATM   12  H           1     -22.167  -5.445  -5.558  0.00  0.00     0.275 HD
ENDBRANCH   8   9
BRANCH   8  13
HETATM   13  C           1     -20.467  -7.130  -5.707  0.00  0.00     0.155 C 
BRANCH  13  14
HETATM   14  C           1     -20.524  -5.749  -6.314  0.00  0.00     0.175 C 
HETATM   15  O           1     -20.122  -4.762  -5.661  0.00  0.00    -0.648 OA
HETATM   16  O           1     -20.974  -5.593  -7.470  0.00  0.00    -0.648 OA
ENDBRANCH  13  14
ENDBRANCH   8  13
ENDBRANCH   7   8
BRANCH   5  17
HETATM   17  C           1     -19.919 -10.154  -1.623  0.00  0.00     0.196 C 
HETATM   18  O           1     -19.762 -11.180  -0.927  0.00  0.00    -0.646 OA
HETATM   19  O           1     -18.954  -9.676  -2.258  0.00  0.00    -0.646 OA
ENDBRANCH   5  17
TORSDOF 5
ENDMDL
