MODEL 1
REMARK VINA RESULT:      -6.4      0.000      0.000
REMARK  10 active torsions:
REMARK  status: ('A' for Active; 'I' for Inactive)
REMARK    1  A    between atoms: C_1  and  C_6 
REMARK    2  A    between atoms: N_5  and  C_20 
REMARK       I    between atoms: N_5  and  C_24 
REMARK    3  A    between atoms: C_6  and  C_12 
REMARK    4  A    between atoms: C_7  and  C_16 
REMARK    5  A    between atoms: C_7  and  C_20 
REMARK    6  A    between atoms: C_8  and  N_15 
REMARK    7  A    between atoms: C_8  and  C_16 
REMARK    8  A    between atoms: C_12  and  C_24 
REMARK    9  A    between atoms: C_12  and  N_17 
REMARK   10  A    between atoms: C_14  and  C_20 
ROOT
HETATM    1  N           1     -22.146  -4.864  -8.852  0.00  0.00    -0.345 N 
HETATM    2  O           1     -21.520  -3.561  -7.149  0.00  0.00    -0.271 OA
HETATM    3  H           1     -22.210  -5.796  -9.240  0.00  0.00     0.163 HD
HETATM    4  C           1     -21.596  -4.674  -7.612  0.00  0.00     0.249 C 
ENDROOT
BRANCH   1   5
HETATM    5  C           1     -22.636  -3.729  -9.609  0.00  0.00     0.185 C 
BRANCH   5   6
HETATM    6  C           1     -22.000  -3.730 -10.993  0.00  0.00     0.038 C 
BRANCH   6   7
HETATM    7  C           1     -22.555  -2.569 -11.808  0.00  0.00     0.030 C 
BRANCH   7   8
HETATM    8  C           1     -22.830  -3.033 -13.232  0.00  0.00     0.230 C 
BRANCH   8   9
HETATM    9  N           1     -23.869  -4.115 -13.214  0.00  0.00    -0.079 N 
HETATM   10  H           1     -24.336  -4.134 -12.279  0.00  0.00     0.274 HD
HETATM   11  H           1     -23.415  -5.039 -13.395  0.00  0.00     0.274 HD
HETATM   12  H           1     -24.581  -3.926 -13.955  0.00  0.00     0.274 HD
ENDBRANCH   8   9
ENDBRANCH   7   8
ENDBRANCH   6   7
ENDBRANCH   5   6
BRANCH   5  13
HETATM   13  C           1     -24.136  -3.825  -9.744  0.00  0.00     0.196 C 
HETATM   14  O           1     -24.856  -2.854  -9.424  0.00  0.00    -0.646 OA
HETATM   15  O           1     -24.658  -4.875 -10.176  0.00  0.00    -0.646 OA
ENDBRANCH   5  13
ENDBRANCH   1   5
BRANCH   4  16
HETATM   16  C           1     -21.086  -5.856  -6.824  0.00  0.00     0.275 C 
BRANCH  16  17
HETATM   17  C           1     -20.934  -5.463  -5.361  0.00  0.00     0.046 C 
BRANCH  17  18
HETATM   18  C           1     -21.834  -6.341  -4.503  0.00  0.00    -0.020 C 
HETATM   19  C           1     -21.651  -7.800  -4.903  0.00  0.00     0.009 C 
HETATM   20  C           1     -21.464  -6.168  -3.036  0.00  0.00     0.009 C 
ENDBRANCH  17  18
ENDBRANCH  16  17
BRANCH  16  21
HETATM   21  N           1     -19.755  -6.281  -7.368  0.00  0.00    -0.066 N 
HETATM   22  H           1     -19.145  -5.443  -7.494  0.00  0.00     0.275 HD
HETATM   23  H           1     -19.301  -6.944  -6.700  0.00  0.00     0.275 HD
HETATM   24  H           1     -19.890  -6.754  -8.291  0.00  0.00     0.275 HD
ENDBRANCH  16  21
ENDBRANCH   4  16
TORSDOF 10
ENDMDL
MODEL 2
REMARK VINA RESULT:      -6.0      1.557      1.783
REMARK  10 active torsions:
REMARK  status: ('A' for Active; 'I' for Inactive)
REMARK    1  A    between atoms: C_1  and  C_6 
REMARK    2  A    between atoms: N_5  and  C_20 
REMARK       I    between atoms: N_5  and  C_24 
REMARK    3  A    between atoms: C_6  and  C_12 
REMARK    4  A    between atoms: C_7  and  C_16 
REMARK    5  A    between atoms: C_7  and  C_20 
REMARK    6  A    between atoms: C_8  and  N_15 
REMARK    7  A    between atoms: C_8  and  C_16 
REMARK    8  A    between atoms: C_12  and  C_24 
REMARK    9  A    between atoms: C_12  and  N_17 
REMARK   10  A    between atoms: C_14  and  C_20 
ROOT
HETATM    1  N           1     -23.422  -4.319  -8.596  0.00  0.00    -0.345 N 
HETATM    2  O           1     -21.307  -3.773  -8.127  0.00  0.00    -0.271 OA
HETATM    3  H           1     -24.287  -4.742  -8.286  0.00  0.00     0.163 HD
HETATM    4  C           1     -22.340  -4.279  -7.757  0.00  0.00     0.249 C 
ENDROOT
BRANCH   1   5
HETATM    5  C           1     -23.327  -3.756  -9.929  0.00  0.00     0.185 C 
BRANCH   5   6
HETATM    6  C           1     -22.906  -4.843 -10.909  0.00  0.00     0.038 C 
BRANCH   6   7
HETATM    7  C           1     -21.557  -4.485 -11.517  0.00  0.00     0.030 C 
BRANCH   7   8
HETATM    8  C           1     -21.627  -3.090 -12.126  0.00  0.00     0.230 C 
BRANCH   8   9
HETATM    9  N           1     -22.353  -3.154 -13.438  0.00  0.00    -0.079 N 
HETATM   10  H           1     -22.657  -2.193 -13.714  0.00  0.00     0.274 HD
HETATM   11  H           1     -23.191  -3.771 -13.344  0.00  0.00     0.274 HD
HETATM   12  H           1     -21.715  -3.542 -14.170  0.00  0.00     0.274 HD
ENDBRANCH   8   9
ENDBRANCH   7   8
ENDBRANCH   6   7
ENDBRANCH   5   6
BRANCH   5  13
HETATM   13  C           1     -24.670  -3.202 -10.337  0.00  0.00     0.196 C 
HETATM   14  O           1     -24.982  -3.149 -11.546  0.00  0.00    -0.646 OA
HETATM   15  O           1     -25.469  -2.799  -9.466  0.00  0.00    -0.646 OA
ENDBRANCH   5  13
ENDBRANCH   1   5
BRANCH   4  16
HETATM   16  C           1     -22.440  -4.864  -6.370  0.00  0.00     0.275 C 
BRANCH  16  17
HETATM   17  C           1     -21.554  -6.100  -6.275  0.00  0.00     0.046 C 
BRANCH  17  18
HETATM   18  C           1     -21.925  -6.898  -5.033  0.00  0.00    -0.020 C 
HETATM   19  C           1     -21.336  -8.299  -5.134  0.00  0.00     0.009 C 
HETATM   20  C           1     -21.368  -6.202  -3.798  0.00  0.00     0.009 C 
ENDBRANCH  17  18
ENDBRANCH  16  17
BRANCH  16  21
HETATM   21  N           1     -23.862  -5.247  -6.090  0.00  0.00    -0.066 N 
HETATM   22  H           1     -24.436  -5.115  -6.953  0.00  0.00     0.275 HD
HETATM   23  H           1     -23.902  -6.248  -5.796  0.00  0.00     0.275 HD
HETATM   24  H           1     -24.242  -4.642  -5.326  0.00  0.00     0.275 HD
ENDBRANCH  16  21
ENDBRANCH   4  16
TORSDOF 10
ENDMDL
MODEL 3
REMARK VINA RESULT:      -5.8      2.054      6.540
REMARK  10 active torsions:
REMARK  status: ('A' for Active; 'I' for Inactive)
REMARK    1  A    between atoms: C_1  and  C_6 
REMARK    2  A    between atoms: N_5  and  C_20 
REMARK       I    between atoms: N_5  and  C_24 
REMARK    3  A    between atoms: C_6  and  C_12 
REMARK    4  A    between atoms: C_7  and  C_16 
REMARK    5  A    between atoms: C_7  and  C_20 
REMARK    6  A    between atoms: C_8  and  N_15 
REMARK    7  A    between atoms: C_8  and  C_16 
REMARK    8  A    between atoms: C_12  and  C_24 
REMARK    9  A    between atoms: C_12  and  N_17 
REMARK   10  A    between atoms: C_14  and  C_20 
ROOT
HETATM    1  N           1     -21.981  -5.092  -7.154  0.00  0.00    -0.345 N 
HETATM    2  O           1     -21.812  -3.075  -8.097  0.00  0.00    -0.271 OA
HETATM    3  H           1     -22.470  -5.977  -7.103  0.00  0.00     0.163 HD
HETATM    4  C           1     -22.396  -4.131  -8.036  0.00  0.00     0.249 C 
ENDROOT
BRANCH   1   5
HETATM    5  C           1     -20.841  -4.843  -6.293  0.00  0.00     0.185 C 
BRANCH   5   6
HETATM    6  C           1     -21.033  -5.579  -4.973  0.00  0.00     0.038 C 
BRANCH   6   7
HETATM    7  C           1     -22.228  -6.517  -5.084  0.00  0.00     0.030 C 
BRANCH   7   8
HETATM    8  C           1     -21.808  -7.925  -4.683  0.00  0.00     0.230 C 
BRANCH   8   9
HETATM    9  N           1     -21.051  -8.562  -5.811  0.00  0.00    -0.079 N 
HETATM   10  H           1     -21.087  -9.601  -5.711  0.00  0.00     0.274 HD
HETATM   11  H           1     -20.056  -8.245  -5.786  0.00  0.00     0.274 HD
HETATM   12  H           1     -21.483  -8.283  -6.721  0.00  0.00     0.274 HD
ENDBRANCH   8   9
ENDBRANCH   7   8
ENDBRANCH   6   7
ENDBRANCH   5   6
BRANCH   5  13
HETATM   13  C           1     -19.585  -5.338  -6.967  0.00  0.00     0.196 C 
HETATM   14  O           1     -19.409  -6.564  -7.137  0.00  0.00    -0.646 OA
HETATM   15  O           1     -18.722  -4.523  -7.355  0.00  0.00    -0.646 OA
ENDBRANCH   5  13
ENDBRANCH   1   5
BRANCH   4  16
HETATM   16  C           1     -23.582  -4.390  -8.932  0.00  0.00     0.275 C 
BRANCH  16  17
HETATM   17  C           1     -23.098  -4.644 -10.354  0.00  0.00     0.046 C 
BRANCH  17  18
HETATM   18  C           1     -23.173  -3.351 -11.154  0.00  0.00    -0.020 C 
HETATM   19  C           1     -21.771  -2.938 -11.586  0.00  0.00     0.009 C 
HETATM   20  C           1     -24.039  -3.567 -12.388  0.00  0.00     0.009 C 
ENDBRANCH  17  18
ENDBRANCH  16  17
BRANCH  16  21
HETATM   21  N           1     -24.489  -3.196  -8.918  0.00  0.00    -0.066 N 
HETATM   22  H           1     -25.455  -3.494  -8.654  0.00  0.00     0.275 HD
HETATM   23  H           1     -24.137  -2.500  -8.224  0.00  0.00     0.275 HD
HETATM   24  H           1     -24.507  -2.762  -9.870  0.00  0.00     0.275 HD
ENDBRANCH  16  21
ENDBRANCH   4  16
TORSDOF 10
ENDMDL
MODEL 4
REMARK VINA RESULT:      -5.6      3.219      5.156
REMARK  10 active torsions:
REMARK  status: ('A' for Active; 'I' for Inactive)
REMARK    1  A    between atoms: C_1  and  C_6 
REMARK    2  A    between atoms: N_5  and  C_20 
REMARK       I    between atoms: N_5  and  C_24 
REMARK    3  A    between atoms: C_6  and  C_12 
REMARK    4  A    between atoms: C_7  and  C_16 
REMARK    5  A    between atoms: C_7  and  C_20 
REMARK    6  A    between atoms: C_8  and  N_15 
REMARK    7  A    between atoms: C_8  and  C_16 
REMARK    8  A    between atoms: C_12  and  C_24 
REMARK    9  A    between atoms: C_12  and  N_17 
REMARK   10  A    between atoms: C_14  and  C_20 
ROOT
HETATM    1  N           1     -21.473  -5.841  -4.534  0.00  0.00    -0.345 N 
HETATM    2  O           1     -21.246  -8.040  -4.216  0.00  0.00    -0.271 OA
HETATM    3  H           1     -21.574  -4.921  -4.125  0.00  0.00     0.163 HD
HETATM    4  C           1     -21.367  -6.942  -3.727  0.00  0.00     0.249 C 
ENDROOT
BRANCH   1   5
HETATM    5  C           1     -21.441  -5.993  -5.976  0.00  0.00     0.185 C 
BRANCH   5   6
HETATM    6  C           1     -22.301  -4.912  -6.619  0.00  0.00     0.038 C 
BRANCH   6   7
HETATM    7  C           1     -22.161  -4.985  -8.133  0.00  0.00     0.030 C 
BRANCH   7   8
HETATM    8  C           1     -22.689  -3.699  -8.756  0.00  0.00     0.230 C 
BRANCH   8   9
HETATM    9  N           1     -24.182  -3.652  -8.615  0.00  0.00    -0.079 N 
HETATM   10  H           1     -24.532  -4.588  -8.308  0.00  0.00     0.274 HD
HETATM   11  H           1     -24.612  -3.406  -9.536  0.00  0.00     0.274 HD
HETATM   12  H           1     -24.442  -2.931  -7.905  0.00  0.00     0.274 HD
ENDBRANCH   8   9
ENDBRANCH   7   8
ENDBRANCH   6   7
ENDBRANCH   5   6
BRANCH   5  13
HETATM   13  C           1     -20.019  -5.862  -6.464  0.00  0.00     0.196 C 
HETATM   14  O           1     -19.448  -6.840  -6.992  0.00  0.00    -0.646 OA
HETATM   15  O           1     -19.415  -4.776  -6.341  0.00  0.00    -0.646 OA
ENDBRANCH   5  13
ENDBRANCH   1   5
BRANCH   4  16
HETATM   16  C           1     -21.400  -6.783  -2.227  0.00  0.00     0.275 C 
BRANCH  16  17
HETATM   17  C           1     -21.904  -8.072  -1.591  0.00  0.00     0.046 C 
BRANCH  17  18
HETATM   18  C           1     -21.911  -7.922  -0.076  0.00  0.00    -0.020 C 
HETATM   19  C           1     -23.329  -8.114   0.448  0.00  0.00     0.009 C 
HETATM   20  C           1     -20.996  -8.971   0.541  0.00  0.00     0.009 C 
ENDBRANCH  17  18
ENDBRANCH  16  17
BRANCH  16  21
HETATM   21  N           1     -22.317  -5.654  -1.864  0.00  0.00    -0.066 N 
HETATM   22  H           1     -23.076  -6.007  -1.239  0.00  0.00     0.275 HD
HETATM   23  H           1     -21.776  -4.911  -1.369  0.00  0.00     0.275 HD
HETATM   24  H           1     -22.741  -5.257  -2.734  0.00  0.00     0.275 HD
ENDBRANCH  16  21
ENDBRANCH   4  16
TORSDOF 10
ENDMDL
MODEL 5
REMARK VINA RESULT:      -5.4      2.485      7.267
REMARK  10 active torsions:
REMARK  status: ('A' for Active; 'I' for Inactive)
REMARK    1  A    between atoms: C_1  and  C_6 
REMARK    2  A    between atoms: N_5  and  C_20 
REMARK       I    between atoms: N_5  and  C_24 
REMARK    3  A    between atoms: C_6  and  C_12 
REMARK    4  A    between atoms: C_7  and  C_16 
REMARK    5  A    between atoms: C_7  and  C_20 
REMARK    6  A    between atoms: C_8  and  N_15 
REMARK    7  A    between atoms: C_8  and  C_16 
REMARK    8  A    between atoms: C_12  and  C_24 
REMARK    9  A    between atoms: C_12  and  N_17 
REMARK   10  A    between atoms: C_14  and  C_20 
ROOT
HETATM    1  N           1     -21.908  -5.981  -6.551  0.00  0.00    -0.345 N 
HETATM    2  O           1     -21.164  -3.893  -6.828  0.00  0.00    -0.271 OA
HETATM    3  H           1     -22.492  -6.735  -6.889  0.00  0.00     0.163 HD
HETATM    4  C           1     -21.861  -4.794  -7.231  0.00  0.00     0.249 C 
ENDROOT
BRANCH   1   5
HETATM    5  C           1     -21.121  -6.158  -5.346  0.00  0.00     0.185 C 
BRANCH   5   6
HETATM    6  C           1     -22.025  -6.632  -4.216  0.00  0.00     0.038 C 
BRANCH   6   7
HETATM    7  C           1     -21.537  -6.051  -2.896  0.00  0.00     0.030 C 
BRANCH   7   8
HETATM    8  C           1     -21.665  -7.099  -1.799  0.00  0.00     0.230 C 
BRANCH   8   9
HETATM    9  N           1     -20.447  -7.975  -1.798  0.00  0.00    -0.079 N 
HETATM   10  H           1     -20.520  -8.672  -1.023  0.00  0.00     0.274 HD
HETATM   11  H           1     -19.595  -7.386  -1.657  0.00  0.00     0.274 HD
HETATM   12  H           1     -20.378  -8.475  -2.712  0.00  0.00     0.274 HD
ENDBRANCH   8   9
ENDBRANCH   7   8
ENDBRANCH   6   7
ENDBRANCH   5   6
BRANCH   5  13
HETATM   13  C           1     -20.045  -7.185  -5.595  0.00  0.00     0.196 C 
HETATM   14  O           1     -19.403  -7.170  -6.667  0.00  0.00    -0.646 OA
HETATM   15  O           1     -19.795  -8.050  -4.729  0.00  0.00    -0.646 OA
ENDBRANCH   5  13
ENDBRANCH   1   5
BRANCH   4  16
HETATM   16  C           1     -22.680  -4.611  -8.486  0.00  0.00     0.275 C 
BRANCH  16  17
HETATM   17  C           1     -21.808  -4.003  -9.577  0.00  0.00     0.046 C 
BRANCH  17  18
HETATM   18  C           1     -22.685  -3.560 -10.740  0.00  0.00    -0.020 C 
HETATM   19  C           1     -21.862  -2.715 -11.705  0.00  0.00     0.009 C 
HETATM   20  C           1     -23.218  -4.786 -11.469  0.00  0.00     0.009 C 
ENDBRANCH  17  18
ENDBRANCH  16  17
BRANCH  16  21
HETATM   21  N           1     -23.833  -3.696  -8.200  0.00  0.00    -0.066 N 
HETATM   22  H           1     -23.494  -2.708  -8.159  0.00  0.00     0.275 HD
HETATM   23  H           1     -24.546  -3.787  -8.958  0.00  0.00     0.275 HD
HETATM   24  H           1     -24.263  -3.953  -7.282  0.00  0.00     0.275 HD
ENDBRANCH  16  21
ENDBRANCH   4  16
TORSDOF 10
ENDMDL
MODEL 6
REMARK VINA RESULT:      -5.4      3.317      4.580
REMARK  10 active torsions:
REMARK  status: ('A' for Active; 'I' for Inactive)
REMARK    1  A    between atoms: C_1  and  C_6 
REMARK    2  A    between atoms: N_5  and  C_20 
REMARK       I    between atoms: N_5  and  C_24 
REMARK    3  A    between atoms: C_6  and  C_12 
REMARK    4  A    between atoms: C_7  and  C_16 
REMARK    5  A    between atoms: C_7  and  C_20 
REMARK    6  A    between atoms: C_8  and  N_15 
REMARK    7  A    between atoms: C_8  and  C_16 
REMARK    8  A    between atoms: C_12  and  C_24 
REMARK    9  A    between atoms: C_12  and  N_17 
REMARK   10  A    between atoms: C_14  and  C_20 
ROOT
HETATM    1  N           1     -22.097  -3.195 -12.644  0.00  0.00    -0.345 N 
HETATM    2  O           1     -22.242  -5.244 -11.766  0.00  0.00    -0.271 OA
HETATM    3  H           1     -21.567  -2.339 -12.739  0.00  0.00     0.163 HD
HETATM    4  C           1     -21.609  -4.221 -11.879  0.00  0.00     0.249 C 
ENDROOT
BRANCH   1   5
HETATM    5  C           1     -23.373  -3.337 -13.318  0.00  0.00     0.185 C 
BRANCH   5   6
HETATM    6  C           1     -24.495  -2.949 -12.364  0.00  0.00     0.038 C 
BRANCH   6   7
HETATM    7  C           1     -23.932  -2.780 -10.960  0.00  0.00     0.030 C 
BRANCH   7   8
HETATM    8  C           1     -24.931  -3.318  -9.943  0.00  0.00     0.230 C 
BRANCH   8   9
HETATM    9  N           1     -24.734  -4.797  -9.783  0.00  0.00    -0.079 N 
HETATM   10  H           1     -23.723  -4.997  -9.614  0.00  0.00     0.274 HD
HETATM   11  H           1     -25.045  -5.286 -10.652  0.00  0.00     0.274 HD
HETATM   12  H           1     -25.298  -5.137  -8.971  0.00  0.00     0.274 HD
ENDBRANCH   8   9
ENDBRANCH   7   8
ENDBRANCH   6   7
ENDBRANCH   5   6
BRANCH   5  13
HETATM   13  C           1     -23.405  -2.434 -14.527  0.00  0.00     0.196 C 
HETATM   14  O           1     -24.240  -1.505 -14.590  0.00  0.00    -0.646 OA
HETATM   15  O           1     -22.598  -2.614 -15.463  0.00  0.00    -0.646 OA
ENDBRANCH   5  13
ENDBRANCH   1   5
BRANCH   4  16
HETATM   16  C           1     -20.281  -4.073 -11.178  0.00  0.00     0.275 C 
BRANCH  16  17
HETATM   17  C           1     -20.308  -4.852  -9.869  0.00  0.00     0.046 C 
BRANCH  17  18
HETATM   18  C           1     -20.327  -3.878  -8.699  0.00  0.00    -0.020 C 
HETATM   19  C           1     -21.704  -3.893  -8.048  0.00  0.00     0.009 C 
HETATM   20  C           1     -19.278  -4.294  -7.677  0.00  0.00     0.009 C 
ENDBRANCH  17  18
ENDBRANCH  16  17
BRANCH  16  21
HETATM   21  N           1     -20.026  -2.624 -10.892  0.00  0.00    -0.066 N 
HETATM   22  H           1     -20.626  -2.034 -11.512  0.00  0.00     0.275 HD
HETATM   23  H           1     -20.253  -2.421  -9.893  0.00  0.00     0.275 HD
HETATM   24  H           1     -19.019  -2.405 -11.073  0.00  0.00     0.275 HD
ENDBRANCH  16  21
ENDBRANCH   4  16
TORSDOF 10
ENDMDL
MODEL 7
REMARK VINA RESULT:      -5.4      2.239      2.824
REMARK  10 active torsions:
REMARK  status: ('A' for Active; 'I' for Inactive)
REMARK    1  A    between atoms: C_1  and  C_6 
REMARK    2  A    between atoms: N_5  and  C_20 
REMARK       I    between atoms: N_5  and  C_24 
REMARK    3  A    between atoms: C_6  and  C_12 
REMARK    4  A    between atoms: C_7  and  C_16 
REMARK    5  A    between atoms: C_7  and  C_20 
REMARK    6  A    between atoms: C_8  and  N_15 
REMARK    7  A    between atoms: C_8  and  C_16 
REMARK    8  A    between atoms: C_12  and  C_24 
REMARK    9  A    between atoms: C_12  and  N_17 
REMARK   10  A    between atoms: C_14  and  C_20 
ROOT
HETATM    1  N           1     -21.844  -4.787  -7.286  0.00  0.00    -0.345 N 
HETATM    2  O           1     -20.868  -6.794  -7.198  0.00  0.00    -0.271 OA
HETATM    3  H           1     -22.264  -4.015  -6.785  0.00  0.00     0.163 HD
HETATM    4  C           1     -21.370  -5.872  -6.599  0.00  0.00     0.249 C 
ENDROOT
BRANCH   1   5
HETATM    5  C           1     -21.744  -4.744  -8.733  0.00  0.00     0.185 C 
BRANCH   5   6
HETATM    6  C           1     -22.715  -3.704  -9.276  0.00  0.00     0.038 C 
BRANCH   6   7
HETATM    7  C           1     -23.239  -4.158 -10.632  0.00  0.00     0.030 C 
BRANCH   7   8
HETATM    8  C           1     -22.818  -3.158 -11.701  0.00  0.00     0.230 C 
BRANCH   8   9
HETATM    9  N           1     -21.700  -3.738 -12.517  0.00  0.00    -0.079 N 
HETATM   10  H           1     -22.049  -4.572 -13.042  0.00  0.00     0.274 HD
HETATM   11  H           1     -20.921  -4.028 -11.884  0.00  0.00     0.274 HD
HETATM   12  H           1     -21.353  -3.020 -13.192  0.00  0.00     0.274 HD
ENDBRANCH   8   9
ENDBRANCH   7   8
ENDBRANCH   6   7
ENDBRANCH   5   6
BRANCH   5  13
HETATM   13  C           1     -20.336  -4.374  -9.128  0.00  0.00     0.196 C 
HETATM   14  O           1     -19.645  -3.654  -8.376  0.00  0.00    -0.646 OA
HETATM   15  O           1     -19.861  -4.789 -10.206  0.00  0.00    -0.646 OA
ENDBRANCH   5  13
ENDBRANCH   1   5
BRANCH   4  16
HETATM   16  C           1     -21.473  -5.917  -5.094  0.00  0.00     0.275 C 
BRANCH  16  17
HETATM   17  C           1     -20.595  -7.039  -4.558  0.00  0.00     0.046 C 
BRANCH  17  18
HETATM   18  C           1     -21.462  -8.063  -3.838  0.00  0.00    -0.020 C 
HETATM   19  C           1     -21.323  -9.417  -4.522  0.00  0.00     0.009 C 
HETATM   20  C           1     -21.011  -8.179  -2.388  0.00  0.00     0.009 C 
ENDBRANCH  17  18
ENDBRANCH  16  17
BRANCH  16  21
HETATM   21  N           1     -22.899  -6.165  -4.699  0.00  0.00    -0.066 N 
HETATM   22  H           1     -23.447  -5.281  -4.797  0.00  0.00     0.275 HD
HETATM   23  H           1     -23.308  -6.899  -5.318  0.00  0.00     0.275 HD
HETATM   24  H           1     -22.933  -6.487  -3.705  0.00  0.00     0.275 HD
ENDBRANCH  16  21
ENDBRANCH   4  16
TORSDOF 10
ENDMDL
MODEL 8
REMARK VINA RESULT:      -5.3      3.272      7.151
REMARK  10 active torsions:
REMARK  status: ('A' for Active; 'I' for Inactive)
REMARK    1  A    between atoms: C_1  and  C_6 
REMARK    2  A    between atoms: N_5  and  C_20 
REMARK       I    between atoms: N_5  and  C_24 
REMARK    3  A    between atoms: C_6  and  C_12 
REMARK    4  A    between atoms: C_7  and  C_16 
REMARK    5  A    between atoms: C_7  and  C_20 
REMARK    6  A    between atoms: C_8  and  N_15 
REMARK    7  A    between atoms: C_8  and  C_16 
REMARK    8  A    between atoms: C_12  and  C_24 
REMARK    9  A    between atoms: C_12  and  N_17 
REMARK   10  A    between atoms: C_14  and  C_20 
ROOT
HETATM    1  N           1     -21.089  -6.181  -5.873  0.00  0.00    -0.345 N 
HETATM    2  O           1     -19.897  -4.447  -5.123  0.00  0.00    -0.271 OA
HETATM    3  H           1     -21.616  -6.596  -6.630  0.00  0.00     0.163 HD
HETATM    4  C           1     -20.526  -4.943  -6.028  0.00  0.00     0.249 C 
ENDROOT
BRANCH   1   5
HETATM    5  C           1     -20.931  -6.897  -4.622  0.00  0.00     0.185 C 
BRANCH   5   6
HETATM    6  C           1     -22.148  -6.650  -3.739  0.00  0.00     0.038 C 
BRANCH   6   7
HETATM    7  C           1     -21.699  -6.053  -2.412  0.00  0.00     0.030 C 
BRANCH   7   8
HETATM    8  C           1     -22.291  -6.861  -1.264  0.00  0.00     0.230 C 
BRANCH   8   9
HETATM    9  N           1     -21.869  -8.295  -1.393  0.00  0.00    -0.079 N 
HETATM   10  H           1     -20.954  -8.345  -1.896  0.00  0.00     0.274 HD
HETATM   11  H           1     -22.591  -8.824  -1.932  0.00  0.00     0.274 HD
HETATM   12  H           1     -21.767  -8.714  -0.441  0.00  0.00     0.274 HD
ENDBRANCH   8   9
ENDBRANCH   7   8
ENDBRANCH   6   7
ENDBRANCH   5   6
BRANCH   5  13
HETATM   13  C           1     -20.805  -8.375  -4.902  0.00  0.00     0.196 C 
HETATM   14  O           1     -21.567  -9.186  -4.332  0.00  0.00    -0.646 OA
HETATM   15  O           1     -19.940  -8.787  -5.703  0.00  0.00    -0.646 OA
ENDBRANCH   5  13
ENDBRANCH   1   5
BRANCH   4  16
HETATM   16  C           1     -20.690  -4.197  -7.330  0.00  0.00     0.275 C 
BRANCH  16  17
HETATM   17  C           1     -21.727  -4.905  -8.193  0.00  0.00     0.046 C 
BRANCH  17  18
HETATM   18  C           1     -22.330  -3.913  -9.179  0.00  0.00    -0.020 C 
HETATM   19  C           1     -21.894  -4.274 -10.593  0.00  0.00     0.009 C 
HETATM   20  C           1     -23.849  -3.966  -9.087  0.00  0.00     0.009 C 
ENDBRANCH  17  18
ENDBRANCH  16  17
BRANCH  16  21
HETATM   21  N           1     -19.378  -4.162  -8.054  0.00  0.00    -0.066 N 
HETATM   22  H           1     -19.273  -5.028  -8.629  0.00  0.00     0.275 HD
HETATM   23  H           1     -19.346  -3.325  -8.677  0.00  0.00     0.275 HD
HETATM   24  H           1     -18.598  -4.111  -7.359  0.00  0.00     0.275 HD
ENDBRANCH  16  21
ENDBRANCH   4  16
TORSDOF 10
ENDMDL
MODEL 9
REMARK VINA RESULT:      -5.3      3.198      7.321
REMARK  10 active torsions:
REMARK  status: ('A' for Active; 'I' for Inactive)
REMARK    1  A    between atoms: C_1  and  C_6 
REMARK    2  A    between atoms: N_5  and  C_20 
REMARK       I    between atoms: N_5  and  C_24 
REMARK    3  A    between atoms: C_6  and  C_12 
REMARK    4  A    between atoms: C_7  and  C_16 
REMARK    5  A    between atoms: C_7  and  C_20 
REMARK    6  A    between atoms: C_8  and  N_15 
REMARK    7  A    between atoms: C_8  and  C_16 
REMARK    8  A    between atoms: C_12  and  C_24 
REMARK    9  A    between atoms: C_12  and  N_17 
REMARK   10  A    between atoms: C_14  and  C_20 
ROOT
HETATM    1  N           1     -20.977  -6.503  -4.811  0.00  0.00    -0.345 N 
HETATM    2  O           1     -22.936  -5.784  -5.607  0.00  0.00    -0.271 OA
HETATM    3  H           1     -19.967  -6.440  -4.833  0.00  0.00     0.163 HD
HETATM    4  C           1     -21.730  -5.710  -5.634  0.00  0.00     0.249 C 
ENDROOT
BRANCH   1   5
HETATM    5  C           1     -21.625  -7.433  -3.907  0.00  0.00     0.185 C 
BRANCH   5   6
HETATM    6  C           1     -20.903  -8.773  -3.956  0.00  0.00     0.038 C 
BRANCH   6   7
HETATM    7  C           1     -19.659  -8.648  -4.826  0.00  0.00     0.030 C 
BRANCH   7   8
HETATM    8  C           1     -18.481  -9.317  -4.129  0.00  0.00     0.230 C 
BRANCH   8   9
HETATM    9  N           1     -18.681  -9.261  -2.643  0.00  0.00    -0.079 N 
HETATM   10  H           1     -17.786  -9.507  -2.162  0.00  0.00     0.274 HD
HETATM   11  H           1     -19.424  -9.942  -2.365  0.00  0.00     0.274 HD
HETATM   12  H           1     -18.972  -8.296  -2.368  0.00  0.00     0.274 HD
ENDBRANCH   8   9
ENDBRANCH   7   8
ENDBRANCH   6   7
ENDBRANCH   5   6
BRANCH   5  13
HETATM   13  C           1     -21.576  -6.886  -2.502  0.00  0.00     0.196 C 
HETATM   14  O           1     -22.281  -5.901  -2.191  0.00  0.00    -0.646 OA
HETATM   15  O           1     -20.833  -7.417  -1.650  0.00  0.00    -0.646 OA
ENDBRANCH   5  13
ENDBRANCH   1   5
BRANCH   4  16
HETATM   16  C           1     -21.055  -4.741  -6.573  0.00  0.00     0.275 C 
BRANCH  16  17
HETATM   17  C           1     -21.288  -5.183  -8.012  0.00  0.00     0.046 C 
BRANCH  17  18
HETATM   18  C           1     -21.752  -3.993  -8.841  0.00  0.00    -0.020 C 
HETATM   19  C           1     -21.139  -4.072 -10.233  0.00  0.00     0.009 C 
HETATM   20  C           1     -23.271  -4.016  -8.954  0.00  0.00     0.009 C 
ENDBRANCH  17  18
ENDBRANCH  16  17
BRANCH  16  21
HETATM   21  N           1     -19.582  -4.715  -6.291  0.00  0.00    -0.066 N 
HETATM   22  H           1     -19.394  -4.087  -5.477  0.00  0.00     0.275 HD
HETATM   23  H           1     -19.254  -5.681  -6.067  0.00  0.00     0.275 HD
HETATM   24  H           1     -19.072  -4.358  -7.131  0.00  0.00     0.275 HD
ENDBRANCH  16  21
ENDBRANCH   4  16
TORSDOF 10
ENDMDL
