MODEL 1
REMARK VINA RESULT:      -5.4      0.000      0.000
REMARK  4 active torsions:
REMARK  status: ('A' for Active; 'I' for Inactive)
REMARK       I    between atoms: C_2  and  N_14 
REMARK    1  A    between atoms: C_2  and  C_3 
REMARK    2  A    between atoms: C_3  and  N_5 
REMARK    3  A    between atoms: C_11  and  C_13 
REMARK    4  A    between atoms: C_13  and  N_14 
ROOT
HETATM    1  C           1     -29.332  -6.716 -16.896  0.00  0.00     0.248 C 
HETATM    2  O           1     -29.650  -5.806 -16.168  0.00  0.00    -0.271 OA
HETATM    3  H           1     -27.949  -8.221 -17.226  0.00  0.00     0.163 HD
HETATM    4  N           1     -28.216  -7.458 -16.616  0.00  0.00    -0.349 N 
ENDROOT
BRANCH   1   5
HETATM    5  C           1     -30.164  -7.034 -18.115  0.00  0.00     0.270 C 
HETATM    6  C           1     -31.637  -7.072 -17.729  0.00  0.00     0.050 C 
BRANCH   5   7
HETATM    7  N           1     -29.757  -8.370 -18.661  0.00  0.00    -0.067 N 
HETATM    8  H           1     -29.429  -8.982 -17.880  0.00  0.00     0.275 HD
HETATM    9  H           1     -30.575  -8.818 -19.133  0.00  0.00     0.275 HD
HETATM   10  H           1     -28.984  -8.242 -19.353  0.00  0.00     0.275 HD
ENDBRANCH   5   7
ENDBRANCH   1   5
BRANCH   4  11
HETATM   11  C           1     -27.417  -7.152 -15.445  0.00  0.00     0.235 C 
BRANCH  11  12
HETATM   12  C           1     -26.014  -6.796 -15.871  0.00  0.00     0.191 C 
HETATM   13  O           1     -25.042  -7.440 -15.420  0.00  0.00    -0.647 OA
HETATM   14  O           1     -25.824  -5.859 -16.675  0.00  0.00    -0.647 OA
ENDBRANCH  11  12
ENDBRANCH   4  11
TORSDOF 4
ENDMDL
MODEL 2
REMARK VINA RESULT:      -5.4      7.548      8.927
REMARK  4 active torsions:
REMARK  status: ('A' for Active; 'I' for Inactive)
REMARK       I    between atoms: C_2  and  N_14 
REMARK    1  A    between atoms: C_2  and  C_3 
REMARK    2  A    between atoms: C_3  and  N_5 
REMARK    3  A    between atoms: C_11  and  C_13 
REMARK    4  A    between atoms: C_13  and  N_14 
ROOT
HETATM    1  C           1     -24.106  -3.291 -10.429  0.00  0.00     0.248 C 
HETATM    2  O           1     -25.302  -3.270 -10.263  0.00  0.00    -0.271 OA
HETATM    3  H           1     -22.584  -3.133 -11.824  0.00  0.00     0.163 HD
HETATM    4  N           1     -23.586  -3.116 -11.683  0.00  0.00    -0.349 N 
ENDROOT
BRANCH   1   5
HETATM    5  C           1     -23.184  -3.510  -9.254  0.00  0.00     0.270 C 
HETATM    6  C           1     -22.092  -4.498  -9.642  0.00  0.00     0.050 C 
BRANCH   5   7
HETATM    7  N           1     -23.968  -4.060  -8.101  0.00  0.00    -0.067 N 
HETATM    8  H           1     -24.987  -3.884  -8.256  0.00  0.00     0.275 HD
HETATM    9  H           1     -23.801  -5.088  -8.024  0.00  0.00     0.275 HD
HETATM   10  H           1     -23.664  -3.590  -7.218  0.00  0.00     0.275 HD
ENDBRANCH   5   7
ENDBRANCH   1   5
BRANCH   4  11
HETATM   11  C           1     -24.472  -2.905 -12.813  0.00  0.00     0.235 C 
BRANCH  11  12
HETATM   12  C           1     -23.680  -2.379 -13.984  0.00  0.00     0.191 C 
HETATM   13  O           1     -24.112  -1.410 -14.645  0.00  0.00    -0.647 OA
HETATM   14  O           1     -22.592  -2.911 -14.292  0.00  0.00    -0.647 OA
ENDBRANCH  11  12
ENDBRANCH   4  11
TORSDOF 4
ENDMDL
MODEL 3
REMARK VINA RESULT:      -5.2      7.753      8.905
REMARK  4 active torsions:
REMARK  status: ('A' for Active; 'I' for Inactive)
REMARK       I    between atoms: C_2  and  N_14 
REMARK    1  A    between atoms: C_2  and  C_3 
REMARK    2  A    between atoms: C_3  and  N_5 
REMARK    3  A    between atoms: C_11  and  C_13 
REMARK    4  A    between atoms: C_13  and  N_14 
ROOT
HETATM    1  C           1     -23.009  -3.759 -10.596  0.00  0.00     0.248 C 
HETATM    2  O           1     -22.105  -4.561 -10.608  0.00  0.00    -0.271 OA
HETATM    3  H           1     -24.012  -2.317 -11.691  0.00  0.00     0.163 HD
HETATM    4  N           1     -23.254  -2.989 -11.700  0.00  0.00    -0.349 N 
ENDROOT
BRANCH   1   5
HETATM    5  C           1     -23.867  -3.608  -9.364  0.00  0.00     0.270 C 
HETATM    6  C           1     -23.138  -4.194  -8.162  0.00  0.00     0.050 C 
BRANCH   5   7
HETATM    7  N           1     -25.162  -4.337  -9.566  0.00  0.00    -0.067 N 
HETATM    8  H           1     -25.787  -3.773 -10.184  0.00  0.00     0.275 HD
HETATM    9  H           1     -24.976  -5.263 -10.011  0.00  0.00     0.275 HD
HETATM   10  H           1     -25.627  -4.483  -8.641  0.00  0.00     0.275 HD
ENDBRANCH   5   7
ENDBRANCH   1   5
BRANCH   4  11
HETATM   11  C           1     -22.429  -3.134 -12.884  0.00  0.00     0.235 C 
BRANCH  11  12
HETATM   12  C           1     -23.196  -2.658 -14.094  0.00  0.00     0.191 C 
HETATM   13  O           1     -22.724  -2.829 -15.239  0.00  0.00    -0.647 OA
HETATM   14  O           1     -24.301  -2.094 -13.952  0.00  0.00    -0.647 OA
ENDBRANCH  11  12
ENDBRANCH   4  11
TORSDOF 4
ENDMDL
MODEL 4
REMARK VINA RESULT:      -5.2      7.607      9.089
REMARK  4 active torsions:
REMARK  status: ('A' for Active; 'I' for Inactive)
REMARK       I    between atoms: C_2  and  N_14 
REMARK    1  A    between atoms: C_2  and  C_3 
REMARK    2  A    between atoms: C_3  and  N_5 
REMARK    3  A    between atoms: C_11  and  C_13 
REMARK    4  A    between atoms: C_13  and  N_14 
ROOT
HETATM    1  C           1     -22.628  -3.749 -11.574  0.00  0.00     0.248 C 
HETATM    2  O           1     -23.587  -3.676 -10.844  0.00  0.00    -0.271 OA
HETATM    3  H           1     -21.901  -3.335 -13.468  0.00  0.00     0.163 HD
HETATM    4  N           1     -22.705  -3.274 -12.855  0.00  0.00    -0.349 N 
ENDROOT
BRANCH   1   5
HETATM    5  C           1     -21.344  -4.365 -11.074  0.00  0.00     0.270 C 
HETATM    6  C           1     -21.337  -4.359  -9.551  0.00  0.00     0.050 C 
BRANCH   5   7
HETATM    7  N           1     -20.178  -3.571 -11.581  0.00  0.00    -0.067 N 
HETATM    8  H           1     -19.295  -4.105 -11.420  0.00  0.00     0.275 HD
HETATM    9  H           1     -20.295  -3.394 -12.604  0.00  0.00     0.275 HD
HETATM   10  H           1     -20.131  -2.659 -11.074  0.00  0.00     0.275 HD
ENDBRANCH   5   7
ENDBRANCH   1   5
BRANCH   4  11
HETATM   11  C           1     -23.938  -2.682 -13.336  0.00  0.00     0.235 C 
BRANCH  11  12
HETATM   12  C           1     -23.679  -1.963 -14.638  0.00  0.00     0.191 C 
HETATM   13  O           1     -24.427  -1.027 -14.994  0.00  0.00    -0.647 OA
HETATM   14  O           1     -22.718  -2.305 -15.359  0.00  0.00    -0.647 OA
ENDBRANCH  11  12
ENDBRANCH   4  11
TORSDOF 4
ENDMDL
MODEL 5
REMARK VINA RESULT:      -5.1      2.987      4.753
REMARK  4 active torsions:
REMARK  status: ('A' for Active; 'I' for Inactive)
REMARK       I    between atoms: C_2  and  N_14 
REMARK    1  A    between atoms: C_2  and  C_3 
REMARK    2  A    between atoms: C_3  and  N_5 
REMARK    3  A    between atoms: C_11  and  C_13 
REMARK    4  A    between atoms: C_13  and  N_14 
ROOT
HETATM    1  C           1     -26.440  -6.362 -18.399  0.00  0.00     0.248 C 
HETATM    2  O           1     -26.521  -5.814 -17.326  0.00  0.00    -0.271 OA
HETATM    3  H           1     -27.508  -7.196 -19.964  0.00  0.00     0.163 HD
HETATM    4  N           1     -27.576  -6.737 -19.064  0.00  0.00    -0.349 N 
ENDROOT
BRANCH   1   5
HETATM    5  C           1     -25.085  -6.633 -19.007  0.00  0.00     0.270 C 
HETATM    6  C           1     -25.258  -7.386 -20.320  0.00  0.00     0.050 C 
BRANCH   5   7
HETATM    7  N           1     -24.270  -7.461 -18.060  0.00  0.00    -0.067 N 
HETATM    8  H           1     -23.886  -8.291 -18.565  0.00  0.00     0.275 HD
HETATM    9  H           1     -23.482  -6.887 -17.684  0.00  0.00     0.275 HD
HETATM   10  H           1     -24.875  -7.783 -17.270  0.00  0.00     0.275 HD
ENDBRANCH   5   7
ENDBRANCH   1   5
BRANCH   4  11
HETATM   11  C           1     -28.878  -6.476 -18.480  0.00  0.00     0.235 C 
BRANCH  11  12
HETATM   12  C           1     -29.578  -7.784 -18.206  0.00  0.00     0.191 C 
HETATM   13  O           1     -30.083  -8.431 -19.149  0.00  0.00    -0.647 OA
HETATM   14  O           1     -29.654  -8.220 -17.037  0.00  0.00    -0.647 OA
ENDBRANCH  11  12
ENDBRANCH   4  11
TORSDOF 4
ENDMDL
MODEL 6
REMARK VINA RESULT:      -4.9      3.441      4.242
REMARK  4 active torsions:
REMARK  status: ('A' for Active; 'I' for Inactive)
REMARK       I    between atoms: C_2  and  N_14 
REMARK    1  A    between atoms: C_2  and  C_3 
REMARK    2  A    between atoms: C_3  and  N_5 
REMARK    3  A    between atoms: C_11  and  C_13 
REMARK    4  A    between atoms: C_13  and  N_14 
ROOT
HETATM    1  C           1     -26.078  -6.662 -19.244  0.00  0.00     0.248 C 
HETATM    2  O           1     -27.181  -6.459 -19.695  0.00  0.00    -0.271 OA
HETATM    3  H           1     -24.948  -6.780 -17.514  0.00  0.00     0.163 HD
HETATM    4  N           1     -25.872  -6.610 -17.893  0.00  0.00    -0.349 N 
ENDROOT
BRANCH   1   5
HETATM    5  C           1     -24.929  -6.972 -20.173  0.00  0.00     0.270 C 
HETATM    6  C           1     -25.376  -7.993 -21.211  0.00  0.00     0.050 C 
BRANCH   5   7
HETATM    7  N           1     -23.786  -7.534 -19.381  0.00  0.00    -0.067 N 
HETATM    8  H           1     -22.930  -7.566 -19.979  0.00  0.00     0.275 HD
HETATM    9  H           1     -23.607  -6.927 -18.549  0.00  0.00     0.275 HD
HETATM   10  H           1     -24.025  -8.500 -19.062  0.00  0.00     0.275 HD
ENDBRANCH   5   7
ENDBRANCH   1   5
BRANCH   4  11
HETATM   11  C           1     -26.976  -6.312 -17.001  0.00  0.00     0.235 C 
BRANCH  11  12
HETATM   12  C           1     -26.825  -7.107 -15.728  0.00  0.00     0.191 C 
HETATM   13  O           1     -27.839  -7.451 -15.082  0.00  0.00    -0.647 OA
HETATM   14  O           1     -25.687  -7.421 -15.318  0.00  0.00    -0.647 OA
ENDBRANCH  11  12
ENDBRANCH   4  11
TORSDOF 4
ENDMDL
MODEL 7
REMARK VINA RESULT:      -4.8      8.738     10.385
REMARK  4 active torsions:
REMARK  status: ('A' for Active; 'I' for Inactive)
REMARK       I    between atoms: C_2  and  N_14 
REMARK    1  A    between atoms: C_2  and  C_3 
REMARK    2  A    between atoms: C_3  and  N_5 
REMARK    3  A    between atoms: C_11  and  C_13 
REMARK    4  A    between atoms: C_13  and  N_14 
ROOT
HETATM    1  C           1     -22.970  -4.095  -9.550  0.00  0.00     0.248 C 
HETATM    2  O           1     -21.892  -4.250 -10.072  0.00  0.00    -0.271 OA
HETATM    3  H           1     -23.961  -3.823  -7.753  0.00  0.00     0.163 HD
HETATM    4  N           1     -23.058  -3.953  -8.191  0.00  0.00    -0.349 N 
ENDROOT
BRANCH   1   5
HETATM    5  C           1     -24.220  -4.059 -10.395  0.00  0.00     0.270 C 
HETATM    6  C           1     -24.001  -3.135 -11.587  0.00  0.00     0.050 C 
BRANCH   5   7
HETATM    7  N           1     -25.364  -3.548  -9.572  0.00  0.00    -0.067 N 
HETATM    8  H           1     -26.264  -3.903  -9.968  0.00  0.00     0.275 HD
HETATM    9  H           1     -25.262  -3.882  -8.587  0.00  0.00     0.275 HD
HETATM   10  H           1     -25.365  -2.503  -9.587  0.00  0.00     0.275 HD
ENDBRANCH   5   7
ENDBRANCH   1   5
BRANCH   4  11
HETATM   11  C           1     -21.857  -3.988  -7.379  0.00  0.00     0.235 C 
BRANCH  11  12
HETATM   12  C           1     -21.717  -5.350  -6.745  0.00  0.00     0.191 C 
HETATM   13  O           1     -20.979  -6.211  -7.271  0.00  0.00    -0.647 OA
HETATM   14  O           1     -22.338  -5.617  -5.694  0.00  0.00    -0.647 OA
ENDBRANCH  11  12
ENDBRANCH   4  11
TORSDOF 4
ENDMDL
MODEL 8
REMARK VINA RESULT:      -4.7      3.495      3.742
REMARK  4 active torsions:
REMARK  status: ('A' for Active; 'I' for Inactive)
REMARK       I    between atoms: C_2  and  N_14 
REMARK    1  A    between atoms: C_2  and  C_3 
REMARK    2  A    between atoms: C_3  and  N_5 
REMARK    3  A    between atoms: C_11  and  C_13 
REMARK    4  A    between atoms: C_13  and  N_14 
ROOT
HETATM    1  C           1     -28.319  -6.637 -18.664  0.00  0.00     0.248 C 
HETATM    2  O           1     -27.811  -5.695 -18.103  0.00  0.00    -0.271 OA
HETATM    3  H           1     -28.104  -8.020 -20.189  0.00  0.00     0.163 HD
HETATM    4  N           1     -27.679  -7.231 -19.718  0.00  0.00    -0.349 N 
ENDROOT
BRANCH   1   5
HETATM    5  C           1     -29.658  -7.157 -18.203  0.00  0.00     0.270 C 
HETATM    6  C           1     -30.406  -6.054 -17.466  0.00  0.00     0.050 C 
BRANCH   5   7
HETATM    7  N           1     -29.451  -8.322 -17.282  0.00  0.00    -0.067 N 
HETATM    8  H           1     -30.365  -8.796 -17.107  0.00  0.00     0.275 HD
HETATM    9  H           1     -28.786  -8.999 -17.719  0.00  0.00     0.275 HD
HETATM   10  H           1     -29.055  -7.982 -16.376  0.00  0.00     0.275 HD
ENDBRANCH   5   7
ENDBRANCH   1   5
BRANCH   4  11
HETATM   11  C           1     -26.392  -6.730 -20.161  0.00  0.00     0.235 C 
BRANCH  11  12
HETATM   12  C           1     -25.678  -7.802 -20.948  0.00  0.00     0.191 C 
HETATM   13  O           1     -24.428  -7.832 -20.971  0.00  0.00    -0.647 OA
HETATM   14  O           1     -26.335  -8.659 -21.576  0.00  0.00    -0.647 OA
ENDBRANCH  11  12
ENDBRANCH   4  11
TORSDOF 4
ENDMDL
MODEL 9
REMARK VINA RESULT:      -4.7      8.138      9.770
REMARK  4 active torsions:
REMARK  status: ('A' for Active; 'I' for Inactive)
REMARK       I    between atoms: C_2  and  N_14 
REMARK    1  A    between atoms: C_2  and  C_3 
REMARK    2  A    between atoms: C_3  and  N_5 
REMARK    3  A    between atoms: C_11  and  C_13 
REMARK    4  A    between atoms: C_13  and  N_14 
ROOT
HETATM    1  C           1     -22.130  -3.709 -11.298  0.00  0.00     0.248 C 
HETATM    2  O           1     -21.150  -4.333 -11.628  0.00  0.00    -0.271 OA
HETATM    3  H           1     -23.415  -3.268  -9.737  0.00  0.00     0.163 HD
HETATM    4  N           1     -22.594  -3.791 -10.014  0.00  0.00    -0.349 N 
ENDROOT
BRANCH   1   5
HETATM    5  C           1     -22.843  -2.838 -12.304  0.00  0.00     0.270 C 
HETATM    6  C           1     -24.345  -3.065 -12.199  0.00  0.00     0.050 C 
BRANCH   5   7
HETATM    7  N           1     -22.380  -3.190 -13.686  0.00  0.00    -0.067 N 
HETATM    8  H           1     -21.437  -2.773 -13.855  0.00  0.00     0.275 HD
HETATM    9  H           1     -22.324  -4.229 -13.781  0.00  0.00     0.275 HD
HETATM   10  H           1     -23.058  -2.814 -14.387  0.00  0.00     0.275 HD
ENDBRANCH   5   7
ENDBRANCH   1   5
BRANCH   4  11
HETATM   11  C           1     -21.909  -4.628  -9.047  0.00  0.00     0.235 C 
BRANCH  11  12
HETATM   12  C           1     -22.184  -4.119  -7.654  0.00  0.00     0.191 C 
HETATM   13  O           1     -21.387  -3.324  -7.110  0.00  0.00    -0.647 OA
HETATM   14  O           1     -23.209  -4.491  -7.044  0.00  0.00    -0.647 OA
ENDBRANCH  11  12
ENDBRANCH   4  11
TORSDOF 4
ENDMDL
