MODEL 1
REMARK VINA RESULT:      -7.5      0.000      0.000
REMARK  5 active torsions:
REMARK  status: ('A' for Active; 'I' for Inactive)
REMARK    1  A    between atoms: C_4  and  C_13 
REMARK    2  A    between atoms: C_4  and  C_7 
REMARK    3  A    between atoms: C_4  and  N_20 
REMARK    4  A    between atoms: C_7  and  C_16 
REMARK       I    between atoms: C_18  and  N_20 
REMARK    5  A    between atoms: C_18  and  C_23 
ROOT
HETATM    1  C           1     -19.895  -8.750  -4.654  0.00  0.00     0.189 C 
ENDROOT
BRANCH   1   2
HETATM    2  C           1     -20.036 -10.026  -5.447  0.00  0.00     0.197 C 
HETATM    3  O           1     -19.080 -10.826  -5.518  0.00  0.00    -0.646 OA
HETATM    4  O           1     -21.110 -10.281  -6.034  0.00  0.00    -0.646 OA
ENDBRANCH   1   2
BRANCH   1   5
HETATM    5  C           1     -19.393  -9.075  -3.253  0.00  0.00     0.073 C 
BRANCH   5   6
HETATM    6  C           1     -20.505  -9.673  -2.449  0.00  0.00    -0.047 A 
HETATM    7  C           1     -21.330  -8.984  -1.517  0.00  0.00    -0.006 A 
HETATM    8  C           1     -22.230  -9.916  -0.998  0.00  0.00     0.038 A 
HETATM    9  C           1     -21.398  -7.653  -1.064  0.00  0.00     0.014 A 
HETATM   10  N           1     -21.953 -11.123  -1.599  0.00  0.00    -0.385 N 
HETATM   11  C           1     -23.198  -9.581  -0.045  0.00  0.00     0.030 A 
HETATM   12  H           1     -22.467 -12.020  -1.411  0.00  0.00     0.160 HD
HETATM   13  C           1     -20.911 -10.987  -2.478  0.00  0.00     0.093 A 
HETATM   14  C           1     -23.246  -8.253   0.390  0.00  0.00     0.002 A 
HETATM   15  C           1     -22.360  -7.302  -0.111  0.00  0.00     0.001 A 
ENDBRANCH   5   6
ENDBRANCH   1   5
BRANCH   1  16
HETATM   16  N           1     -21.184  -8.091  -4.564  0.00  0.00    -0.344 N 
HETATM   17  H           1     -21.960  -8.558  -4.114  0.00  0.00     0.163 HD
HETATM   18  C           1     -21.349  -6.837  -5.088  0.00  0.00     0.252 C 
HETATM   19  O           1     -22.423  -6.289  -5.013  0.00  0.00    -0.271 OA
BRANCH  18  20
HETATM   20  C           1     -20.191  -6.141  -5.758  0.00  0.00     0.370 C 
HETATM   21  C           1     -20.306  -4.633  -5.609  0.00  0.00     0.048 C 
HETATM   22  C           1     -20.999  -4.159  -6.881  0.00  0.00     0.033 C 
HETATM   23  C           1     -21.237  -5.420  -7.696  0.00  0.00     0.271 C 
HETATM   24  N           1     -20.225  -6.350  -7.203  0.00  0.00     0.097 N 
HETATM   25  H           1     -19.323  -6.124  -7.622  0.00  0.00     0.317 HD
ENDBRANCH  18  20
ENDBRANCH   1  16
TORSDOF 5
ENDMDL
MODEL 2
REMARK VINA RESULT:      -7.4      2.370      6.854
REMARK  5 active torsions:
REMARK  status: ('A' for Active; 'I' for Inactive)
REMARK    1  A    between atoms: C_4  and  C_13 
REMARK    2  A    between atoms: C_4  and  C_7 
REMARK    3  A    between atoms: C_4  and  N_20 
REMARK    4  A    between atoms: C_7  and  C_16 
REMARK       I    between atoms: C_18  and  N_20 
REMARK    5  A    between atoms: C_18  and  C_23 
ROOT
HETATM    1  C           1     -21.256  -6.965  -4.439  0.00  0.00     0.189 C 
ENDROOT
BRANCH   1   2
HETATM    2  C           1     -21.532  -6.750  -2.971  0.00  0.00     0.197 C 
HETATM    3  O           1     -22.453  -5.984  -2.614  0.00  0.00    -0.646 OA
HETATM    4  O           1     -20.841  -7.338  -2.112  0.00  0.00    -0.646 OA
ENDBRANCH   1   2
BRANCH   1   5
HETATM    5  C           1     -22.069  -5.973  -5.260  0.00  0.00     0.073 C 
BRANCH   5   6
HETATM    6  C           1     -21.279  -5.550  -6.459  0.00  0.00    -0.047 A 
HETATM    7  C           1     -21.789  -4.884  -7.607  0.00  0.00    -0.006 A 
HETATM    8  C           1     -20.716  -4.681  -8.476  0.00  0.00     0.038 A 
HETATM    9  C           1     -23.066  -4.434  -7.993  0.00  0.00     0.014 A 
HETATM   10  N           1     -19.599  -5.209  -7.867  0.00  0.00    -0.385 N 
HETATM   11  C           1     -20.857  -4.047  -9.716  0.00  0.00     0.030 A 
HETATM   12  H           1     -18.632  -5.206  -8.280  0.00  0.00     0.160 HD
HETATM   13  C           1     -19.928  -5.737  -6.647  0.00  0.00     0.093 A 
HETATM   14  C           1     -22.134  -3.608 -10.075  0.00  0.00     0.002 A 
HETATM   15  C           1     -23.224  -3.797  -9.228  0.00  0.00     0.001 A 
ENDBRANCH   5   6
ENDBRANCH   1   5
BRANCH   1  16
HETATM   16  N           1     -21.628  -8.317  -4.808  0.00  0.00    -0.344 N 
HETATM   17  H           1     -22.604  -8.560  -4.919  0.00  0.00     0.163 HD
HETATM   18  C           1     -20.659  -9.263  -5.006  0.00  0.00     0.252 C 
HETATM   19  O           1     -20.971 -10.390  -5.313  0.00  0.00    -0.271 OA
BRANCH  18  20
HETATM   20  C           1     -19.204  -8.900  -4.841  0.00  0.00     0.370 C 
HETATM   21  C           1     -18.318  -9.844  -5.635  0.00  0.00     0.048 C 
HETATM   22  C           1     -17.899 -10.924  -4.645  0.00  0.00     0.033 C 
HETATM   23  C           1     -18.562 -10.539  -3.334  0.00  0.00     0.271 C 
HETATM   24  N           1     -18.773  -9.100  -3.460  0.00  0.00     0.097 N 
HETATM   25  H           1     -17.896  -8.610  -3.281  0.00  0.00     0.317 HD
ENDBRANCH  18  20
ENDBRANCH   1  16
TORSDOF 5
ENDMDL
MODEL 3
REMARK VINA RESULT:      -7.2      1.874      6.171
REMARK  5 active torsions:
REMARK  status: ('A' for Active; 'I' for Inactive)
REMARK    1  A    between atoms: C_4  and  C_13 
REMARK    2  A    between atoms: C_4  and  C_7 
REMARK    3  A    between atoms: C_4  and  N_20 
REMARK    4  A    between atoms: C_7  and  C_16 
REMARK       I    between atoms: C_18  and  N_20 
REMARK    5  A    between atoms: C_18  and  C_23 
ROOT
HETATM    1  C           1     -20.538  -9.396  -4.257  0.00  0.00     0.189 C 
ENDROOT
BRANCH   1   2
HETATM    2  C           1     -20.461 -10.559  -5.216  0.00  0.00     0.197 C 
HETATM    3  O           1     -19.583 -10.578  -6.105  0.00  0.00    -0.646 OA
HETATM    4  O           1     -21.275 -11.502  -5.121  0.00  0.00    -0.646 OA
ENDBRANCH   1   2
BRANCH   1   5
HETATM    5  C           1     -19.837  -8.188  -4.865  0.00  0.00     0.073 C 
BRANCH   5   6
HETATM    6  C           1     -20.853  -7.154  -5.237  0.00  0.00    -0.047 A 
HETATM    7  C           1     -20.716  -6.172  -6.257  0.00  0.00    -0.006 A 
HETATM    8  C           1     -21.891  -5.420  -6.264  0.00  0.00     0.038 A 
HETATM    9  C           1     -19.701  -5.850  -7.177  0.00  0.00     0.014 A 
HETATM   10  N           1     -22.706  -5.934  -5.280  0.00  0.00    -0.385 N 
HETATM   11  C           1     -22.102  -4.357  -7.150  0.00  0.00     0.030 A 
HETATM   12  H           1     -23.664  -5.574  -5.045  0.00  0.00     0.160 HD
HETATM   13  C           1     -22.088  -6.983  -4.653  0.00  0.00     0.093 A 
HETATM   14  C           1     -21.080  -4.057  -8.054  0.00  0.00     0.002 A 
HETATM   15  C           1     -19.896  -4.791  -8.070  0.00  0.00     0.001 A 
ENDBRANCH   5   6
ENDBRANCH   1   5
BRANCH   1  16
HETATM   16  N           1     -19.890  -9.754  -3.011  0.00  0.00    -0.344 N 
HETATM   17  H           1     -18.889  -9.899  -2.984  0.00  0.00     0.163 HD
HETATM   18  C           1     -20.632  -9.893  -1.869  0.00  0.00     0.252 C 
HETATM   19  O           1     -20.091 -10.191  -0.830  0.00  0.00    -0.271 OA
BRANCH  18  20
HETATM   20  C           1     -22.125  -9.675  -1.907  0.00  0.00     0.370 C 
HETATM   21  C           1     -22.688  -9.539  -0.504  0.00  0.00     0.048 C 
HETATM   22  C           1     -23.158 -10.939  -0.126  0.00  0.00     0.033 C 
HETATM   23  C           1     -22.845 -11.801  -1.337  0.00  0.00     0.271 C 
HETATM   24  N           1     -22.808 -10.849  -2.443  0.00  0.00     0.097 N 
HETATM   25  H           1     -23.760 -10.616  -2.724  0.00  0.00     0.317 HD
ENDBRANCH  18  20
ENDBRANCH   1  16
TORSDOF 5
ENDMDL
MODEL 4
REMARK VINA RESULT:      -6.9      1.261      2.142
REMARK  5 active torsions:
REMARK  status: ('A' for Active; 'I' for Inactive)
REMARK    1  A    between atoms: C_4  and  C_13 
REMARK    2  A    between atoms: C_4  and  C_7 
REMARK    3  A    between atoms: C_4  and  N_20 
REMARK    4  A    between atoms: C_7  and  C_16 
REMARK       I    between atoms: C_18  and  N_20 
REMARK    5  A    between atoms: C_18  and  C_23 
ROOT
HETATM    1  C           1     -20.140  -8.358  -3.613  0.00  0.00     0.189 C 
ENDROOT
BRANCH   1   2
HETATM    2  C           1     -20.184  -9.737  -4.223  0.00  0.00     0.197 C 
HETATM    3  O           1     -21.203 -10.117  -4.837  0.00  0.00    -0.646 OA
HETATM    4  O           1     -19.200 -10.501  -4.113  0.00  0.00    -0.646 OA
ENDBRANCH   1   2
BRANCH   1   5
HETATM    5  C           1     -19.833  -8.468  -2.126  0.00  0.00     0.073 C 
BRANCH   5   6
HETATM    6  C           1     -21.115  -8.541  -1.355  0.00  0.00    -0.047 A 
HETATM    7  C           1     -21.872  -9.716  -1.096  0.00  0.00    -0.006 A 
HETATM    8  C           1     -22.986  -9.331  -0.348  0.00  0.00     0.038 A 
HETATM    9  C           1     -21.718 -11.075  -1.428  0.00  0.00     0.014 A 
HETATM   10  N           1     -22.897  -7.969  -0.165  0.00  0.00    -0.385 N 
HETATM   11  C           1     -23.956 -10.241   0.086  0.00  0.00     0.030 A 
HETATM   12  H           1     -23.595  -7.387   0.363  0.00  0.00     0.160 HD
HETATM   13  C           1     -21.769  -7.481  -0.770  0.00  0.00     0.093 A 
HETATM   14  C           1     -23.780 -11.585  -0.256  0.00  0.00     0.002 A 
HETATM   15  C           1     -22.678 -11.998  -1.002  0.00  0.00     0.001 A 
ENDBRANCH   5   6
ENDBRANCH   1   5
BRANCH   1  16
HETATM   16  N           1     -21.423  -7.708  -3.795  0.00  0.00    -0.344 N 
HETATM   17  H           1     -22.223  -8.008  -3.253  0.00  0.00     0.163 HD
HETATM   18  C           1     -21.552  -6.688  -4.699  0.00  0.00     0.252 C 
HETATM   19  O           1     -22.622  -6.148  -4.850  0.00  0.00    -0.271 OA
BRANCH  18  20
HETATM   20  C           1     -20.360  -6.241  -5.507  0.00  0.00     0.370 C 
HETATM   21  C           1     -20.216  -4.729  -5.468  0.00  0.00     0.048 C 
HETATM   22  C           1     -20.931  -4.229  -6.717  0.00  0.00     0.033 C 
HETATM   23  C           1     -21.440  -5.481  -7.411  0.00  0.00     0.271 C 
HETATM   24  N           1     -20.553  -6.534  -6.925  0.00  0.00     0.097 N 
HETATM   25  H           1     -19.666  -6.490  -7.427  0.00  0.00     0.317 HD
ENDBRANCH  18  20
ENDBRANCH   1  16
TORSDOF 5
ENDMDL
MODEL 5
REMARK VINA RESULT:      -6.7      3.066      6.112
REMARK  5 active torsions:
REMARK  status: ('A' for Active; 'I' for Inactive)
REMARK    1  A    between atoms: C_4  and  C_13 
REMARK    2  A    between atoms: C_4  and  C_7 
REMARK    3  A    between atoms: C_4  and  N_20 
REMARK    4  A    between atoms: C_7  and  C_16 
REMARK       I    between atoms: C_18  and  N_20 
REMARK    5  A    between atoms: C_18  and  C_23 
ROOT
HETATM    1  C           1     -20.038  -8.420  -4.196  0.00  0.00     0.189 C 
ENDROOT
BRANCH   1   2
HETATM    2  C           1     -20.570  -7.225  -4.949  0.00  0.00     0.197 C 
HETATM    3  O           1     -20.400  -7.138  -6.183  0.00  0.00    -0.646 OA
HETATM    4  O           1     -21.180  -6.322  -4.337  0.00  0.00    -0.646 OA
ENDBRANCH   1   2
BRANCH   1   5
HETATM    5  C           1     -19.082  -9.199  -5.089  0.00  0.00     0.073 C 
BRANCH   5   6
HETATM    6  C           1     -17.927  -9.695  -4.274  0.00  0.00    -0.047 A 
HETATM    7  C           1     -16.842 -10.480  -4.750  0.00  0.00    -0.006 A 
HETATM    8  C           1     -15.999 -10.717  -3.663  0.00  0.00     0.038 A 
HETATM    9  C           1     -16.494 -11.016  -6.004  0.00  0.00     0.014 A 
HETATM   10  N           1     -16.562 -10.093  -2.572  0.00  0.00    -0.385 N 
HETATM   11  C           1     -14.821 -11.465  -3.769  0.00  0.00     0.030 A 
HETATM   12  H           1     -16.154 -10.093  -1.604  0.00  0.00     0.160 HD
HETATM   13  C           1     -17.729  -9.472  -2.931  0.00  0.00     0.093 A 
HETATM   14  C           1     -14.497 -11.985  -5.026  0.00  0.00     0.002 A 
HETATM   15  C           1     -15.320 -11.765  -6.128  0.00  0.00     0.001 A 
ENDBRANCH   5   6
ENDBRANCH   1   5
BRANCH   1  16
HETATM   16  N           1     -21.142  -9.277  -3.808  0.00  0.00    -0.344 N 
HETATM   17  H           1     -21.635  -9.815  -4.507  0.00  0.00     0.163 HD
HETATM   18  C           1     -21.515  -9.358  -2.493  0.00  0.00     0.252 C 
HETATM   19  O           1     -22.434 -10.072  -2.170  0.00  0.00    -0.271 OA
BRANCH  18  20
HETATM   20  C           1     -20.779  -8.556  -1.448  0.00  0.00     0.370 C 
HETATM   21  C           1     -21.156  -9.013  -0.050  0.00  0.00     0.048 C 
HETATM   22  C           1     -22.277  -8.077   0.386  0.00  0.00     0.033 C 
HETATM   23  C           1     -22.477  -7.128  -0.783  0.00  0.00     0.271 C 
HETATM   24  N           1     -21.194  -7.156  -1.480  0.00  0.00     0.097 N 
HETATM   25  H           1     -20.524  -6.569  -0.983  0.00  0.00     0.317 HD
ENDBRANCH  18  20
ENDBRANCH   1  16
TORSDOF 5
ENDMDL
MODEL 6
REMARK VINA RESULT:      -6.6      3.196      5.438
REMARK  5 active torsions:
REMARK  status: ('A' for Active; 'I' for Inactive)
REMARK    1  A    between atoms: C_4  and  C_13 
REMARK    2  A    between atoms: C_4  and  C_7 
REMARK    3  A    between atoms: C_4  and  N_20 
REMARK    4  A    between atoms: C_7  and  C_16 
REMARK       I    between atoms: C_18  and  N_20 
REMARK    5  A    between atoms: C_18  and  C_23 
ROOT
HETATM    1  C           1     -19.775  -9.496  -3.494  0.00  0.00     0.189 C 
ENDROOT
BRANCH   1   2
HETATM    2  C           1     -19.945  -8.416  -4.534  0.00  0.00     0.197 C 
HETATM    3  O           1     -19.319  -8.485  -5.614  0.00  0.00    -0.646 OA
HETATM    4  O           1     -20.711  -7.454  -4.316  0.00  0.00    -0.646 OA
ENDBRANCH   1   2
BRANCH   1   5
HETATM    5  C           1     -18.861 -10.587  -4.038  0.00  0.00     0.073 C 
BRANCH   5   6
HETATM    6  C           1     -17.655 -10.714  -3.160  0.00  0.00    -0.047 A 
HETATM    7  C           1     -17.611 -11.332  -1.881  0.00  0.00    -0.006 A 
HETATM    8  C           1     -16.298 -11.227  -1.419  0.00  0.00     0.038 A 
HETATM    9  C           1     -18.565 -11.972  -1.067  0.00  0.00     0.014 A 
HETATM   10  N           1     -15.580 -10.568  -2.391  0.00  0.00    -0.385 N 
HETATM   11  C           1     -15.890 -11.733  -0.179  0.00  0.00     0.030 A 
HETATM   12  H           1     -14.556 -10.340  -2.330  0.00  0.00     0.160 HD
HETATM   13  C           1     -16.391 -10.253  -3.449  0.00  0.00     0.093 A 
HETATM   14  C           1     -16.856 -12.364   0.610  0.00  0.00     0.002 A 
HETATM   15  C           1     -18.174 -12.483   0.175  0.00  0.00     0.001 A 
ENDBRANCH   5   6
ENDBRANCH   1   5
BRANCH   1  16
HETATM   16  N           1     -21.069 -10.066  -3.173  0.00  0.00    -0.344 N 
HETATM   17  H           1     -21.560 -10.624  -3.858  0.00  0.00     0.163 HD
HETATM   18  C           1     -21.625  -9.848  -1.941  0.00  0.00     0.252 C 
HETATM   19  O           1     -22.703 -10.323  -1.674  0.00  0.00    -0.271 OA
BRANCH  18  20
HETATM   20  C           1     -20.892  -9.015  -0.918  0.00  0.00     0.370 C 
HETATM   21  C           1     -21.507  -9.186   0.460  0.00  0.00     0.048 C 
HETATM   22  C           1     -22.494  -8.033   0.601  0.00  0.00     0.033 C 
HETATM   23  C           1     -22.386  -7.258  -0.702  0.00  0.00     0.271 C 
HETATM   24  N           1     -21.053  -7.591  -1.196  0.00  0.00     0.097 N 
HETATM   25  H           1     -20.357  -7.043  -0.691  0.00  0.00     0.317 HD
ENDBRANCH  18  20
ENDBRANCH   1  16
TORSDOF 5
ENDMDL
MODEL 7
REMARK VINA RESULT:      -6.6      2.393      4.779
REMARK  5 active torsions:
REMARK  status: ('A' for Active; 'I' for Inactive)
REMARK    1  A    between atoms: C_4  and  C_13 
REMARK    2  A    between atoms: C_4  and  C_7 
REMARK    3  A    between atoms: C_4  and  N_20 
REMARK    4  A    between atoms: C_7  and  C_16 
REMARK       I    between atoms: C_18  and  N_20 
REMARK    5  A    between atoms: C_18  and  C_23 
ROOT
HETATM    1  C           1     -20.125 -10.108  -4.805  0.00  0.00     0.189 C 
ENDROOT
BRANCH   1   2
HETATM    2  C           1     -20.656 -11.520  -4.815  0.00  0.00     0.197 C 
HETATM    3  O           1     -21.465 -11.876  -5.698  0.00  0.00    -0.646 OA
HETATM    4  O           1     -20.288 -12.333  -3.940  0.00  0.00    -0.646 OA
ENDBRANCH   1   2
BRANCH   1   5
HETATM    5  C           1     -21.148  -9.174  -5.439  0.00  0.00     0.073 C 
BRANCH   5   6
HETATM    6  C           1     -21.361  -7.988  -4.551  0.00  0.00    -0.047 A 
HETATM    7  C           1     -21.651  -8.023  -3.159  0.00  0.00    -0.006 A 
HETATM    8  C           1     -21.771  -6.700  -2.731  0.00  0.00     0.038 A 
HETATM    9  C           1     -21.823  -9.057  -2.220  0.00  0.00     0.014 A 
HETATM   10  N           1     -21.560  -5.899  -3.831  0.00  0.00    -0.385 N 
HETATM   11  C           1     -22.056  -6.359  -1.404  0.00  0.00     0.030 A 
HETATM   12  H           1     -21.586  -4.849  -3.822  0.00  0.00     0.160 HD
HETATM   13  C           1     -21.311  -6.668  -4.937  0.00  0.00     0.093 A 
HETATM   14  C           1     -22.223  -7.403  -0.490  0.00  0.00     0.002 A 
HETATM   15  C           1     -22.109  -8.733  -0.889  0.00  0.00     0.001 A 
ENDBRANCH   5   6
ENDBRANCH   1   5
BRANCH   1  16
HETATM   16  N           1     -18.888 -10.052  -5.560  0.00  0.00    -0.344 N 
HETATM   17  H           1     -18.904 -10.157  -6.565  0.00  0.00     0.163 HD
HETATM   18  C           1     -17.699  -9.854  -4.911  0.00  0.00     0.252 C 
HETATM   19  O           1     -16.669  -9.808  -5.540  0.00  0.00    -0.271 OA
BRANCH  18  20
HETATM   20  C           1     -17.675  -9.696  -3.410  0.00  0.00     0.370 C 
HETATM   21  C           1     -16.278  -9.350  -2.925  0.00  0.00     0.048 C 
HETATM   22  C           1     -15.648 -10.684  -2.540  0.00  0.00     0.033 C 
HETATM   23  C           1     -16.721 -11.723  -2.819  0.00  0.00     0.271 C 
HETATM   24  N           1     -17.967 -10.965  -2.749  0.00  0.00     0.097 N 
HETATM   25  H           1     -18.219 -10.814  -1.772  0.00  0.00     0.317 HD
ENDBRANCH  18  20
ENDBRANCH   1  16
TORSDOF 5
ENDMDL
MODEL 8
REMARK VINA RESULT:      -6.5      3.078      5.038
REMARK  5 active torsions:
REMARK  status: ('A' for Active; 'I' for Inactive)
REMARK    1  A    between atoms: C_4  and  C_13 
REMARK    2  A    between atoms: C_4  and  C_7 
REMARK    3  A    between atoms: C_4  and  N_20 
REMARK    4  A    between atoms: C_7  and  C_16 
REMARK       I    between atoms: C_18  and  N_20 
REMARK    5  A    between atoms: C_18  and  C_23 
ROOT
HETATM    1  C           1     -19.018 -10.525  -5.053  0.00  0.00     0.189 C 
ENDROOT
BRANCH   1   2
HETATM    2  C           1     -19.618 -11.456  -6.077  0.00  0.00     0.197 C 
HETATM    3  O           1     -19.058 -12.542  -6.338  0.00  0.00    -0.646 OA
HETATM    4  O           1     -20.675 -11.142  -6.665  0.00  0.00    -0.646 OA
ENDBRANCH   1   2
BRANCH   1   5
HETATM    5  C           1     -19.987  -9.383  -4.774  0.00  0.00     0.073 C 
BRANCH   5   6
HETATM    6  C           1     -20.353  -9.379  -3.322  0.00  0.00    -0.047 A 
HETATM    7  C           1     -21.036  -8.340  -2.633  0.00  0.00    -0.006 A 
HETATM    8  C           1     -21.168  -8.747  -1.304  0.00  0.00     0.038 A 
HETATM    9  C           1     -21.555  -7.088  -3.012  0.00  0.00     0.014 A 
HETATM   10  N           1     -20.583  -9.989  -1.202  0.00  0.00    -0.385 N 
HETATM   11  C           1     -21.798  -7.960  -0.333  0.00  0.00     0.030 A 
HETATM   12  H           1     -20.526 -10.555  -0.319  0.00  0.00     0.160 HD
HETATM   13  C           1     -20.086 -10.381  -2.417  0.00  0.00     0.093 A 
HETATM   14  C           1     -22.306  -6.721  -0.734  0.00  0.00     0.002 A 
HETATM   15  C           1     -22.188  -6.290  -2.053  0.00  0.00     0.001 A 
ENDBRANCH   5   6
ENDBRANCH   1   5
BRANCH   1  16
HETATM   16  N           1     -17.771  -9.987  -5.561  0.00  0.00    -0.344 N 
HETATM   17  H           1     -17.779  -9.336  -6.335  0.00  0.00     0.163 HD
HETATM   18  C           1     -16.583 -10.359  -4.991  0.00  0.00     0.252 C 
HETATM   19  O           1     -15.545  -9.910  -5.416  0.00  0.00    -0.271 OA
BRANCH  18  20
HETATM   20  C           1     -16.571 -11.329  -3.836  0.00  0.00     0.370 C 
HETATM   21  C           1     -15.237 -11.289  -3.111  0.00  0.00     0.048 C 
HETATM   22  C           1     -14.413 -12.411  -3.731  0.00  0.00     0.033 C 
HETATM   23  C           1     -15.322 -13.039  -4.774  0.00  0.00     0.271 C 
HETATM   24  N           1     -16.666 -12.706  -4.312  0.00  0.00     0.097 N 
HETATM   25  H           1     -16.930 -13.333  -3.553  0.00  0.00     0.317 HD
ENDBRANCH  18  20
ENDBRANCH   1  16
TORSDOF 5
ENDMDL
MODEL 9
REMARK VINA RESULT:      -6.5      2.640      5.373
REMARK  5 active torsions:
REMARK  status: ('A' for Active; 'I' for Inactive)
REMARK    1  A    between atoms: C_4  and  C_13 
REMARK    2  A    between atoms: C_4  and  C_7 
REMARK    3  A    between atoms: C_4  and  N_20 
REMARK    4  A    between atoms: C_7  and  C_16 
REMARK       I    between atoms: C_18  and  N_20 
REMARK    5  A    between atoms: C_18  and  C_23 
ROOT
HETATM    1  C           1     -20.879  -9.348  -3.966  0.00  0.00     0.189 C 
ENDROOT
BRANCH   1   2
HETATM    2  C           1     -21.403  -8.229  -4.833  0.00  0.00     0.197 C 
HETATM    3  O           1     -21.976  -7.249  -4.309  0.00  0.00    -0.646 OA
HETATM    4  O           1     -21.267  -8.283  -6.074  0.00  0.00    -0.646 OA
ENDBRANCH   1   2
BRANCH   1   5
HETATM    5  C           1     -20.179 -10.381  -4.839  0.00  0.00     0.073 C 
BRANCH   5   6
HETATM    6  C           1     -19.261 -11.210  -3.995  0.00  0.00    -0.047 A 
HETATM    7  C           1     -18.015 -10.791  -3.452  0.00  0.00    -0.006 A 
HETATM    8  C           1     -17.495 -11.871  -2.736  0.00  0.00     0.038 A 
HETATM    9  C           1     -17.277  -9.593  -3.500  0.00  0.00     0.014 A 
HETATM   10  N           1     -18.400 -12.903  -2.849  0.00  0.00    -0.385 N 
HETATM   11  C           1     -16.269 -11.811  -2.064  0.00  0.00     0.030 A 
HETATM   12  H           1     -18.285 -13.852  -2.413  0.00  0.00     0.160 HD
HETATM   13  C           1     -19.472 -12.514  -3.608  0.00  0.00     0.093 A 
HETATM   14  C           1     -15.555 -10.611  -2.126  0.00  0.00     0.002 A 
HETATM   15  C           1     -16.050  -9.517  -2.833  0.00  0.00     0.001 A 
ENDBRANCH   5   6
ENDBRANCH   1   5
BRANCH   1  16
HETATM   16  N           1     -21.982  -9.975  -3.266  0.00  0.00    -0.344 N 
HETATM   17  H           1     -22.671 -10.507  -3.781  0.00  0.00     0.163 HD
HETATM   18  C           1     -22.091  -9.848  -1.907  0.00  0.00     0.252 C 
HETATM   19  O           1     -23.011 -10.371  -1.325  0.00  0.00    -0.271 OA
BRANCH  18  20
HETATM   20  C           1     -21.063  -9.055  -1.139  0.00  0.00     0.370 C 
HETATM   21  C           1     -21.258  -9.225   0.358  0.00  0.00     0.048 C 
HETATM   22  C           1     -22.118  -8.042   0.785  0.00  0.00     0.033 C 
HETATM   23  C           1     -22.365  -7.252  -0.490  0.00  0.00     0.271 C 
HETATM   24  N           1     -21.246  -7.622  -1.352  0.00  0.00     0.097 N 
HETATM   25  H           1     -20.414  -7.105  -1.069  0.00  0.00     0.317 HD
ENDBRANCH  18  20
ENDBRANCH   1  16
TORSDOF 5
ENDMDL
