MODEL 1
REMARK VINA RESULT:      -6.9      0.000      0.000
REMARK  9 active torsions:
REMARK  status: ('A' for Active; 'I' for Inactive)
REMARK    1  A    between atoms: C_1  and  C_2 
REMARK    2  A    between atoms: C_1  and  C_9 
REMARK    3  A    between atoms: C_2  and  C_3 
REMARK       I    between atoms: C_3  and  N_5 
REMARK    4  A    between atoms: C_7  and  C_20 
REMARK    5  A    between atoms: C_9  and  C_19 
REMARK    6  A    between atoms: C_9  and  N_16 
REMARK    7  A    between atoms: C_14  and  C_15 
REMARK    8  A    between atoms: C_14  and  C_20 
REMARK    9  A    between atoms: C_14  and  N_24 
REMARK       I    between atoms: C_15  and  N_16 
ROOT
HETATM    1  O           1     -33.542  -1.878 -10.944  0.00  0.00    -0.271 OA
HETATM    2  H           1     -35.179  -2.255 -13.594  0.00  0.00     0.163 HD
HETATM    3  C           1     -34.029  -2.458 -11.886  0.00  0.00     0.249 C 
HETATM    4  N           1     -34.772  -1.769 -12.805  0.00  0.00    -0.345 N 
ENDROOT
BRANCH   4   5
HETATM    5  C           1     -34.976  -0.342 -12.650  0.00  0.00     0.186 C 
BRANCH   5   6
HETATM    6  C           1     -35.076   0.308 -14.023  0.00  0.00     0.045 C 
BRANCH   6   7
HETATM    7  C           1     -35.491  -0.737 -15.050  0.00  0.00     0.105 C 
BRANCH   7   8
HETATM    8  C           1     -36.706  -0.250 -15.802  0.00  0.00     0.215 C 
HETATM    9  O           1     -36.941  -0.674 -16.908  0.00  0.00    -0.274 OA
HETATM   10  N           1     -37.541   0.671 -15.231  0.00  0.00    -0.370 N 
HETATM   11  H           1     -37.344   1.026 -14.304  0.00  0.00     0.159 HD
HETATM   12  H           1     -38.356   0.998 -15.735  0.00  0.00     0.159 HD
ENDBRANCH   7   8
ENDBRANCH   6   7
ENDBRANCH   5   6
BRANCH   5  13
HETATM   13  C           1     -36.252  -0.097 -11.882  0.00  0.00     0.196 C 
HETATM   14  O           1     -37.339  -0.532 -12.322  0.00  0.00    -0.646 OA
HETATM   15  O           1     -36.223   0.540 -10.807  0.00  0.00    -0.646 OA
ENDBRANCH   5  13
ENDBRANCH   4   5
BRANCH   3  16
HETATM   16  C           1     -33.816  -3.943 -12.047  0.00  0.00     0.278 C 
BRANCH  16  17
HETATM   17  C           1     -34.285  -4.665 -10.791  0.00  0.00     0.021 C 
HETATM   18  C           1     -35.797  -4.525 -10.660  0.00  0.00     0.012 C 
BRANCH  17  19
HETATM   19  C           1     -33.919  -6.140 -10.888  0.00  0.00     0.002 C 
HETATM   20  C           1     -34.771  -6.940  -9.912  0.00  0.00     0.005 C 
ENDBRANCH  17  19
ENDBRANCH  16  17
BRANCH  16  21
HETATM   21  N           1     -32.357  -4.218 -12.263  0.00  0.00    -0.066 N 
HETATM   22  H           1     -31.960  -4.678 -11.413  0.00  0.00     0.275 HD
HETATM   23  H           1     -32.239  -4.848 -13.087  0.00  0.00     0.275 HD
HETATM   24  H           1     -31.856  -3.317 -12.439  0.00  0.00     0.275 HD
ENDBRANCH  16  21
ENDBRANCH   3  16
TORSDOF 9
ENDMDL
MODEL 2
REMARK VINA RESULT:      -5.9     14.281     17.184
REMARK  9 active torsions:
REMARK  status: ('A' for Active; 'I' for Inactive)
REMARK    1  A    between atoms: C_1  and  C_2 
REMARK    2  A    between atoms: C_1  and  C_9 
REMARK    3  A    between atoms: C_2  and  C_3 
REMARK       I    between atoms: C_3  and  N_5 
REMARK    4  A    between atoms: C_7  and  C_20 
REMARK    5  A    between atoms: C_9  and  C_19 
REMARK    6  A    between atoms: C_9  and  N_16 
REMARK    7  A    between atoms: C_14  and  C_15 
REMARK    8  A    between atoms: C_14  and  C_20 
REMARK    9  A    between atoms: C_14  and  N_24 
REMARK       I    between atoms: C_15  and  N_16 
ROOT
HETATM    1  O           1     -21.007  -4.170  -6.242  0.00  0.00    -0.271 OA
HETATM    2  H           1     -22.125  -7.069  -6.676  0.00  0.00     0.163 HD
HETATM    3  C           1     -21.589  -5.074  -6.794  0.00  0.00     0.249 C 
HETATM    4  N           1     -21.637  -6.313  -6.214  0.00  0.00    -0.345 N 
ENDROOT
BRANCH   4   5
HETATM    5  C           1     -20.989  -6.541  -4.937  0.00  0.00     0.186 C 
BRANCH   5   6
HETATM    6  C           1     -22.046  -6.796  -3.871  0.00  0.00     0.045 C 
BRANCH   6   7
HETATM    7  C           1     -21.653  -6.081  -2.585  0.00  0.00     0.105 C 
BRANCH   7   8
HETATM    8  C           1     -21.829  -7.016  -1.414  0.00  0.00     0.215 C 
HETATM    9  O           1     -22.793  -6.909  -0.695  0.00  0.00    -0.274 OA
HETATM   10  N           1     -20.896  -7.987  -1.168  0.00  0.00    -0.370 N 
HETATM   11  H           1     -20.088  -8.077  -1.771  0.00  0.00     0.159 HD
HETATM   12  H           1     -21.014  -8.615  -0.383  0.00  0.00     0.159 HD
ENDBRANCH   7   8
ENDBRANCH   6   7
ENDBRANCH   5   6
BRANCH   5  13
HETATM   13  C           1     -20.080  -7.742  -5.042  0.00  0.00     0.196 C 
HETATM   14  O           1     -20.006  -8.554  -4.095  0.00  0.00    -0.646 OA
HETATM   15  O           1     -19.402  -7.924  -6.077  0.00  0.00    -0.646 OA
ENDBRANCH   5  13
ENDBRANCH   4   5
BRANCH   3  16
HETATM   16  C           1     -22.264  -4.836  -8.123  0.00  0.00     0.278 C 
BRANCH  16  17
HETATM   17  C           1     -21.358  -3.994  -9.010  0.00  0.00     0.021 C 
HETATM   18  C           1     -20.125  -4.804  -9.392  0.00  0.00     0.012 C 
BRANCH  17  19
HETATM   19  C           1     -22.113  -3.596 -10.272  0.00  0.00     0.002 C 
HETATM   20  C           1     -21.120  -3.318 -11.393  0.00  0.00     0.005 C 
ENDBRANCH  17  19
ENDBRANCH  16  17
BRANCH  16  21
HETATM   21  N           1     -23.559  -4.111  -7.902  0.00  0.00    -0.066 N 
HETATM   22  H           1     -23.469  -3.484  -7.071  0.00  0.00     0.275 HD
HETATM   23  H           1     -23.788  -3.541  -8.746  0.00  0.00     0.275 HD
HETATM   24  H           1     -24.321  -4.806  -7.733  0.00  0.00     0.275 HD
ENDBRANCH  16  21
ENDBRANCH   3  16
TORSDOF 9
ENDMDL
MODEL 3
REMARK VINA RESULT:      -5.9     12.801     15.849
REMARK  9 active torsions:
REMARK  status: ('A' for Active; 'I' for Inactive)
REMARK    1  A    between atoms: C_1  and  C_2 
REMARK    2  A    between atoms: C_1  and  C_9 
REMARK    3  A    between atoms: C_2  and  C_3 
REMARK       I    between atoms: C_3  and  N_5 
REMARK    4  A    between atoms: C_7  and  C_20 
REMARK    5  A    between atoms: C_9  and  C_19 
REMARK    6  A    between atoms: C_9  and  N_16 
REMARK    7  A    between atoms: C_14  and  C_15 
REMARK    8  A    between atoms: C_14  and  C_20 
REMARK    9  A    between atoms: C_14  and  N_24 
REMARK       I    between atoms: C_15  and  N_16 
ROOT
HETATM    1  O           1     -22.406  -3.304  -8.309  0.00  0.00    -0.271 OA
HETATM    2  H           1     -22.111  -6.427  -8.369  0.00  0.00     0.163 HD
HETATM    3  C           1     -22.549  -4.434  -8.713  0.00  0.00     0.249 C 
HETATM    4  N           1     -21.990  -5.481  -8.030  0.00  0.00    -0.345 N 
ENDROOT
BRANCH   4   5
HETATM    5  C           1     -21.227  -5.234  -6.823  0.00  0.00     0.186 C 
BRANCH   5   6
HETATM    6  C           1     -21.751  -6.123  -5.702  0.00  0.00     0.045 C 
BRANCH   6   7
HETATM    7  C           1     -21.091  -5.727  -4.389  0.00  0.00     0.105 C 
BRANCH   7   8
HETATM    8  C           1     -21.702  -6.518  -3.258  0.00  0.00     0.215 C 
HETATM    9  O           1     -21.628  -7.724  -3.256  0.00  0.00    -0.274 OA
HETATM   10  N           1     -22.341  -5.870  -2.236  0.00  0.00    -0.370 N 
HETATM   11  H           1     -22.403  -4.860  -2.238  0.00  0.00     0.159 HD
HETATM   12  H           1     -22.751  -6.401  -1.478  0.00  0.00     0.159 HD
ENDBRANCH   7   8
ENDBRANCH   6   7
ENDBRANCH   5   6
BRANCH   5  13
HETATM   13  C           1     -19.772  -5.548  -7.075  0.00  0.00     0.196 C 
HETATM   14  O           1     -19.387  -6.737  -7.113  0.00  0.00    -0.646 OA
HETATM   15  O           1     -18.954  -4.619  -7.247  0.00  0.00    -0.646 OA
ENDBRANCH   5  13
ENDBRANCH   4   5
BRANCH   3  16
HETATM   16  C           1     -23.344  -4.689  -9.969  0.00  0.00     0.278 C 
BRANCH  16  17
HETATM   17  C           1     -22.835  -3.788 -11.086  0.00  0.00     0.021 C 
HETATM   18  C           1     -21.415  -4.194 -11.459  0.00  0.00     0.012 C 
BRANCH  17  19
HETATM   19  C           1     -23.739  -3.932 -12.304  0.00  0.00     0.002 C 
HETATM   20  C           1     -23.821  -2.599 -13.036  0.00  0.00     0.005 C 
ENDBRANCH  17  19
ENDBRANCH  16  17
BRANCH  16  21
HETATM   21  N           1     -24.792  -4.395  -9.712  0.00  0.00    -0.066 N 
HETATM   22  H           1     -24.882  -3.830  -8.838  0.00  0.00     0.275 HD
HETATM   23  H           1     -25.188  -3.859 -10.516  0.00  0.00     0.275 HD
HETATM   24  H           1     -25.315  -5.294  -9.602  0.00  0.00     0.275 HD
ENDBRANCH  16  21
ENDBRANCH   3  16
TORSDOF 9
ENDMDL
MODEL 4
REMARK VINA RESULT:      -5.9     14.037     16.347
REMARK  9 active torsions:
REMARK  status: ('A' for Active; 'I' for Inactive)
REMARK    1  A    between atoms: C_1  and  C_2 
REMARK    2  A    between atoms: C_1  and  C_9 
REMARK    3  A    between atoms: C_2  and  C_3 
REMARK       I    between atoms: C_3  and  N_5 
REMARK    4  A    between atoms: C_7  and  C_20 
REMARK    5  A    between atoms: C_9  and  C_19 
REMARK    6  A    between atoms: C_9  and  N_16 
REMARK    7  A    between atoms: C_14  and  C_15 
REMARK    8  A    between atoms: C_14  and  C_20 
REMARK    9  A    between atoms: C_14  and  N_24 
REMARK       I    between atoms: C_15  and  N_16 
ROOT
HETATM    1  O           1     -22.031  -7.553  -4.715  0.00  0.00    -0.271 OA
HETATM    2  H           1     -20.672  -4.734  -4.496  0.00  0.00     0.163 HD
HETATM    3  C           1     -21.513  -6.599  -4.185  0.00  0.00     0.249 C 
HETATM    4  N           1     -21.106  -5.532  -4.941  0.00  0.00    -0.345 N 
ENDROOT
BRANCH   4   5
HETATM    5  C           1     -21.297  -5.547  -6.378  0.00  0.00     0.186 C 
BRANCH   5   6
HETATM    6  C           1     -21.842  -4.199  -6.830  0.00  0.00     0.045 C 
BRANCH   6   7
HETATM    7  C           1     -23.133  -4.409  -7.610  0.00  0.00     0.105 C 
BRANCH   7   8
HETATM    8  C           1     -22.983  -3.834  -8.997  0.00  0.00     0.215 C 
HETATM    9  O           1     -23.936  -3.345  -9.554  0.00  0.00    -0.274 OA
HETATM   10  N           1     -21.767  -3.868  -9.624  0.00  0.00    -0.370 N 
HETATM   11  H           1     -20.968  -4.278  -9.157  0.00  0.00     0.159 HD
HETATM   12  H           1     -21.666  -3.482 -10.555  0.00  0.00     0.159 HD
ENDBRANCH   7   8
ENDBRANCH   6   7
ENDBRANCH   5   6
BRANCH   5  13
HETATM   13  C           1     -19.976  -5.810  -7.058  0.00  0.00     0.196 C 
HETATM   14  O           1     -19.432  -6.931  -6.956  0.00  0.00    -0.646 OA
HETATM   15  O           1     -19.425  -4.906  -7.723  0.00  0.00    -0.646 OA
ENDBRANCH   5  13
ENDBRANCH   4   5
BRANCH   3  16
HETATM   16  C           1     -21.314  -6.584  -2.689  0.00  0.00     0.278 C 
BRANCH  16  17
HETATM   17  C           1     -21.477  -7.994  -2.139  0.00  0.00     0.021 C 
HETATM   18  C           1     -20.104  -8.623  -1.939  0.00  0.00     0.012 C 
BRANCH  17  19
HETATM   19  C           1     -22.207  -7.936  -0.804  0.00  0.00     0.002 C 
HETATM   20  C           1     -21.288  -8.440   0.301  0.00  0.00     0.005 C 
ENDBRANCH  17  19
ENDBRANCH  16  17
BRANCH  16  21
HETATM   21  N           1     -22.334  -5.683  -2.059  0.00  0.00    -0.066 N 
HETATM   22  H           1     -21.899  -5.174  -1.255  0.00  0.00     0.275 HD
HETATM   23  H           1     -22.674  -4.992  -2.765  0.00  0.00     0.275 HD
HETATM   24  H           1     -23.139  -6.255  -1.715  0.00  0.00     0.275 HD
ENDBRANCH  16  21
ENDBRANCH   3  16
TORSDOF 9
ENDMDL
MODEL 5
REMARK VINA RESULT:      -5.8     10.251     12.292
REMARK  9 active torsions:
REMARK  status: ('A' for Active; 'I' for Inactive)
REMARK    1  A    between atoms: C_1  and  C_2 
REMARK    2  A    between atoms: C_1  and  C_9 
REMARK    3  A    between atoms: C_2  and  C_3 
REMARK       I    between atoms: C_3  and  N_5 
REMARK    4  A    between atoms: C_7  and  C_20 
REMARK    5  A    between atoms: C_9  and  C_19 
REMARK    6  A    between atoms: C_9  and  N_16 
REMARK    7  A    between atoms: C_14  and  C_15 
REMARK    8  A    between atoms: C_14  and  C_20 
REMARK    9  A    between atoms: C_14  and  N_24 
REMARK       I    between atoms: C_15  and  N_16 
ROOT
HETATM    1  O           1     -28.099  -5.218 -19.231  0.00  0.00    -0.271 OA
HETATM    2  H           1     -27.323  -8.250 -19.462  0.00  0.00     0.163 HD
HETATM    3  C           1     -28.247  -6.418 -19.196  0.00  0.00     0.249 C 
HETATM    4  N           1     -27.198  -7.246 -19.492  0.00  0.00    -0.345 N 
ENDROOT
BRANCH   4   5
HETATM    5  C           1     -25.909  -6.685 -19.846  0.00  0.00     0.186 C 
BRANCH   5   6
HETATM    6  C           1     -24.909  -6.975 -18.735  0.00  0.00     0.045 C 
BRANCH   6   7
HETATM    7  C           1     -25.500  -6.554 -17.396  0.00  0.00     0.105 C 
BRANCH   7   8
HETATM    8  C           1     -24.823  -7.316 -16.283  0.00  0.00     0.215 C 
HETATM    9  O           1     -25.217  -7.202 -15.147  0.00  0.00    -0.274 OA
HETATM   10  N           1     -23.763  -8.135 -16.561  0.00  0.00    -0.370 N 
HETATM   11  H           1     -23.433  -8.230 -17.513  0.00  0.00     0.159 HD
HETATM   12  H           1     -23.308  -8.647 -15.815  0.00  0.00     0.159 HD
ENDBRANCH   7   8
ENDBRANCH   6   7
ENDBRANCH   5   6
BRANCH   5  13
HETATM   13  C           1     -25.426  -7.309 -21.133  0.00  0.00     0.196 C 
HETATM   14  O           1     -25.838  -8.439 -21.472  0.00  0.00    -0.646 OA
HETATM   15  O           1     -24.615  -6.694 -21.859  0.00  0.00    -0.646 OA
ENDBRANCH   5  13
ENDBRANCH   4   5
BRANCH   3  16
HETATM   16  C           1     -29.589  -7.000 -18.828  0.00  0.00     0.278 C 
BRANCH  16  17
HETATM   17  C           1     -30.002  -6.497 -17.451  0.00  0.00     0.021 C 
HETATM   18  C           1     -31.499  -6.706 -17.262  0.00  0.00     0.012 C 
BRANCH  17  19
HETATM   19  C           1     -29.243  -7.271 -16.381  0.00  0.00     0.002 C 
HETATM   20  C           1     -28.597  -6.293 -15.409  0.00  0.00     0.005 C 
ENDBRANCH  17  19
ENDBRANCH  16  17
BRANCH  16  21
HETATM   21  N           1     -29.495  -8.497 -18.804  0.00  0.00    -0.066 N 
HETATM   22  H           1     -28.635  -8.798 -19.317  0.00  0.00     0.275 HD
HETATM   23  H           1     -29.445  -8.828 -17.815  0.00  0.00     0.275 HD
HETATM   24  H           1     -30.339  -8.906 -19.267  0.00  0.00     0.275 HD
ENDBRANCH  16  21
ENDBRANCH   3  16
TORSDOF 9
ENDMDL
MODEL 6
REMARK VINA RESULT:      -5.5     16.803     18.566
REMARK  9 active torsions:
REMARK  status: ('A' for Active; 'I' for Inactive)
REMARK    1  A    between atoms: C_1  and  C_2 
REMARK    2  A    between atoms: C_1  and  C_9 
REMARK    3  A    between atoms: C_2  and  C_3 
REMARK       I    between atoms: C_3  and  N_5 
REMARK    4  A    between atoms: C_7  and  C_20 
REMARK    5  A    between atoms: C_9  and  C_19 
REMARK    6  A    between atoms: C_9  and  N_16 
REMARK    7  A    between atoms: C_14  and  C_15 
REMARK    8  A    between atoms: C_14  and  C_20 
REMARK    9  A    between atoms: C_14  and  N_24 
REMARK       I    between atoms: C_15  and  N_16 
ROOT
HETATM    1  O           1     -21.235  -9.956  -2.225  0.00  0.00    -0.271 OA
HETATM    2  H           1     -20.626  -7.057  -3.258  0.00  0.00     0.163 HD
HETATM    3  C           1     -21.075  -8.759  -2.171  0.00  0.00     0.249 C 
HETATM    4  N           1     -20.760  -8.059  -3.304  0.00  0.00    -0.345 N 
ENDROOT
BRANCH   4   5
HETATM    5  C           1     -20.619  -8.753  -4.569  0.00  0.00     0.186 C 
BRANCH   5   6
HETATM    6  C           1     -21.283  -7.938  -5.670  0.00  0.00     0.045 C 
BRANCH   6   7
HETATM    7  C           1     -21.363  -6.478  -5.244  0.00  0.00     0.105 C 
BRANCH   7   8
HETATM    8  C           1     -20.357  -5.669  -6.025  0.00  0.00     0.215 C 
HETATM    9  O           1     -20.001  -4.590  -5.614  0.00  0.00    -0.274 OA
HETATM   10  N           1     -19.848  -6.156  -7.197  0.00  0.00    -0.370 N 
HETATM   11  H           1     -20.146  -7.060  -7.541  0.00  0.00     0.159 HD
HETATM   12  H           1     -19.173  -5.613  -7.721  0.00  0.00     0.159 HD
ENDBRANCH   7   8
ENDBRANCH   6   7
ENDBRANCH   5   6
BRANCH   5  13
HETATM   13  C           1     -19.153  -8.927  -4.886  0.00  0.00     0.196 C 
HETATM   14  O           1     -18.335  -9.137  -3.964  0.00  0.00    -0.646 OA
HETATM   15  O           1     -18.757  -8.860  -6.070  0.00  0.00    -0.646 OA
ENDBRANCH   5  13
ENDBRANCH   4   5
BRANCH   3  16
HETATM   16  C           1     -21.223  -8.038  -0.854  0.00  0.00     0.278 C 
BRANCH  16  17
HETATM   17  C           1     -21.700  -9.016   0.212  0.00  0.00     0.021 C 
HETATM   18  C           1     -21.041  -8.677   1.543  0.00  0.00     0.012 C 
BRANCH  17  19
HETATM   19  C           1     -23.213  -8.912   0.354  0.00  0.00     0.002 C 
HETATM   20  C           1     -23.845 -10.264   0.054  0.00  0.00     0.005 C 
ENDBRANCH  17  19
ENDBRANCH  16  17
BRANCH  16  21
HETATM   21  N           1     -22.225  -6.932  -1.000  0.00  0.00    -0.066 N 
HETATM   22  H           1     -22.032  -6.192  -0.287  0.00  0.00     0.275 HD
HETATM   23  H           1     -22.154  -6.521  -1.957  0.00  0.00     0.275 HD
HETATM   24  H           1     -23.188  -7.313  -0.855  0.00  0.00     0.275 HD
ENDBRANCH  16  21
ENDBRANCH   3  16
TORSDOF 9
ENDMDL
MODEL 7
REMARK VINA RESULT:      -5.5      1.983      6.360
REMARK  9 active torsions:
REMARK  status: ('A' for Active; 'I' for Inactive)
REMARK    1  A    between atoms: C_1  and  C_2 
REMARK    2  A    between atoms: C_1  and  C_9 
REMARK    3  A    between atoms: C_2  and  C_3 
REMARK       I    between atoms: C_3  and  N_5 
REMARK    4  A    between atoms: C_7  and  C_20 
REMARK    5  A    between atoms: C_9  and  C_19 
REMARK    6  A    between atoms: C_9  and  N_16 
REMARK    7  A    between atoms: C_14  and  C_15 
REMARK    8  A    between atoms: C_14  and  C_20 
REMARK    9  A    between atoms: C_14  and  N_24 
REMARK       I    between atoms: C_15  and  N_16 
ROOT
HETATM    1  O           1     -36.715  -1.208 -13.098  0.00  0.00    -0.271 OA
HETATM    2  H           1     -33.732  -1.973 -13.699  0.00  0.00     0.163 HD
HETATM    3  C           1     -35.663  -1.230 -13.694  0.00  0.00     0.249 C 
HETATM    4  N           1     -34.612  -1.955 -13.199  0.00  0.00    -0.345 N 
ENDROOT
BRANCH   4   5
HETATM    5  C           1     -34.760  -2.695 -11.962  0.00  0.00     0.186 C 
BRANCH   5   6
HETATM    6  C           1     -33.817  -3.891 -11.971  0.00  0.00     0.045 C 
BRANCH   6   7
HETATM    7  C           1     -33.949  -4.652 -10.659  0.00  0.00     0.105 C 
BRANCH   7   8
HETATM    8  C           1     -34.515  -6.025 -10.927  0.00  0.00     0.215 C 
HETATM    9  O           1     -34.655  -6.808 -10.018  0.00  0.00    -0.274 OA
HETATM   10  N           1     -34.869  -6.383 -12.199  0.00  0.00    -0.370 N 
HETATM   11  H           1     -34.751  -5.727 -12.961  0.00  0.00     0.159 HD
HETATM   12  H           1     -35.248  -7.304 -12.379  0.00  0.00     0.159 HD
ENDBRANCH   7   8
ENDBRANCH   6   7
ENDBRANCH   5   6
BRANCH   5  13
HETATM   13  C           1     -34.423  -1.797 -10.796  0.00  0.00     0.196 C 
HETATM   14  O           1     -35.339  -1.282 -10.118  0.00  0.00    -0.646 OA
HETATM   15  O           1     -33.228  -1.569 -10.509  0.00  0.00    -0.646 OA
ENDBRANCH   5  13
ENDBRANCH   4   5
BRANCH   3  16
HETATM   16  C           1     -35.510  -0.460 -14.982  0.00  0.00     0.278 C 
BRANCH  16  17
HETATM   17  C           1     -35.582   1.034 -14.694  0.00  0.00     0.021 C 
HETATM   18  C           1     -34.524   1.404 -13.663  0.00  0.00     0.012 C 
BRANCH  17  19
HETATM   19  C           1     -35.331   1.810 -15.981  0.00  0.00     0.002 C 
HETATM   20  C           1     -36.486   2.769 -16.230  0.00  0.00     0.005 C 
ENDBRANCH  17  19
ENDBRANCH  16  17
BRANCH  16  21
HETATM   21  N           1     -36.613  -0.840 -15.925  0.00  0.00    -0.066 N 
HETATM   22  H           1     -37.243  -0.019 -16.072  0.00  0.00     0.275 HD
HETATM   23  H           1     -36.205  -1.133 -16.840  0.00  0.00     0.275 HD
HETATM   24  H           1     -37.161  -1.632 -15.518  0.00  0.00     0.275 HD
ENDBRANCH  16  21
ENDBRANCH   3  16
TORSDOF 9
ENDMDL
MODEL 8
REMARK VINA RESULT:      -5.4     13.533     15.714
REMARK  9 active torsions:
REMARK  status: ('A' for Active; 'I' for Inactive)
REMARK    1  A    between atoms: C_1  and  C_2 
REMARK    2  A    between atoms: C_1  and  C_9 
REMARK    3  A    between atoms: C_2  and  C_3 
REMARK       I    between atoms: C_3  and  N_5 
REMARK    4  A    between atoms: C_7  and  C_20 
REMARK    5  A    between atoms: C_9  and  C_19 
REMARK    6  A    between atoms: C_9  and  N_16 
REMARK    7  A    between atoms: C_14  and  C_15 
REMARK    8  A    between atoms: C_14  and  C_20 
REMARK    9  A    between atoms: C_14  and  N_24 
REMARK       I    between atoms: C_15  and  N_16 
ROOT
HETATM    1  O           1     -21.371  -7.459  -6.456  0.00  0.00    -0.271 OA
HETATM    2  H           1     -20.839  -4.486  -5.606  0.00  0.00     0.163 HD
HETATM    3  C           1     -21.125  -6.532  -5.720  0.00  0.00     0.249 C 
HETATM    4  N           1     -21.044  -5.262  -6.223  0.00  0.00    -0.345 N 
ENDROOT
BRANCH   4   5
HETATM    5  C           1     -21.255  -5.028  -7.638  0.00  0.00     0.186 C 
BRANCH   5   6
HETATM    6  C           1     -22.156  -3.814  -7.822  0.00  0.00     0.045 C 
BRANCH   6   7
HETATM    7  C           1     -23.575  -4.276  -8.125  0.00  0.00     0.105 C 
BRANCH   7   8
HETATM    8  C           1     -24.017  -3.709  -9.452  0.00  0.00     0.215 C 
HETATM    9  O           1     -23.200  -3.467 -10.307  0.00  0.00    -0.274 OA
HETATM   10  N           1     -25.344  -3.470  -9.686  0.00  0.00    -0.370 N 
HETATM   11  H           1     -26.029  -3.673  -8.970  0.00  0.00     0.159 HD
HETATM   12  H           1     -25.641  -3.089 -10.576  0.00  0.00     0.159 HD
ENDBRANCH   7   8
ENDBRANCH   6   7
ENDBRANCH   5   6
BRANCH   5  13
HETATM   13  C           1     -19.927  -4.775  -8.309  0.00  0.00     0.196 C 
HETATM   14  O           1     -19.831  -4.843  -9.553  0.00  0.00    -0.646 OA
HETATM   15  O           1     -18.922  -4.497  -7.619  0.00  0.00    -0.646 OA
ENDBRANCH   5  13
ENDBRANCH   4   5
BRANCH   3  16
HETATM   16  C           1     -20.907  -6.777  -4.247  0.00  0.00     0.278 C 
BRANCH  16  17
HETATM   17  C           1     -20.877  -8.276  -3.978  0.00  0.00     0.021 C 
HETATM   18  C           1     -19.435  -8.768  -4.003  0.00  0.00     0.012 C 
BRANCH  17  19
HETATM   19  C           1     -21.485  -8.557  -2.610  0.00  0.00     0.002 C 
HETATM   20  C           1     -20.380  -8.924  -1.629  0.00  0.00     0.005 C 
ENDBRANCH  17  19
ENDBRANCH  16  17
BRANCH  16  21
HETATM   21  N           1     -22.024  -6.153  -3.466  0.00  0.00    -0.066 N 
HETATM   22  H           1     -22.306  -5.254  -3.920  0.00  0.00     0.275 HD
HETATM   23  H           1     -22.841  -6.803  -3.444  0.00  0.00     0.275 HD
HETATM   24  H           1     -21.703  -5.964  -2.489  0.00  0.00     0.275 HD
ENDBRANCH  16  21
ENDBRANCH   3  16
TORSDOF 9
ENDMDL
MODEL 9
REMARK VINA RESULT:      -5.3     16.169     18.536
REMARK  9 active torsions:
REMARK  status: ('A' for Active; 'I' for Inactive)
REMARK    1  A    between atoms: C_1  and  C_2 
REMARK    2  A    between atoms: C_1  and  C_9 
REMARK    3  A    between atoms: C_2  and  C_3 
REMARK       I    between atoms: C_3  and  N_5 
REMARK    4  A    between atoms: C_7  and  C_20 
REMARK    5  A    between atoms: C_9  and  C_19 
REMARK    6  A    between atoms: C_9  and  N_16 
REMARK    7  A    between atoms: C_14  and  C_15 
REMARK    8  A    between atoms: C_14  and  C_20 
REMARK    9  A    between atoms: C_14  and  N_24 
REMARK       I    between atoms: C_15  and  N_16 
ROOT
HETATM    1  O           1     -20.482 -10.027  -0.284  0.00  0.00    -0.271 OA
HETATM    2  H           1     -22.589  -9.342  -2.505  0.00  0.00     0.163 HD
HETATM    3  C           1     -21.401 -10.207  -1.048  0.00  0.00     0.249 C 
HETATM    4  N           1     -21.820  -9.191  -1.865  0.00  0.00    -0.345 N 
ENDROOT
BRANCH   4   5
HETATM    5  C           1     -21.161  -7.900  -1.813  0.00  0.00     0.186 C 
BRANCH   5   6
HETATM    6  C           1     -20.626  -7.549  -3.195  0.00  0.00     0.045 C 
BRANCH   6   7
HETATM    7  C           1     -21.559  -8.110  -4.259  0.00  0.00     0.105 C 
BRANCH   7   8
HETATM    8  C           1     -21.841  -7.048  -5.293  0.00  0.00     0.215 C 
HETATM    9  O           1     -22.715  -6.236  -5.102  0.00  0.00    -0.274 OA
HETATM   10  N           1     -21.106  -7.004  -6.446  0.00  0.00    -0.370 N 
HETATM   11  H           1     -20.374  -7.683  -6.606  0.00  0.00     0.159 HD
HETATM   12  H           1     -21.295  -6.291  -7.140  0.00  0.00     0.159 HD
ENDBRANCH   7   8
ENDBRANCH   6   7
ENDBRANCH   5   6
BRANCH   5  13
HETATM   13  C           1     -22.151  -6.849  -1.375  0.00  0.00     0.196 C 
HETATM   14  O           1     -22.168  -5.733  -1.937  0.00  0.00    -0.646 OA
HETATM   15  O           1     -22.954  -7.094  -0.448  0.00  0.00    -0.646 OA
ENDBRANCH   5  13
ENDBRANCH   4   5
BRANCH   3  16
HETATM   16  C           1     -22.085 -11.551  -1.102  0.00  0.00     0.278 C 
BRANCH  16  17
HETATM   17  C           1     -22.981 -11.715   0.118  0.00  0.00     0.021 C 
HETATM   18  C           1     -24.234 -10.866  -0.054  0.00  0.00     0.012 C 
BRANCH  17  19
HETATM   19  C           1     -23.377 -13.179   0.261  0.00  0.00     0.002 C 
HETATM   20  C           1     -23.269 -13.594   1.722  0.00  0.00     0.005 C 
ENDBRANCH  17  19
ENDBRANCH  16  17
BRANCH  16  21
HETATM   21  N           1     -21.051 -12.637  -1.111  0.00  0.00    -0.066 N 
HETATM   22  H           1     -20.329 -12.424  -1.837  0.00  0.00     0.275 HD
HETATM   23  H           1     -20.595 -12.694  -0.173  0.00  0.00     0.275 HD
HETATM   24  H           1     -21.508 -13.551  -1.332  0.00  0.00     0.275 HD
ENDBRANCH  16  21
ENDBRANCH   3  16
TORSDOF 9
ENDMDL
