MODEL 1
REMARK VINA RESULT:      -6.6      0.000      0.000
REMARK  10 active torsions:
REMARK  status: ('A' for Active; 'I' for Inactive)
REMARK    1  A    between atoms: C_1  and  C_10 
REMARK    2  A    between atoms: C_1  and  O_18 
REMARK       I    between atoms: C_2  and  N_9 
REMARK    3  A    between atoms: C_2  and  C_20 
REMARK    4  A    between atoms: C_3  and  C_20 
REMARK    5  A    between atoms: C_3  and  C_4 
REMARK    6  A    between atoms: N_9  and  C_10 
REMARK    7  A    between atoms: C_10  and  C_15 
REMARK    8  A    between atoms: O_12  and  P_19 
REMARK    9  A    between atoms: N_13  and  C_20 
REMARK   10  A    between atoms: O_18  and  P_19 
ROOT
HETATM    1  C           1     -28.470  -6.402 -18.919  0.00  0.00     0.249 C 
HETATM    2  H           1     -27.622  -8.276 -19.151  0.00  0.00     0.163 HD
HETATM    3  N           1     -27.474  -7.280 -19.255  0.00  0.00    -0.343 N 
HETATM    4  O           1     -28.294  -5.213 -19.044  0.00  0.00    -0.271 OA
ENDROOT
BRANCH   3   5
HETATM    5  C           1     -26.210  -6.784 -19.761  0.00  0.00     0.210 C 
BRANCH   5   6
HETATM    6  C           1     -25.187  -6.759 -18.632  0.00  0.00     0.217 C 
BRANCH   6   7
HETATM    7  O           1     -25.735  -6.108 -17.518  0.00  0.00    -0.287 OA
BRANCH   7   8
HETATM    8  P           1     -25.376  -6.745 -16.079  0.00  0.00     0.406 P 
HETATM    9  O           1     -24.933  -5.670 -15.162  0.00  0.00    -0.624 OA
HETATM   10  O           1     -26.575  -7.406 -15.518  0.00  0.00    -0.624 OA
BRANCH   8  11
HETATM   11  O           1     -24.194  -7.831 -16.249  0.00  0.00    -0.300 OA
HETATM   12  H           1     -23.416  -7.394 -15.947  0.00  0.00     0.223 HD
ENDBRANCH   8  11
ENDBRANCH   7   8
ENDBRANCH   6   7
ENDBRANCH   5   6
BRANCH   5  13
HETATM   13  C           1     -25.720  -7.689 -20.865  0.00  0.00     0.198 C 
HETATM   14  O           1     -24.535  -7.612 -21.256  0.00  0.00    -0.646 OA
HETATM   15  O           1     -26.499  -8.515 -21.387  0.00  0.00    -0.646 OA
ENDBRANCH   5  13
ENDBRANCH   3   5
BRANCH   1  16
HETATM   16  C           1     -29.786  -6.917 -18.393  0.00  0.00     0.275 C 
BRANCH  16  17
HETATM   17  C           1     -29.960  -6.484 -16.944  0.00  0.00     0.046 C 
BRANCH  17  18
HETATM   18  C           1     -31.323  -5.825 -16.771  0.00  0.00    -0.020 C 
HETATM   19  C           1     -31.277  -4.410 -17.332  0.00  0.00     0.009 C 
HETATM   20  C           1     -32.375  -6.632 -17.520  0.00  0.00     0.009 C 
ENDBRANCH  17  18
ENDBRANCH  16  17
BRANCH  16  21
HETATM   21  N           1     -29.803  -8.415 -18.473  0.00  0.00    -0.066 N 
HETATM   22  H           1     -29.065  -8.737 -19.139  0.00  0.00     0.275 HD
HETATM   23  H           1     -29.617  -8.816 -17.526  0.00  0.00     0.275 HD
HETATM   24  H           1     -30.739  -8.735 -18.810  0.00  0.00     0.275 HD
ENDBRANCH  16  21
ENDBRANCH   1  16
TORSDOF 10
ENDMDL
MODEL 2
REMARK VINA RESULT:      -6.1     12.431     14.255
REMARK  10 active torsions:
REMARK  status: ('A' for Active; 'I' for Inactive)
REMARK    1  A    between atoms: C_1  and  C_10 
REMARK    2  A    between atoms: C_1  and  O_18 
REMARK       I    between atoms: C_2  and  N_9 
REMARK    3  A    between atoms: C_2  and  C_20 
REMARK    4  A    between atoms: C_3  and  C_20 
REMARK    5  A    between atoms: C_3  and  C_4 
REMARK    6  A    between atoms: N_9  and  C_10 
REMARK    7  A    between atoms: C_10  and  C_15 
REMARK    8  A    between atoms: O_12  and  P_19 
REMARK    9  A    between atoms: N_13  and  C_20 
REMARK   10  A    between atoms: O_18  and  P_19 
ROOT
HETATM    1  C           1     -21.184  -6.549  -5.521  0.00  0.00     0.249 C 
HETATM    2  H           1     -21.037  -4.487  -5.424  0.00  0.00     0.163 HD
HETATM    3  N           1     -21.170  -5.281  -6.038  0.00  0.00    -0.343 N 
HETATM    4  O           1     -21.342  -7.498  -6.253  0.00  0.00    -0.271 OA
ENDROOT
BRANCH   3   5
HETATM    5  C           1     -21.343  -5.076  -7.462  0.00  0.00     0.210 C 
BRANCH   5   6
HETATM    6  C           1     -22.261  -3.883  -7.694  0.00  0.00     0.217 C 
BRANCH   6   7
HETATM    7  O           1     -23.469  -4.323  -8.254  0.00  0.00    -0.287 OA
BRANCH   7   8
HETATM    8  P           1     -23.694  -3.980  -9.815  0.00  0.00     0.406 P 
HETATM    9  O           1     -24.002  -5.226 -10.553  0.00  0.00    -0.624 OA
HETATM   10  O           1     -24.822  -3.033  -9.955  0.00  0.00    -0.624 OA
BRANCH   8  11
HETATM   11  O           1     -22.353  -3.313 -10.418  0.00  0.00    -0.300 OA
HETATM   12  H           1     -22.215  -3.746 -11.243  0.00  0.00     0.223 HD
ENDBRANCH   8  11
ENDBRANCH   7   8
ENDBRANCH   6   7
ENDBRANCH   5   6
BRANCH   5  13
HETATM   13  C           1     -20.001  -4.811  -8.098  0.00  0.00     0.198 C 
HETATM   14  O           1     -19.900  -4.754  -9.343  0.00  0.00    -0.646 OA
HETATM   15  O           1     -18.990  -4.648  -7.381  0.00  0.00    -0.646 OA
ENDBRANCH   5  13
ENDBRANCH   3   5
BRANCH   1  16
HETATM   16  C           1     -21.004  -6.763  -4.039  0.00  0.00     0.275 C 
BRANCH  16  17
HETATM   17  C           1     -20.939  -8.255  -3.743  0.00  0.00     0.046 C 
BRANCH  17  18
HETATM   18  C           1     -20.194  -8.482  -2.434  0.00  0.00    -0.020 C 
HETATM   19  C           1     -21.106  -9.200  -1.448  0.00  0.00     0.009 C 
HETATM   20  C           1     -18.959  -9.334  -2.694  0.00  0.00     0.009 C 
ENDBRANCH  17  18
ENDBRANCH  16  17
BRANCH  16  21
HETATM   21  N           1     -22.161  -6.157  -3.302  0.00  0.00    -0.066 N 
HETATM   22  H           1     -22.604  -6.882  -2.693  0.00  0.00     0.275 HD
HETATM   23  H           1     -21.821  -5.366  -2.711  0.00  0.00     0.275 HD
HETATM   24  H           1     -22.864  -5.803  -3.989  0.00  0.00     0.275 HD
ENDBRANCH  16  21
ENDBRANCH   1  16
TORSDOF 10
ENDMDL
MODEL 3
REMARK VINA RESULT:      -5.8     12.792     14.842
REMARK  10 active torsions:
REMARK  status: ('A' for Active; 'I' for Inactive)
REMARK    1  A    between atoms: C_1  and  C_10 
REMARK    2  A    between atoms: C_1  and  O_18 
REMARK       I    between atoms: C_2  and  N_9 
REMARK    3  A    between atoms: C_2  and  C_20 
REMARK    4  A    between atoms: C_3  and  C_20 
REMARK    5  A    between atoms: C_3  and  C_4 
REMARK    6  A    between atoms: N_9  and  C_10 
REMARK    7  A    between atoms: C_10  and  C_15 
REMARK    8  A    between atoms: O_12  and  P_19 
REMARK    9  A    between atoms: N_13  and  C_20 
REMARK   10  A    between atoms: O_18  and  P_19 
ROOT
HETATM    1  C           1     -21.601  -5.422  -6.137  0.00  0.00     0.249 C 
HETATM    2  H           1     -20.039  -6.538  -5.363  0.00  0.00     0.163 HD
HETATM    3  N           1     -21.040  -6.389  -5.346  0.00  0.00    -0.343 N 
HETATM    4  O           1     -22.796  -5.243  -6.116  0.00  0.00    -0.271 OA
ENDROOT
BRANCH   3   5
HETATM    5  C           1     -21.879  -7.197  -4.484  0.00  0.00     0.210 C 
BRANCH   5   6
HETATM    6  C           1     -21.529  -8.668  -4.671  0.00  0.00     0.217 C 
BRANCH   6   7
HETATM    7  O           1     -20.477  -8.786  -5.590  0.00  0.00    -0.287 OA
BRANCH   7   8
HETATM    8  P           1     -19.208  -9.659  -5.106  0.00  0.00     0.406 P 
HETATM    9  O           1     -19.637 -11.055  -4.858  0.00  0.00    -0.624 OA
HETATM   10  O           1     -18.167  -9.644  -6.157  0.00  0.00    -0.624 OA
BRANCH   8  11
HETATM   11  O           1     -18.608  -9.030  -3.746  0.00  0.00    -0.300 OA
HETATM   12  H           1     -18.768  -9.681  -3.084  0.00  0.00     0.223 HD
ENDBRANCH   8  11
ENDBRANCH   7   8
ENDBRANCH   6   7
ENDBRANCH   5   6
BRANCH   5  13
HETATM   13  C           1     -21.647  -6.803  -3.045  0.00  0.00     0.198 C 
HETATM   14  O           1     -22.353  -5.916  -2.519  0.00  0.00    -0.646 OA
HETATM   15  O           1     -20.750  -7.364  -2.380  0.00  0.00    -0.646 OA
ENDBRANCH   5  13
ENDBRANCH   3   5
BRANCH   1  16
HETATM   16  C           1     -20.729  -4.580  -7.034  0.00  0.00     0.275 C 
BRANCH  16  17
HETATM   17  C           1     -20.756  -5.146  -8.448  0.00  0.00     0.046 C 
BRANCH  17  18
HETATM   18  C           1     -21.131  -4.042  -9.429  0.00  0.00    -0.020 C 
HETATM   19  C           1     -20.462  -4.307 -10.771  0.00  0.00     0.009 C 
HETATM   20  C           1     -22.643  -4.019  -9.613  0.00  0.00     0.009 C 
ENDBRANCH  17  18
ENDBRANCH  16  17
BRANCH  16  21
HETATM   21  N           1     -19.321  -4.593  -6.518  0.00  0.00    -0.066 N 
HETATM   22  H           1     -19.105  -5.535  -6.119  0.00  0.00     0.275 HD
HETATM   23  H           1     -18.661  -4.388  -7.301  0.00  0.00     0.275 HD
HETATM   24  H           1     -19.217  -3.868  -5.773  0.00  0.00     0.275 HD
ENDBRANCH  16  21
ENDBRANCH   1  16
TORSDOF 10
ENDMDL
MODEL 4
REMARK VINA RESULT:      -5.8     13.330     15.225
REMARK  10 active torsions:
REMARK  status: ('A' for Active; 'I' for Inactive)
REMARK    1  A    between atoms: C_1  and  C_10 
REMARK    2  A    between atoms: C_1  and  O_18 
REMARK       I    between atoms: C_2  and  N_9 
REMARK    3  A    between atoms: C_2  and  C_20 
REMARK    4  A    between atoms: C_3  and  C_20 
REMARK    5  A    between atoms: C_3  and  C_4 
REMARK    6  A    between atoms: N_9  and  C_10 
REMARK    7  A    between atoms: C_10  and  C_15 
REMARK    8  A    between atoms: O_12  and  P_19 
REMARK    9  A    between atoms: N_13  and  C_20 
REMARK   10  A    between atoms: O_18  and  P_19 
ROOT
HETATM    1  C           1     -21.044  -5.191  -6.123  0.00  0.00     0.249 C 
HETATM    2  H           1     -22.585  -6.393  -5.442  0.00  0.00     0.163 HD
HETATM    3  N           1     -21.622  -6.116  -5.296  0.00  0.00    -0.343 N 
HETATM    4  O           1     -19.895  -4.860  -5.949  0.00  0.00    -0.271 OA
ENDROOT
BRANCH   3   5
HETATM    5  C           1     -20.857  -6.699  -4.212  0.00  0.00     0.210 C 
BRANCH   5   6
HETATM    6  C           1     -21.673  -6.645  -2.928  0.00  0.00     0.217 C 
BRANCH   6   7
HETATM    7  O           1     -20.958  -7.260  -1.891  0.00  0.00    -0.287 OA
BRANCH   7   8
HETATM    8  P           1     -21.837  -8.062  -0.801  0.00  0.00     0.406 P 
HETATM    9  O           1     -22.310  -9.336  -1.390  0.00  0.00    -0.624 OA
HETATM   10  O           1     -21.007  -8.349   0.390  0.00  0.00    -0.624 OA
BRANCH   8  11
HETATM   11  O           1     -23.107  -7.164  -0.368  0.00  0.00    -0.300 OA
HETATM   12  H           1     -23.285  -7.408   0.525  0.00  0.00     0.223 HD
ENDBRANCH   8  11
ENDBRANCH   7   8
ENDBRANCH   6   7
ENDBRANCH   5   6
BRANCH   5  13
HETATM   13  C           1     -20.533  -8.136  -4.543  0.00  0.00     0.198 C 
HETATM   14  O           1     -21.456  -8.959  -4.726  0.00  0.00    -0.646 OA
HETATM   15  O           1     -19.341  -8.503  -4.633  0.00  0.00    -0.646 OA
ENDBRANCH   5  13
ENDBRANCH   3   5
BRANCH   1  16
HETATM   16  C           1     -21.840  -4.584  -7.251  0.00  0.00     0.275 C 
BRANCH  16  17
HETATM   17  C           1     -21.307  -5.094  -8.583  0.00  0.00     0.046 C 
BRANCH  17  18
HETATM   18  C           1     -21.699  -4.124  -9.691  0.00  0.00    -0.020 C 
HETATM   19  C           1     -20.599  -4.082 -10.743  0.00  0.00     0.009 C 
HETATM   20  C           1     -22.999  -4.590 -10.335  0.00  0.00     0.009 C 
ENDBRANCH  17  18
ENDBRANCH  16  17
BRANCH  16  21
HETATM   21  N           1     -21.716  -3.090  -7.202  0.00  0.00    -0.066 N 
HETATM   22  H           1     -21.839  -2.762  -6.217  0.00  0.00     0.275 HD
HETATM   23  H           1     -20.771  -2.808  -7.547  0.00  0.00     0.275 HD
HETATM   24  H           1     -22.452  -2.660  -7.806  0.00  0.00     0.275 HD
ENDBRANCH  16  21
ENDBRANCH   1  16
TORSDOF 10
ENDMDL
MODEL 5
REMARK VINA RESULT:      -5.7     11.605     13.554
REMARK  10 active torsions:
REMARK  status: ('A' for Active; 'I' for Inactive)
REMARK    1  A    between atoms: C_1  and  C_10 
REMARK    2  A    between atoms: C_1  and  O_18 
REMARK       I    between atoms: C_2  and  N_9 
REMARK    3  A    between atoms: C_2  and  C_20 
REMARK    4  A    between atoms: C_3  and  C_20 
REMARK    5  A    between atoms: C_3  and  C_4 
REMARK    6  A    between atoms: N_9  and  C_10 
REMARK    7  A    between atoms: C_10  and  C_15 
REMARK    8  A    between atoms: O_12  and  P_19 
REMARK    9  A    between atoms: N_13  and  C_20 
REMARK   10  A    between atoms: O_18  and  P_19 
ROOT
HETATM    1  C           1     -22.369  -4.437  -7.770  0.00  0.00     0.249 C 
HETATM    2  H           1     -22.714  -6.476  -7.684  0.00  0.00     0.163 HD
HETATM    3  N           1     -22.279  -5.689  -7.221  0.00  0.00    -0.343 N 
HETATM    4  O           1     -21.850  -3.496  -7.218  0.00  0.00    -0.271 OA
ENDROOT
BRANCH   3   5
HETATM    5  C           1     -21.560  -5.884  -5.979  0.00  0.00     0.210 C 
BRANCH   5   6
HETATM    6  C           1     -22.329  -6.858  -5.096  0.00  0.00     0.217 C 
BRANCH   6   7
HETATM    7  O           1     -22.715  -6.214  -3.913  0.00  0.00    -0.287 OA
BRANCH   7   8
HETATM    8  P           1     -21.758  -6.445  -2.634  0.00  0.00     0.406 P 
HETATM    9  O           1     -20.766  -5.349  -2.557  0.00  0.00    -0.624 OA
HETATM   10  O           1     -22.575  -6.456  -1.400  0.00  0.00    -0.624 OA
BRANCH   8  11
HETATM   11  O           1     -20.991  -7.857  -2.783  0.00  0.00    -0.300 OA
HETATM   12  H           1     -21.466  -8.453  -2.229  0.00  0.00     0.223 HD
ENDBRANCH   8  11
ENDBRANCH   7   8
ENDBRANCH   6   7
ENDBRANCH   5   6
BRANCH   5  13
HETATM   13  C           1     -20.190  -6.446  -6.274  0.00  0.00     0.198 C 
HETATM   14  O           1     -19.396  -5.808  -7.000  0.00  0.00    -0.646 OA
HETATM   15  O           1     -19.850  -7.549  -5.794  0.00  0.00    -0.646 OA
ENDBRANCH   5  13
ENDBRANCH   3   5
BRANCH   1  16
HETATM   16  C           1     -23.118  -4.233  -9.064  0.00  0.00     0.275 C 
BRANCH  16  17
HETATM   17  C           1     -22.306  -3.332  -9.985  0.00  0.00     0.046 C 
BRANCH  17  18
HETATM   18  C           1     -21.830  -4.136 -11.189  0.00  0.00    -0.020 C 
HETATM   19  C           1     -22.232  -3.418 -12.471  0.00  0.00     0.009 C 
HETATM   20  C           1     -20.314  -4.273 -11.140  0.00  0.00     0.009 C 
ENDBRANCH  17  18
ENDBRANCH  16  17
BRANCH  16  21
HETATM   21  N           1     -24.443  -3.590  -8.778  0.00  0.00    -0.066 N 
HETATM   22  H           1     -24.496  -3.336  -7.765  0.00  0.00     0.275 HD
HETATM   23  H           1     -24.543  -2.727  -9.359  0.00  0.00     0.275 HD
HETATM   24  H           1     -25.211  -4.259  -9.009  0.00  0.00     0.275 HD
ENDBRANCH  16  21
ENDBRANCH   1  16
TORSDOF 10
ENDMDL
MODEL 6
REMARK VINA RESULT:      -5.7     14.486     16.252
REMARK  10 active torsions:
REMARK  status: ('A' for Active; 'I' for Inactive)
REMARK    1  A    between atoms: C_1  and  C_10 
REMARK    2  A    between atoms: C_1  and  O_18 
REMARK       I    between atoms: C_2  and  N_9 
REMARK    3  A    between atoms: C_2  and  C_20 
REMARK    4  A    between atoms: C_3  and  C_20 
REMARK    5  A    between atoms: C_3  and  C_4 
REMARK    6  A    between atoms: N_9  and  C_10 
REMARK    7  A    between atoms: C_10  and  C_15 
REMARK    8  A    between atoms: O_12  and  P_19 
REMARK    9  A    between atoms: N_13  and  C_20 
REMARK   10  A    between atoms: O_18  and  P_19 
ROOT
HETATM    1  C           1     -20.616  -7.594  -5.217  0.00  0.00     0.249 C 
HETATM    2  H           1     -21.969  -7.867  -3.675  0.00  0.00     0.163 HD
HETATM    3  N           1     -21.130  -8.223  -4.115  0.00  0.00    -0.343 N 
HETATM    4  O           1     -19.614  -8.019  -5.743  0.00  0.00    -0.271 OA
ENDROOT
BRANCH   3   5
HETATM    5  C           1     -20.474  -9.399  -3.579  0.00  0.00     0.210 C 
BRANCH   5   6
HETATM    6  C           1     -20.245  -9.216  -2.085  0.00  0.00     0.217 C 
BRANCH   6   7
HETATM    7  O           1     -20.836  -8.017  -1.664  0.00  0.00    -0.287 OA
BRANCH   7   8
HETATM    8  P           1     -21.953  -8.146  -0.506  0.00  0.00     0.406 P 
HETATM    9  O           1     -21.288  -8.229   0.814  0.00  0.00    -0.624 OA
HETATM   10  O           1     -22.838  -6.960  -0.538  0.00  0.00    -0.624 OA
BRANCH   8  11
HETATM   11  O           1     -22.832  -9.478  -0.751  0.00  0.00    -0.300 OA
HETATM   12  H           1     -23.689  -9.165  -0.985  0.00  0.00     0.223 HD
ENDBRANCH   8  11
ENDBRANCH   7   8
ENDBRANCH   6   7
ENDBRANCH   5   6
BRANCH   5  13
HETATM   13  C           1     -21.346 -10.610  -3.810  0.00  0.00     0.198 C 
HETATM   14  O           1     -20.871 -11.627  -4.360  0.00  0.00    -0.646 OA
HETATM   15  O           1     -22.543 -10.595  -3.451  0.00  0.00    -0.646 OA
ENDBRANCH   5  13
ENDBRANCH   3   5
BRANCH   1  16
HETATM   16  C           1     -21.298  -6.370  -5.775  0.00  0.00     0.275 C 
BRANCH  16  17
HETATM   17  C           1     -20.406  -5.152  -5.571  0.00  0.00     0.046 C 
BRANCH  17  18
HETATM   18  C           1     -20.231  -4.424  -6.897  0.00  0.00    -0.020 C 
HETATM   19  C           1     -20.125  -5.441  -8.025  0.00  0.00     0.009 C 
HETATM   20  C           1     -21.432  -3.520  -7.142  0.00  0.00     0.009 C 
ENDBRANCH  17  18
ENDBRANCH  16  17
BRANCH  16  21
HETATM   21  N           1     -22.603  -6.159  -5.065  0.00  0.00    -0.066 N 
HETATM   22  H           1     -22.434  -6.099  -4.035  0.00  0.00     0.275 HD
HETATM   23  H           1     -23.039  -5.270  -5.398  0.00  0.00     0.275 HD
HETATM   24  H           1     -23.242  -6.959  -5.268  0.00  0.00     0.275 HD
ENDBRANCH  16  21
ENDBRANCH   1  16
TORSDOF 10
ENDMDL
MODEL 7
REMARK VINA RESULT:      -5.7     16.058     17.735
REMARK  10 active torsions:
REMARK  status: ('A' for Active; 'I' for Inactive)
REMARK    1  A    between atoms: C_1  and  C_10 
REMARK    2  A    between atoms: C_1  and  O_18 
REMARK       I    between atoms: C_2  and  N_9 
REMARK    3  A    between atoms: C_2  and  C_20 
REMARK    4  A    between atoms: C_3  and  C_20 
REMARK    5  A    between atoms: C_3  and  C_4 
REMARK    6  A    between atoms: N_9  and  C_10 
REMARK    7  A    between atoms: C_10  and  C_15 
REMARK    8  A    between atoms: O_12  and  P_19 
REMARK    9  A    between atoms: N_13  and  C_20 
REMARK   10  A    between atoms: O_18  and  P_19 
ROOT
HETATM    1  C           1     -20.559 -10.075  -1.501  0.00  0.00     0.249 C 
HETATM    2  H           1     -22.484  -9.340  -1.305  0.00  0.00     0.163 HD
HETATM    3  N           1     -21.552  -9.142  -1.644  0.00  0.00    -0.343 N 
HETATM    4  O           1     -19.445  -9.839  -1.905  0.00  0.00    -0.271 OA
ENDROOT
BRANCH   3   5
HETATM    5  C           1     -21.266  -7.872  -2.281  0.00  0.00     0.210 C 
BRANCH   5   6
HETATM    6  C           1     -21.525  -7.986  -3.778  0.00  0.00     0.217 C 
BRANCH   6   7
HETATM    7  O           1     -20.526  -7.297  -4.480  0.00  0.00    -0.287 OA
BRANCH   7   8
HETATM    8  P           1     -21.039  -6.222  -5.569  0.00  0.00     0.406 P 
HETATM    9  O           1     -20.237  -4.982  -5.453  0.00  0.00    -0.624 OA
HETATM   10  O           1     -20.882  -6.783  -6.930  0.00  0.00    -0.624 OA
BRANCH   8  11
HETATM   11  O           1     -22.595  -5.885  -5.303  0.00  0.00    -0.300 OA
HETATM   12  H           1     -23.037  -6.715  -5.359  0.00  0.00     0.223 HD
ENDBRANCH   8  11
ENDBRANCH   7   8
ENDBRANCH   6   7
ENDBRANCH   5   6
BRANCH   5  13
HETATM   13  C           1     -22.157  -6.805  -1.695  0.00  0.00     0.198 C 
HETATM   14  O           1     -22.330  -5.728  -2.308  0.00  0.00    -0.646 OA
HETATM   15  O           1     -22.723  -6.996  -0.597  0.00  0.00    -0.646 OA
ENDBRANCH   5  13
ENDBRANCH   3   5
BRANCH   1  16
HETATM   16  C           1     -20.856 -11.397  -0.838  0.00  0.00     0.275 C 
BRANCH  16  17
HETATM   17  C           1     -21.773 -11.173   0.357  0.00  0.00     0.046 C 
BRANCH  17  18
HETATM   18  C           1     -23.106 -11.870   0.111  0.00  0.00    -0.020 C 
HETATM   19  C           1     -24.203 -10.826  -0.046  0.00  0.00     0.009 C 
HETATM   20  C           1     -23.015 -12.704  -1.160  0.00  0.00     0.009 C 
ENDBRANCH  17  18
ENDBRANCH  16  17
BRANCH  16  21
HETATM   21  N           1     -19.573 -12.022  -0.373  0.00  0.00    -0.066 N 
HETATM   22  H           1     -19.714 -12.444   0.572  0.00  0.00     0.275 HD
HETATM   23  H           1     -19.285 -12.766  -1.047  0.00  0.00     0.275 HD
HETATM   24  H           1     -18.829 -11.290  -0.321  0.00  0.00     0.275 HD
ENDBRANCH  16  21
ENDBRANCH   1  16
TORSDOF 10
ENDMDL
MODEL 8
REMARK VINA RESULT:      -5.6      2.806      6.074
REMARK  10 active torsions:
REMARK  status: ('A' for Active; 'I' for Inactive)
REMARK    1  A    between atoms: C_1  and  C_10 
REMARK    2  A    between atoms: C_1  and  O_18 
REMARK       I    between atoms: C_2  and  N_9 
REMARK    3  A    between atoms: C_2  and  C_20 
REMARK    4  A    between atoms: C_3  and  C_20 
REMARK    5  A    between atoms: C_3  and  C_4 
REMARK    6  A    between atoms: N_9  and  C_10 
REMARK    7  A    between atoms: C_10  and  C_15 
REMARK    8  A    between atoms: O_12  and  P_19 
REMARK    9  A    between atoms: N_13  and  C_20 
REMARK   10  A    between atoms: O_18  and  P_19 
ROOT
HETATM    1  C           1     -26.310  -6.496 -19.733  0.00  0.00     0.249 C 
HETATM    2  H           1     -24.946  -7.204 -18.347  0.00  0.00     0.163 HD
HETATM    3  N           1     -25.824  -6.718 -18.472  0.00  0.00    -0.343 N 
HETATM    4  O           1     -27.358  -5.914 -19.883  0.00  0.00    -0.271 OA
ENDROOT
BRANCH   3   5
HETATM    5  C           1     -26.568  -6.255 -17.317  0.00  0.00     0.210 C 
BRANCH   5   6
HETATM    6  C           1     -27.870  -7.036 -17.206  0.00  0.00     0.217 C 
BRANCH   6   7
HETATM    7  O           1     -28.771  -6.333 -16.394  0.00  0.00    -0.287 OA
BRANCH   7   8
HETATM    8  P           1     -30.198  -5.980 -17.059  0.00  0.00     0.406 P 
HETATM    9  O           1     -29.984  -5.222 -18.312  0.00  0.00    -0.624 OA
HETATM   10  O           1     -30.927  -7.233 -17.360  0.00  0.00    -0.624 OA
BRANCH   8  11
HETATM   11  O           1     -31.066  -5.088 -16.030  0.00  0.00    -0.300 OA
HETATM   12  H           1     -31.635  -5.700 -15.596  0.00  0.00     0.223 HD
ENDBRANCH   8  11
ENDBRANCH   7   8
ENDBRANCH   6   7
ENDBRANCH   5   6
BRANCH   5  13
HETATM   13  C           1     -25.744  -6.469 -16.071  0.00  0.00     0.198 C 
HETATM   14  O           1     -25.771  -7.574 -15.486  0.00  0.00    -0.646 OA
HETATM   15  O           1     -25.035  -5.542 -15.622  0.00  0.00    -0.646 OA
ENDBRANCH   5  13
ENDBRANCH   3   5
BRANCH   1  16
HETATM   16  C           1     -25.537  -6.977 -20.935  0.00  0.00     0.275 C 
BRANCH  16  17
HETATM   17  C           1     -24.393  -7.874 -20.480  0.00  0.00     0.046 C 
BRANCH  17  18
HETATM   18  C           1     -23.276  -7.837 -21.515  0.00  0.00    -0.020 C 
HETATM   19  C           1     -22.129  -8.728 -21.057  0.00  0.00     0.009 C 
HETATM   20  C           1     -23.806  -8.340 -22.851  0.00  0.00     0.009 C 
ENDBRANCH  17  18
ENDBRANCH  16  17
BRANCH  16  21
HETATM   21  N           1     -24.981  -5.798 -21.677  0.00  0.00    -0.066 N 
HETATM   22  H           1     -25.429  -4.922 -21.324  0.00  0.00     0.275 HD
HETATM   23  H           1     -23.949  -5.746 -21.526  0.00  0.00     0.275 HD
HETATM   24  H           1     -25.180  -5.904 -22.697  0.00  0.00     0.275 HD
ENDBRANCH  16  21
ENDBRANCH   1  16
TORSDOF 10
ENDMDL
MODEL 9
REMARK VINA RESULT:      -5.6     15.152     16.630
REMARK  10 active torsions:
REMARK  status: ('A' for Active; 'I' for Inactive)
REMARK    1  A    between atoms: C_1  and  C_10 
REMARK    2  A    between atoms: C_1  and  O_18 
REMARK       I    between atoms: C_2  and  N_9 
REMARK    3  A    between atoms: C_2  and  C_20 
REMARK    4  A    between atoms: C_3  and  C_20 
REMARK    5  A    between atoms: C_3  and  C_4 
REMARK    6  A    between atoms: N_9  and  C_10 
REMARK    7  A    between atoms: C_10  and  C_15 
REMARK    8  A    between atoms: O_12  and  P_19 
REMARK    9  A    between atoms: N_13  and  C_20 
REMARK   10  A    between atoms: O_18  and  P_19 
ROOT
HETATM    1  C           1     -21.712  -9.963  -2.565  0.00  0.00     0.249 C 
HETATM    2  H           1     -20.113  -8.649  -2.618  0.00  0.00     0.163 HD
HETATM    3  N           1     -20.709  -9.254  -3.170  0.00  0.00    -0.343 N 
HETATM    4  O           1     -22.423 -10.686  -3.223  0.00  0.00    -0.271 OA
ENDROOT
BRANCH   3   5
HETATM    5  C           1     -20.500  -9.369  -4.599  0.00  0.00     0.210 C 
BRANCH   5   6
HETATM    6  C           1     -21.210  -8.224  -5.309  0.00  0.00     0.217 C 
BRANCH   6   7
HETATM    7  O           1     -20.623  -7.007  -4.938  0.00  0.00    -0.287 OA
BRANCH   7   8
HETATM    8  P           1     -20.882  -5.762  -5.933  0.00  0.00     0.406 P 
HETATM    9  O           1     -22.323  -5.423  -5.933  0.00  0.00    -0.624 OA
HETATM   10  O           1     -20.101  -4.592  -5.476  0.00  0.00    -0.624 OA
BRANCH   8  11
HETATM   11  O           1     -20.423  -6.164  -7.428  0.00  0.00    -0.300 OA
HETATM   12  H           1     -20.770  -7.028  -7.566  0.00  0.00     0.223 HD
ENDBRANCH   8  11
ENDBRANCH   7   8
ENDBRANCH   6   7
ENDBRANCH   5   6
BRANCH   5  13
HETATM   13  C           1     -19.022  -9.307  -4.897  0.00  0.00     0.198 C 
HETATM   14  O           1     -18.618  -9.381  -6.078  0.00  0.00    -0.646 OA
HETATM   15  O           1     -18.200  -9.180  -3.963  0.00  0.00    -0.646 OA
ENDBRANCH   5  13
ENDBRANCH   3   5
BRANCH   1  16
HETATM   16  C           1     -21.930  -9.844  -1.077  0.00  0.00     0.275 C 
BRANCH  16  17
HETATM   17  C           1     -21.081  -8.705  -0.527  0.00  0.00     0.046 C 
BRANCH  17  18
HETATM   18  C           1     -21.990  -7.582  -0.045  0.00  0.00    -0.020 C 
HETATM   19  C           1     -22.303  -6.648  -1.206  0.00  0.00     0.009 C 
HETATM   20  C           1     -23.286  -8.174   0.492  0.00  0.00     0.009 C 
ENDBRANCH  17  18
ENDBRANCH  16  17
BRANCH  16  21
HETATM   21  N           1     -21.535 -11.129  -0.410  0.00  0.00    -0.066 N 
HETATM   22  H           1     -20.698 -11.528  -0.891  0.00  0.00     0.275 HD
HETATM   23  H           1     -21.306 -10.943   0.593  0.00  0.00     0.275 HD
HETATM   24  H           1     -22.327 -11.808  -0.467  0.00  0.00     0.275 HD
ENDBRANCH  16  21
ENDBRANCH   1  16
TORSDOF 10
ENDMDL
