MODEL 1
REMARK VINA RESULT:      -6.4      0.000      0.000
REMARK  9 active torsions:
REMARK  status: ('A' for Active; 'I' for Inactive)
REMARK       I    between atoms: N_4  and  C_21 
REMARK    1  A    between atoms: C_5  and  C_21 
REMARK    2  A    between atoms: C_5  and  C_11 
REMARK    3  A    between atoms: N_6  and  C_12 
REMARK    4  A    between atoms: C_10  and  C_12 
REMARK    5  A    between atoms: C_10  and  C_13 
REMARK    6  A    between atoms: C_11  and  C_18 
REMARK    7  A    between atoms: C_11  and  N_23 
REMARK    8  A    between atoms: C_12  and  C_20 
REMARK    9  A    between atoms: C_13  and  S_19 
REMARK       I    between atoms: C_20  and  N_23 
ROOT
HETATM    1  O           1     -34.314  -1.816 -11.551  0.00  0.00    -0.271 OA
HETATM    2  H           1     -35.379  -2.173 -14.480  0.00  0.00     0.163 HD
HETATM    3  C           1     -34.551  -2.378 -12.594  0.00  0.00     0.249 C 
HETATM    4  N           1     -35.180  -1.703 -13.606  0.00  0.00    -0.344 N 
ENDROOT
BRANCH   4   5
HETATM    5  C           1     -35.562  -0.316 -13.426  0.00  0.00     0.194 C 
BRANCH   5   6
HETATM    6  C           1     -35.384   0.434 -14.740  0.00  0.00     0.138 C 
BRANCH   6   7
HETATM    7  C           1     -35.606  -0.513 -15.894  0.00  0.00     0.217 C 
HETATM    8  O           1     -34.710  -1.232 -16.266  0.00  0.00    -0.274 OA
HETATM    9  N           1     -36.823  -0.556 -16.520  0.00  0.00    -0.370 N 
HETATM   10  H           1     -37.573   0.047 -16.208  0.00  0.00     0.159 HD
HETATM   11  H           1     -36.972  -1.191 -17.294  0.00  0.00     0.159 HD
ENDBRANCH   6   7
ENDBRANCH   5   6
BRANCH   5  12
HETATM   12  C           1     -37.006  -0.245 -12.997  0.00  0.00     0.197 C 
HETATM   13  O           1     -37.310   0.289 -11.908  0.00  0.00    -0.646 OA
HETATM   14  O           1     -37.900  -0.720 -13.730  0.00  0.00    -0.646 OA
ENDBRANCH   5  12
ENDBRANCH   4   5
BRANCH   3  15
HETATM   15  C           1     -34.154  -3.821 -12.782  0.00  0.00     0.275 C 
BRANCH  15  16
HETATM   16  N           1     -33.810  -4.062 -14.222  0.00  0.00    -0.066 N 
HETATM   17  H           1     -34.598  -3.738 -14.827  0.00  0.00     0.275 HD
HETATM   18  H           1     -32.943  -3.532 -14.466  0.00  0.00     0.275 HD
HETATM   19  H           1     -33.649  -5.083 -14.376  0.00  0.00     0.275 HD
ENDBRANCH  15  16
BRANCH  15  20
HETATM   20  C           1     -32.942  -4.132 -11.913  0.00  0.00     0.053 C 
BRANCH  20  21
HETATM   21  C           1     -33.109  -5.508 -11.282  0.00  0.00     0.076 C 
BRANCH  21  22
HETATM   22  S           1     -34.783  -5.663 -10.600  0.00  0.00    -0.173 SA
HETATM   23  C           1     -34.659  -7.421 -10.164  0.00  0.00     0.089 C 
ENDBRANCH  21  22
ENDBRANCH  20  21
ENDBRANCH  15  20
ENDBRANCH   3  15
TORSDOF 9
ENDMDL
MODEL 2
REMARK VINA RESULT:      -6.1      1.721      2.080
REMARK  9 active torsions:
REMARK  status: ('A' for Active; 'I' for Inactive)
REMARK       I    between atoms: N_4  and  C_21 
REMARK    1  A    between atoms: C_5  and  C_21 
REMARK    2  A    between atoms: C_5  and  C_11 
REMARK    3  A    between atoms: N_6  and  C_12 
REMARK    4  A    between atoms: C_10  and  C_12 
REMARK    5  A    between atoms: C_10  and  C_13 
REMARK    6  A    between atoms: C_11  and  C_18 
REMARK    7  A    between atoms: C_11  and  N_23 
REMARK    8  A    between atoms: C_12  and  C_20 
REMARK    9  A    between atoms: C_13  and  S_19 
REMARK       I    between atoms: C_20  and  N_23 
ROOT
HETATM    1  O           1     -33.444  -1.847 -10.949  0.00  0.00    -0.271 OA
HETATM    2  H           1     -35.968  -2.716 -12.598  0.00  0.00     0.163 HD
HETATM    3  C           1     -34.176  -2.580 -11.572  0.00  0.00     0.249 C 
HETATM    4  N           1     -35.356  -2.102 -12.076  0.00  0.00    -0.344 N 
ENDROOT
BRANCH   4   5
HETATM    5  C           1     -35.727  -0.717 -11.865  0.00  0.00     0.194 C 
BRANCH   5   6
HETATM    6  C           1     -36.327  -0.151 -13.145  0.00  0.00     0.138 C 
BRANCH   6   7
HETATM    7  C           1     -35.380  -0.393 -14.295  0.00  0.00     0.217 C 
HETATM    8  O           1     -35.375  -1.461 -14.859  0.00  0.00    -0.274 OA
HETATM    9  N           1     -34.527   0.598 -14.700  0.00  0.00    -0.370 N 
HETATM   10  H           1     -34.531   1.493 -14.228  0.00  0.00     0.159 HD
HETATM   11  H           1     -33.892   0.435 -15.471  0.00  0.00     0.159 HD
ENDBRANCH   6   7
ENDBRANCH   5   6
BRANCH   5  12
HETATM   12  C           1     -36.743  -0.634 -10.752  0.00  0.00     0.197 C 
HETATM   13  O           1     -37.947  -0.874 -10.986  0.00  0.00    -0.646 OA
HETATM   14  O           1     -36.380  -0.326  -9.597  0.00  0.00    -0.646 OA
ENDBRANCH   5  12
ENDBRANCH   4   5
BRANCH   3  15
HETATM   15  C           1     -33.790  -4.022 -11.792  0.00  0.00     0.275 C 
BRANCH  15  16
HETATM   16  N           1     -32.307  -4.117 -11.996  0.00  0.00    -0.066 N 
HETATM   17  H           1     -32.055  -3.706 -12.923  0.00  0.00     0.275 HD
HETATM   18  H           1     -31.817  -3.590 -11.238  0.00  0.00     0.275 HD
HETATM   19  H           1     -32.014  -5.120 -11.968  0.00  0.00     0.275 HD
ENDBRANCH  15  16
BRANCH  15  20
HETATM   20  C           1     -34.187  -4.847 -10.575  0.00  0.00     0.053 C 
BRANCH  20  21
HETATM   21  C           1     -33.870  -6.314 -10.829  0.00  0.00     0.076 C 
BRANCH  21  22
HETATM   22  S           1     -34.941  -7.353  -9.796  0.00  0.00    -0.173 SA
HETATM   23  C           1     -33.912  -8.846  -9.881  0.00  0.00     0.089 C 
ENDBRANCH  21  22
ENDBRANCH  20  21
ENDBRANCH  15  20
ENDBRANCH   3  15
TORSDOF 9
ENDMDL
MODEL 3
REMARK VINA RESULT:      -6.0      1.922      3.038
REMARK  9 active torsions:
REMARK  status: ('A' for Active; 'I' for Inactive)
REMARK       I    between atoms: N_4  and  C_21 
REMARK    1  A    between atoms: C_5  and  C_21 
REMARK    2  A    between atoms: C_5  and  C_11 
REMARK    3  A    between atoms: N_6  and  C_12 
REMARK    4  A    between atoms: C_10  and  C_12 
REMARK    5  A    between atoms: C_10  and  C_13 
REMARK    6  A    between atoms: C_11  and  C_18 
REMARK    7  A    between atoms: C_11  and  N_23 
REMARK    8  A    between atoms: C_12  and  C_20 
REMARK    9  A    between atoms: C_13  and  S_19 
REMARK       I    between atoms: C_20  and  N_23 
ROOT
HETATM    1  O           1     -36.657  -1.093 -12.759  0.00  0.00    -0.271 OA
HETATM    2  H           1     -33.927  -0.491 -14.182  0.00  0.00     0.163 HD
HETATM    3  C           1     -35.459  -1.049 -12.907  0.00  0.00     0.249 C 
HETATM    4  N           1     -34.931  -0.528 -14.058  0.00  0.00    -0.344 N 
ENDROOT
BRANCH   4   5
HETATM    5  C           1     -35.808  -0.029 -15.098  0.00  0.00     0.194 C 
BRANCH   5   6
HETATM    6  C           1     -35.394   1.387 -15.475  0.00  0.00     0.138 C 
BRANCH   6   7
HETATM    7  C           1     -36.543   2.081 -16.165  0.00  0.00     0.217 C 
HETATM    8  O           1     -36.335   3.051 -16.855  0.00  0.00    -0.274 OA
HETATM    9  N           1     -37.819   1.613 -16.009  0.00  0.00    -0.370 N 
HETATM   10  H           1     -37.993   0.801 -15.431  0.00  0.00     0.159 HD
HETATM   11  H           1     -38.589   2.079 -16.472  0.00  0.00     0.159 HD
ENDBRANCH   6   7
ENDBRANCH   5   6
BRANCH   5  12
HETATM   12  C           1     -35.708  -0.923 -16.310  0.00  0.00     0.197 C 
HETATM   13  O           1     -36.652  -0.976 -17.128  0.00  0.00    -0.646 OA
HETATM   14  O           1     -34.681  -1.610 -16.496  0.00  0.00    -0.646 OA
ENDBRANCH   5  12
ENDBRANCH   4   5
BRANCH   3  15
HETATM   15  C           1     -34.545  -1.568 -11.824  0.00  0.00     0.275 C 
BRANCH  15  16
HETATM   16  N           1     -35.268  -1.551 -10.509  0.00  0.00    -0.066 N 
HETATM   17  H           1     -34.583  -1.694  -9.733  0.00  0.00     0.275 HD
HETATM   18  H           1     -35.745  -0.629 -10.387  0.00  0.00     0.275 HD
HETATM   19  H           1     -35.980  -2.316 -10.493  0.00  0.00     0.275 HD
ENDBRANCH  15  16
BRANCH  15  20
HETATM   20  C           1     -34.127  -2.995 -12.153  0.00  0.00     0.053 C 
BRANCH  20  21
HETATM   21  C           1     -33.448  -3.618 -10.941  0.00  0.00     0.076 C 
BRANCH  21  22
HETATM   22  S           1     -33.949  -5.356 -10.792  0.00  0.00    -0.173 SA
HETATM   23  C           1     -34.868  -5.433 -12.355  0.00  0.00     0.089 C 
ENDBRANCH  21  22
ENDBRANCH  20  21
ENDBRANCH  15  20
ENDBRANCH   3  15
TORSDOF 9
ENDMDL
MODEL 4
REMARK VINA RESULT:      -5.9      2.038      3.156
REMARK  9 active torsions:
REMARK  status: ('A' for Active; 'I' for Inactive)
REMARK       I    between atoms: N_4  and  C_21 
REMARK    1  A    between atoms: C_5  and  C_21 
REMARK    2  A    between atoms: C_5  and  C_11 
REMARK    3  A    between atoms: N_6  and  C_12 
REMARK    4  A    between atoms: C_10  and  C_12 
REMARK    5  A    between atoms: C_10  and  C_13 
REMARK    6  A    between atoms: C_11  and  C_18 
REMARK    7  A    between atoms: C_11  and  N_23 
REMARK    8  A    between atoms: C_12  and  C_20 
REMARK    9  A    between atoms: C_13  and  S_19 
REMARK       I    between atoms: C_20  and  N_23 
ROOT
HETATM    1  O           1     -34.574  -3.206 -13.900  0.00  0.00    -0.271 OA
HETATM    2  H           1     -35.091  -1.269 -11.487  0.00  0.00     0.163 HD
HETATM    3  C           1     -34.529  -2.798 -12.764  0.00  0.00     0.249 C 
HETATM    4  N           1     -35.129  -1.611 -12.438  0.00  0.00    -0.344 N 
ENDROOT
BRANCH   4   5
HETATM    5  C           1     -35.820  -0.844 -13.457  0.00  0.00     0.194 C 
BRANCH   5   6
HETATM    6  C           1     -37.082  -0.234 -12.863  0.00  0.00     0.138 C 
BRANCH   6   7
HETATM    7  C           1     -37.057  -0.386 -11.362  0.00  0.00     0.217 C 
HETATM    8  O           1     -37.589  -1.339 -10.843  0.00  0.00    -0.274 OA
HETATM    9  N           1     -36.434   0.555 -10.588  0.00  0.00    -0.370 N 
HETATM   10  H           1     -35.989   1.353 -11.023  0.00  0.00     0.159 HD
HETATM   11  H           1     -36.417   0.452  -9.581  0.00  0.00     0.159 HD
ENDBRANCH   6   7
ENDBRANCH   5   6
BRANCH   5  12
HETATM   12  C           1     -34.915   0.255 -13.956  0.00  0.00     0.197 C 
HETATM   13  O           1     -34.608   1.204 -13.203  0.00  0.00    -0.646 OA
HETATM   14  O           1     -34.471   0.216 -15.124  0.00  0.00    -0.646 OA
ENDBRANCH   5  12
ENDBRANCH   4   5
BRANCH   3  15
HETATM   15  C           1     -33.810  -3.596 -11.704  0.00  0.00     0.275 C 
BRANCH  15  16
HETATM   16  N           1     -33.377  -2.681 -10.597  0.00  0.00    -0.066 N 
HETATM   17  H           1     -32.340  -2.734 -10.486  0.00  0.00     0.275 HD
HETATM   18  H           1     -33.652  -1.700 -10.830  0.00  0.00     0.275 HD
HETATM   19  H           1     -33.839  -2.969  -9.705  0.00  0.00     0.275 HD
ENDBRANCH  15  16
BRANCH  15  20
HETATM   20  C           1     -34.747  -4.659 -11.145  0.00  0.00     0.053 C 
BRANCH  20  21
HETATM   21  C           1     -33.969  -5.947 -10.906  0.00  0.00     0.076 C 
BRANCH  21  22
HETATM   22  S           1     -34.967  -7.078  -9.898  0.00  0.00    -0.173 SA
HETATM   23  C           1     -33.859  -8.508 -10.048  0.00  0.00     0.089 C 
ENDBRANCH  21  22
ENDBRANCH  20  21
ENDBRANCH  15  20
ENDBRANCH   3  15
TORSDOF 9
ENDMDL
MODEL 5
REMARK VINA RESULT:      -5.6     12.405     14.260
REMARK  9 active torsions:
REMARK  status: ('A' for Active; 'I' for Inactive)
REMARK       I    between atoms: N_4  and  C_21 
REMARK    1  A    between atoms: C_5  and  C_21 
REMARK    2  A    between atoms: C_5  and  C_11 
REMARK    3  A    between atoms: N_6  and  C_12 
REMARK    4  A    between atoms: C_10  and  C_12 
REMARK    5  A    between atoms: C_10  and  C_13 
REMARK    6  A    between atoms: C_11  and  C_18 
REMARK    7  A    between atoms: C_11  and  N_23 
REMARK    8  A    between atoms: C_12  and  C_20 
REMARK    9  A    between atoms: C_13  and  S_19 
REMARK       I    between atoms: C_20  and  N_23 
ROOT
HETATM    1  O           1     -21.597  -3.272  -7.136  0.00  0.00    -0.271 OA
HETATM    2  H           1     -22.596  -5.490  -9.117  0.00  0.00     0.163 HD
HETATM    3  C           1     -21.717  -4.377  -7.609  0.00  0.00     0.249 C 
HETATM    4  N           1     -22.495  -4.564  -8.720  0.00  0.00    -0.344 N 
ENDROOT
BRANCH   4   5
HETATM    5  C           1     -23.175  -3.438  -9.329  0.00  0.00     0.194 C 
BRANCH   5   6
HETATM    6  C           1     -22.433  -3.020 -10.592  0.00  0.00     0.138 C 
BRANCH   6   7
HETATM    7  C           1     -21.973  -4.249 -11.336  0.00  0.00     0.217 C 
HETATM    8  O           1     -20.852  -4.669 -11.174  0.00  0.00    -0.274 OA
HETATM    9  N           1     -22.825  -4.888 -12.195  0.00  0.00    -0.370 N 
HETATM   10  H           1     -23.764  -4.536 -12.331  0.00  0.00     0.159 HD
HETATM   11  H           1     -22.516  -5.713 -12.695  0.00  0.00     0.159 HD
ENDBRANCH   6   7
ENDBRANCH   5   6
BRANCH   5  12
HETATM   12  C           1     -24.587  -3.835  -9.682  0.00  0.00     0.197 C 
HETATM   13  O           1     -25.467  -2.959  -9.821  0.00  0.00    -0.646 OA
HETATM   14  O           1     -24.876  -5.041  -9.837  0.00  0.00    -0.646 OA
ENDBRANCH   5  12
ENDBRANCH   4   5
BRANCH   3  15
HETATM   15  C           1     -21.010  -5.550  -6.976  0.00  0.00     0.275 C 
BRANCH  15  16
HETATM   16  N           1     -19.874  -5.982  -7.855  0.00  0.00    -0.066 N 
HETATM   17  H           1     -19.050  -6.230  -7.263  0.00  0.00     0.275 HD
HETATM   18  H           1     -20.165  -6.817  -8.413  0.00  0.00     0.275 HD
HETATM   19  H           1     -19.618  -5.203  -8.502  0.00  0.00     0.275 HD
ENDBRANCH  15  16
BRANCH  15  20
HETATM   20  C           1     -20.468  -5.141  -5.612  0.00  0.00     0.053 C 
BRANCH  20  21
HETATM   21  C           1     -21.204  -5.908  -4.522  0.00  0.00     0.076 C 
BRANCH  21  22
HETATM   22  S           1     -21.538  -7.598  -5.091  0.00  0.00    -0.173 SA
HETATM   23  C           1     -19.901  -8.271  -4.692  0.00  0.00     0.089 C 
ENDBRANCH  21  22
ENDBRANCH  20  21
ENDBRANCH  15  20
ENDBRANCH   3  15
TORSDOF 9
ENDMDL
MODEL 6
REMARK VINA RESULT:      -5.6      8.914     10.441
REMARK  9 active torsions:
REMARK  status: ('A' for Active; 'I' for Inactive)
REMARK       I    between atoms: N_4  and  C_21 
REMARK    1  A    between atoms: C_5  and  C_21 
REMARK    2  A    between atoms: C_5  and  C_11 
REMARK    3  A    between atoms: N_6  and  C_12 
REMARK    4  A    between atoms: C_10  and  C_12 
REMARK    5  A    between atoms: C_10  and  C_13 
REMARK    6  A    between atoms: C_11  and  C_18 
REMARK    7  A    between atoms: C_11  and  N_23 
REMARK    8  A    between atoms: C_12  and  C_20 
REMARK    9  A    between atoms: C_13  and  S_19 
REMARK       I    between atoms: C_20  and  N_23 
ROOT
HETATM    1  O           1     -27.740  -6.097 -16.022  0.00  0.00    -0.271 OA
HETATM    2  H           1     -27.955  -6.994 -19.020  0.00  0.00     0.163 HD
HETATM    3  C           1     -27.363  -6.378 -17.135  0.00  0.00     0.249 C 
HETATM    4  N           1     -28.270  -6.759 -18.088  0.00  0.00    -0.344 N 
ENDROOT
BRANCH   4   5
HETATM    5  C           1     -29.681  -6.824 -17.761  0.00  0.00     0.194 C 
BRANCH   5   6
HETATM    6  C           1     -30.322  -5.464 -18.003  0.00  0.00     0.138 C 
BRANCH   6   7
HETATM    7  C           1     -30.998  -4.994 -16.739  0.00  0.00     0.217 C 
HETATM    8  O           1     -31.909  -4.202 -16.800  0.00  0.00    -0.274 OA
HETATM    9  N           1     -30.581  -5.464 -15.524  0.00  0.00    -0.370 N 
HETATM   10  H           1     -29.819  -6.127 -15.472  0.00  0.00     0.159 HD
HETATM   11  H           1     -31.036  -5.148 -14.675  0.00  0.00     0.159 HD
ENDBRANCH   6   7
ENDBRANCH   5   6
BRANCH   5  12
HETATM   12  C           1     -30.350  -7.859 -18.634  0.00  0.00     0.197 C 
HETATM   13  O           1     -29.664  -8.729 -19.210  0.00  0.00    -0.646 OA
HETATM   14  O           1     -31.592  -7.845 -18.778  0.00  0.00    -0.646 OA
ENDBRANCH   5  12
ENDBRANCH   4   5
BRANCH   3  15
HETATM   15  C           1     -25.895  -6.310 -17.475  0.00  0.00     0.275 C 
BRANCH  15  16
HETATM   16  N           1     -25.140  -7.293 -16.630  0.00  0.00    -0.066 N 
HETATM   17  H           1     -25.440  -8.264 -16.873  0.00  0.00     0.275 HD
HETATM   18  H           1     -24.116  -7.190 -16.808  0.00  0.00     0.275 HD
HETATM   19  H           1     -25.339  -7.108 -15.620  0.00  0.00     0.275 HD
ENDBRANCH  15  16
BRANCH  15  20
HETATM   20  C           1     -25.698  -6.651 -18.946  0.00  0.00     0.053 C 
BRANCH  20  21
HETATM   21  C           1     -24.262  -7.106 -19.175  0.00  0.00     0.076 C 
BRANCH  21  22
HETATM   22  S           1     -24.147  -7.970 -20.765  0.00  0.00    -0.173 SA
HETATM   23  C           1     -25.931  -8.024 -21.094  0.00  0.00     0.089 C 
ENDBRANCH  21  22
ENDBRANCH  20  21
ENDBRANCH  15  20
ENDBRANCH   3  15
TORSDOF 9
ENDMDL
MODEL 7
REMARK VINA RESULT:      -5.6     12.798     15.523
REMARK  9 active torsions:
REMARK  status: ('A' for Active; 'I' for Inactive)
REMARK       I    between atoms: N_4  and  C_21 
REMARK    1  A    between atoms: C_5  and  C_21 
REMARK    2  A    between atoms: C_5  and  C_11 
REMARK    3  A    between atoms: N_6  and  C_12 
REMARK    4  A    between atoms: C_10  and  C_12 
REMARK    5  A    between atoms: C_10  and  C_13 
REMARK    6  A    between atoms: C_11  and  C_18 
REMARK    7  A    between atoms: C_11  and  N_23 
REMARK    8  A    between atoms: C_12  and  C_20 
REMARK    9  A    between atoms: C_13  and  S_19 
REMARK       I    between atoms: C_20  and  N_23 
ROOT
HETATM    1  O           1     -21.729  -3.250  -8.620  0.00  0.00    -0.271 OA
HETATM    2  H           1     -22.713  -5.670  -6.883  0.00  0.00     0.163 HD
HETATM    3  C           1     -22.452  -4.149  -8.263  0.00  0.00     0.249 C 
HETATM    4  N           1     -22.108  -4.916  -7.182  0.00  0.00    -0.344 N 
ENDROOT
BRANCH   4   5
HETATM    5  C           1     -20.876  -4.648  -6.465  0.00  0.00     0.194 C 
BRANCH   5   6
HETATM    6  C           1     -20.928  -5.320  -5.100  0.00  0.00     0.138 C 
BRANCH   6   7
HETATM    7  C           1     -21.952  -6.428  -5.121  0.00  0.00     0.217 C 
HETATM    8  O           1     -23.113  -6.181  -4.894  0.00  0.00    -0.274 OA
HETATM    9  N           1     -21.567  -7.711  -5.398  0.00  0.00    -0.370 N 
HETATM   10  H           1     -20.595  -7.917  -5.588  0.00  0.00     0.159 HD
HETATM   11  H           1     -22.254  -8.454  -5.412  0.00  0.00     0.159 HD
ENDBRANCH   6   7
ENDBRANCH   5   6
BRANCH   5  12
HETATM   12  C           1     -19.709  -5.194  -7.252  0.00  0.00     0.197 C 
HETATM   13  O           1     -18.785  -4.433  -7.609  0.00  0.00    -0.646 OA
HETATM   14  O           1     -19.668  -6.409  -7.545  0.00  0.00    -0.646 OA
ENDBRANCH   5  12
ENDBRANCH   4   5
BRANCH   3  15
HETATM   15  C           1     -23.734  -4.428  -9.009  0.00  0.00     0.275 C 
BRANCH  15  16
HETATM   16  N           1     -24.602  -3.205  -8.984  0.00  0.00    -0.066 N 
HETATM   17  H           1     -24.588  -2.749  -9.924  0.00  0.00     0.275 HD
HETATM   18  H           1     -25.582  -3.479  -8.745  0.00  0.00     0.275 HD
HETATM   19  H           1     -24.242  -2.537  -8.266  0.00  0.00     0.275 HD
ENDBRANCH  15  16
BRANCH  15  20
HETATM   20  C           1     -23.413  -4.793 -10.452  0.00  0.00     0.053 C 
BRANCH  20  21
HETATM   21  C           1     -23.952  -3.713 -11.381  0.00  0.00     0.076 C 
BRANCH  21  22
HETATM   22  S           1     -22.568  -2.814 -12.133  0.00  0.00    -0.173 SA
HETATM   23  C           1     -23.248  -2.769 -13.815  0.00  0.00     0.089 C 
ENDBRANCH  21  22
ENDBRANCH  20  21
ENDBRANCH  15  20
ENDBRANCH   3  15
TORSDOF 9
ENDMDL
MODEL 8
REMARK VINA RESULT:      -5.2     14.717     16.852
REMARK  9 active torsions:
REMARK  status: ('A' for Active; 'I' for Inactive)
REMARK       I    between atoms: N_4  and  C_21 
REMARK    1  A    between atoms: C_5  and  C_21 
REMARK    2  A    between atoms: C_5  and  C_11 
REMARK    3  A    between atoms: N_6  and  C_12 
REMARK    4  A    between atoms: C_10  and  C_12 
REMARK    5  A    between atoms: C_10  and  C_13 
REMARK    6  A    between atoms: C_11  and  C_18 
REMARK    7  A    between atoms: C_11  and  N_23 
REMARK    8  A    between atoms: C_12  and  C_20 
REMARK    9  A    between atoms: C_13  and  S_19 
REMARK       I    between atoms: C_20  and  N_23 
ROOT
HETATM    1  O           1     -21.867  -7.327  -4.978  0.00  0.00    -0.271 OA
HETATM    2  H           1     -20.577  -4.495  -4.583  0.00  0.00     0.163 HD
HETATM    3  C           1     -21.392  -6.388  -4.386  0.00  0.00     0.249 C 
HETATM    4  N           1     -20.975  -5.283  -5.079  0.00  0.00    -0.344 N 
ENDROOT
BRANCH   4   5
HETATM    5  C           1     -21.104  -5.240  -6.522  0.00  0.00     0.194 C 
BRANCH   5   6
HETATM    6  C           1     -21.559  -3.851  -6.950  0.00  0.00     0.138 C 
BRANCH   6   7
HETATM    7  C           1     -22.445  -3.963  -8.166  0.00  0.00     0.217 C 
HETATM    8  O           1     -21.957  -3.951  -9.271  0.00  0.00    -0.274 OA
HETATM    9  N           1     -23.800  -4.078  -8.017  0.00  0.00    -0.370 N 
HETATM   10  H           1     -24.208  -4.088  -7.091  0.00  0.00     0.159 HD
HETATM   11  H           1     -24.394  -4.153  -8.833  0.00  0.00     0.159 HD
ENDBRANCH   6   7
ENDBRANCH   5   6
BRANCH   5  12
HETATM   12  C           1     -19.769  -5.550  -7.154  0.00  0.00     0.197 C 
HETATM   13  O           1     -19.037  -4.621  -7.558  0.00  0.00    -0.646 OA
HETATM   14  O           1     -19.395  -6.737  -7.272  0.00  0.00    -0.646 OA
ENDBRANCH   5  12
ENDBRANCH   4   5
BRANCH   3  15
HETATM   15  C           1     -21.258  -6.432  -2.883  0.00  0.00     0.275 C 
BRANCH  15  16
HETATM   16  N           1     -22.522  -5.926  -2.254  0.00  0.00    -0.066 N 
HETATM   17  H           1     -23.211  -5.685  -3.001  0.00  0.00     0.275 HD
HETATM   18  H           1     -22.924  -6.668  -1.637  0.00  0.00     0.275 HD
HETATM   19  H           1     -22.312  -5.076  -1.684  0.00  0.00     0.275 HD
ENDBRANCH  15  16
BRANCH  15  20
HETATM   20  C           1     -21.009  -7.867  -2.437  0.00  0.00     0.053 C 
BRANCH  20  21
HETATM   21  C           1     -21.301  -7.994  -0.948  0.00  0.00     0.076 C 
BRANCH  21  22
HETATM   22  S           1     -22.132  -9.575  -0.627  0.00  0.00    -0.173 SA
HETATM   23  C           1     -21.051 -10.095   0.735  0.00  0.00     0.089 C 
ENDBRANCH  21  22
ENDBRANCH  20  21
ENDBRANCH  15  20
ENDBRANCH   3  15
TORSDOF 9
ENDMDL
MODEL 9
REMARK VINA RESULT:      -5.1      9.498     11.545
REMARK  9 active torsions:
REMARK  status: ('A' for Active; 'I' for Inactive)
REMARK       I    between atoms: N_4  and  C_21 
REMARK    1  A    between atoms: C_5  and  C_21 
REMARK    2  A    between atoms: C_5  and  C_11 
REMARK    3  A    between atoms: N_6  and  C_12 
REMARK    4  A    between atoms: C_10  and  C_12 
REMARK    5  A    between atoms: C_10  and  C_13 
REMARK    6  A    between atoms: C_11  and  C_18 
REMARK    7  A    between atoms: C_11  and  N_23 
REMARK    8  A    between atoms: C_12  and  C_20 
REMARK    9  A    between atoms: C_13  and  S_19 
REMARK       I    between atoms: C_20  and  N_23 
ROOT
HETATM    1  O           1     -28.667  -5.440 -19.037  0.00  0.00    -0.271 OA
HETATM    2  H           1     -27.040  -8.098 -18.678  0.00  0.00     0.163 HD
HETATM    3  C           1     -28.291  -6.458 -18.506  0.00  0.00     0.249 C 
HETATM    4  N           1     -27.355  -7.245 -19.123  0.00  0.00    -0.344 N 
ENDROOT
BRANCH   4   5
HETATM    5  C           1     -26.815  -6.856 -20.411  0.00  0.00     0.194 C 
BRANCH   5   6
HETATM    6  C           1     -25.474  -6.162 -20.210  0.00  0.00     0.138 C 
BRANCH   6   7
HETATM    7  C           1     -24.718  -6.839 -19.094  0.00  0.00     0.217 C 
HETATM    8  O           1     -24.968  -6.569 -17.944  0.00  0.00    -0.274 OA
HETATM    9  N           1     -23.748  -7.760 -19.385  0.00  0.00    -0.370 N 
HETATM   10  H           1     -23.538  -7.986 -20.348  0.00  0.00     0.159 HD
HETATM   11  H           1     -23.240  -8.214 -18.636  0.00  0.00     0.159 HD
ENDBRANCH   6   7
ENDBRANCH   5   6
BRANCH   5  12
HETATM   12  C           1     -26.623  -8.085 -21.265  0.00  0.00     0.197 C 
HETATM   13  O           1     -25.512  -8.315 -21.790  0.00  0.00    -0.646 OA
HETATM   14  O           1     -27.575  -8.874 -21.447  0.00  0.00    -0.646 OA
ENDBRANCH   5  12
ENDBRANCH   4   5
BRANCH   3  15
HETATM   15  C           1     -28.853  -6.863 -17.165  0.00  0.00     0.275 C 
BRANCH  15  16
HETATM   16  N           1     -27.731  -7.035 -16.185  0.00  0.00    -0.066 N 
HETATM   17  H           1     -27.472  -8.046 -16.124  0.00  0.00     0.275 HD
HETATM   18  H           1     -26.903  -6.483 -16.503  0.00  0.00     0.275 HD
HETATM   19  H           1     -28.035  -6.696 -15.245  0.00  0.00     0.275 HD
ENDBRANCH  15  16
BRANCH  15  20
HETATM   20  C           1     -29.802  -5.782 -16.665  0.00  0.00     0.053 C 
BRANCH  20  21
HETATM   21  C           1     -31.219  -6.098 -17.125  0.00  0.00     0.076 C 
BRANCH  21  22
HETATM   22  S           1     -32.330  -4.751 -16.633  0.00  0.00    -0.173 SA
HETATM   23  C           1     -31.639  -3.502 -17.754  0.00  0.00     0.089 C 
ENDBRANCH  21  22
ENDBRANCH  20  21
ENDBRANCH  15  20
ENDBRANCH   3  15
TORSDOF 9
ENDMDL
