MODEL 1
REMARK VINA RESULT:      -6.0      0.000      0.000
REMARK  3 active torsions:
REMARK  status: ('A' for Active; 'I' for Inactive)
REMARK    1  A    between atoms: C_1  and  C_2 
REMARK       I    between atoms: C_2  and  N_12 
REMARK    2  A    between atoms: C_4  and  C_11 
REMARK    3  A    between atoms: C_11  and  N_12 
ROOT
HETATM    1  C           1     -23.941  -3.589 -12.019  0.00  0.00     0.251 C 
HETATM    2  N           1     -23.543  -3.038 -13.208  0.00  0.00    -0.349 N 
HETATM    3  O           1     -24.909  -3.150 -11.446  0.00  0.00    -0.271 OA
HETATM    4  H           1     -22.732  -3.406 -13.689  0.00  0.00     0.163 HD
ENDROOT
BRANCH   1   5
HETATM    5  C           1     -23.172  -4.743 -11.426  0.00  0.00     0.311 C 
HETATM    6  N           1     -21.753  -4.646 -11.754  0.00  0.00     0.097 N 
HETATM    7  C           1     -21.219  -3.649 -10.832  0.00  0.00     0.271 C 
HETATM    8  H           1     -21.284  -5.539 -11.599  0.00  0.00     0.317 HD
HETATM    9  C           1     -21.914  -3.961  -9.517  0.00  0.00     0.033 C 
HETATM   10  C           1     -23.197  -4.685  -9.908  0.00  0.00     0.047 C 
ENDBRANCH   1   5
BRANCH   2  11
HETATM   11  C           1     -24.283  -1.929 -13.778  0.00  0.00     0.235 C 
BRANCH  11  12
HETATM   12  C           1     -23.521  -1.366 -14.952  0.00  0.00     0.191 C 
HETATM   13  O           1     -22.635  -2.051 -15.508  0.00  0.00    -0.647 OA
HETATM   14  O           1     -23.777  -0.217 -15.371  0.00  0.00    -0.647 OA
ENDBRANCH  11  12
ENDBRANCH   2  11
TORSDOF 3
ENDMDL
MODEL 2
REMARK VINA RESULT:      -5.9     10.970     11.901
REMARK  3 active torsions:
REMARK  status: ('A' for Active; 'I' for Inactive)
REMARK    1  A    between atoms: C_1  and  C_2 
REMARK       I    between atoms: C_2  and  N_12 
REMARK    2  A    between atoms: C_4  and  C_11 
REMARK    3  A    between atoms: C_11  and  N_12 
ROOT
HETATM    1  C           1     -35.312  -1.849 -11.379  0.00  0.00     0.251 C 
HETATM    2  N           1     -34.620  -0.833 -11.982  0.00  0.00    -0.349 N 
HETATM    3  O           1     -36.519  -1.867 -11.424  0.00  0.00    -0.271 OA
HETATM    4  H           1     -33.609  -0.819 -11.945  0.00  0.00     0.163 HD
ENDROOT
BRANCH   1   5
HETATM    5  C           1     -34.568  -2.947 -10.659  0.00  0.00     0.311 C 
HETATM    6  N           1     -35.118  -4.256 -10.996  0.00  0.00     0.097 N 
HETATM    7  C           1     -34.567  -4.569 -12.312  0.00  0.00     0.271 C 
HETATM    8  H           1     -34.815  -4.961 -10.324  0.00  0.00     0.317 HD
HETATM    9  C           1     -33.128  -4.090 -12.227  0.00  0.00     0.033 C 
HETATM   10  C           1     -33.128  -3.025 -11.135  0.00  0.00     0.047 C 
ENDBRANCH   1   5
BRANCH   2  11
HETATM   11  C           1     -35.336   0.222 -12.674  0.00  0.00     0.235 C 
BRANCH  11  12
HETATM   12  C           1     -35.327  -0.053 -14.157  0.00  0.00     0.191 C 
HETATM   13  O           1     -34.440   0.451 -14.881  0.00  0.00    -0.647 OA
HETATM   14  O           1     -36.205  -0.784 -14.663  0.00  0.00    -0.647 OA
ENDBRANCH  11  12
ENDBRANCH   2  11
TORSDOF 3
ENDMDL
MODEL 3
REMARK VINA RESULT:      -5.7     11.206     12.151
REMARK  3 active torsions:
REMARK  status: ('A' for Active; 'I' for Inactive)
REMARK    1  A    between atoms: C_1  and  C_2 
REMARK       I    between atoms: C_2  and  N_12 
REMARK    2  A    between atoms: C_4  and  C_11 
REMARK    3  A    between atoms: C_11  and  N_12 
ROOT
HETATM    1  C           1     -35.217  -1.057 -12.088  0.00  0.00     0.251 C 
HETATM    2  N           1     -36.244  -1.044 -12.994  0.00  0.00    -0.349 N 
HETATM    3  O           1     -34.413  -0.156 -12.075  0.00  0.00    -0.271 OA
HETATM    4  H           1     -36.918  -1.799 -13.005  0.00  0.00     0.163 HD
ENDROOT
BRANCH   1   5
HETATM    5  C           1     -35.090  -2.196 -11.107  0.00  0.00     0.311 C 
HETATM    6  N           1     -35.281  -3.480 -11.773  0.00  0.00     0.097 N 
HETATM    7  C           1     -34.013  -3.749 -12.446  0.00  0.00     0.271 C 
HETATM    8  H           1     -35.467  -4.217 -11.093  0.00  0.00     0.317 HD
HETATM    9  C           1     -32.966  -3.298 -11.441  0.00  0.00     0.033 C 
HETATM   10  C           1     -33.677  -2.280 -10.557  0.00  0.00     0.047 C 
ENDBRANCH   1   5
BRANCH   2  11
HETATM   11  C           1     -36.366   0.051 -13.937  0.00  0.00     0.235 C 
BRANCH  11  12
HETATM   12  C           1     -35.952  -0.418 -15.310  0.00  0.00     0.191 C 
HETATM   13  O           1     -36.283   0.239 -16.321  0.00  0.00    -0.647 OA
HETATM   14  O           1     -35.278  -1.462 -15.437  0.00  0.00    -0.647 OA
ENDBRANCH  11  12
ENDBRANCH   2  11
TORSDOF 3
ENDMDL
MODEL 4
REMARK VINA RESULT:      -5.7      3.079      4.672
REMARK  3 active torsions:
REMARK  status: ('A' for Active; 'I' for Inactive)
REMARK    1  A    between atoms: C_1  and  C_2 
REMARK       I    between atoms: C_2  and  N_12 
REMARK    2  A    between atoms: C_4  and  C_11 
REMARK    3  A    between atoms: C_11  and  N_12 
ROOT
HETATM    1  C           1     -21.824  -4.224  -8.833  0.00  0.00     0.251 C 
HETATM    2  N           1     -23.174  -4.387  -8.991  0.00  0.00    -0.349 N 
HETATM    3  O           1     -21.095  -4.260  -9.795  0.00  0.00    -0.271 OA
HETATM    4  H           1     -23.785  -4.357  -8.184  0.00  0.00     0.163 HD
ENDROOT
BRANCH   1   5
HETATM    5  C           1     -21.246  -4.000  -7.457  0.00  0.00     0.311 C 
HETATM    6  N           1     -21.808  -4.943  -6.496  0.00  0.00     0.097 N 
HETATM    7  C           1     -21.094  -6.194  -6.733  0.00  0.00     0.271 C 
HETATM    8  H           1     -21.639  -4.630  -5.540  0.00  0.00     0.317 HD
HETATM    9  C           1     -19.659  -5.754  -6.967  0.00  0.00     0.033 C 
HETATM   10  C           1     -19.759  -4.308  -7.439  0.00  0.00     0.047 C 
ENDBRANCH   1   5
BRANCH   2  11
HETATM   11  C           1     -23.729  -4.603 -10.313  0.00  0.00     0.235 C 
BRANCH  11  12
HETATM   12  C           1     -24.629  -3.448 -10.676  0.00  0.00     0.191 C 
HETATM   13  O           1     -25.523  -3.078  -9.883  0.00  0.00    -0.647 OA
HETATM   14  O           1     -24.481  -2.859 -11.768  0.00  0.00    -0.647 OA
ENDBRANCH  11  12
ENDBRANCH   2  11
TORSDOF 3
ENDMDL
MODEL 5
REMARK VINA RESULT:      -5.6      2.307      3.228
REMARK  3 active torsions:
REMARK  status: ('A' for Active; 'I' for Inactive)
REMARK    1  A    between atoms: C_1  and  C_2 
REMARK       I    between atoms: C_2  and  N_12 
REMARK    2  A    between atoms: C_4  and  C_11 
REMARK    3  A    between atoms: C_11  and  N_12 
ROOT
HETATM    1  C           1     -21.677  -4.342 -10.239  0.00  0.00     0.251 C 
HETATM    2  N           1     -22.677  -3.468 -10.569  0.00  0.00    -0.349 N 
HETATM    3  O           1     -20.774  -4.547 -11.014  0.00  0.00    -0.271 OA
HETATM    4  H           1     -23.434  -3.296  -9.919  0.00  0.00     0.163 HD
ENDROOT
BRANCH   1   5
HETATM    5  C           1     -21.702  -5.050  -8.906  0.00  0.00     0.311 C 
HETATM    6  N           1     -20.350  -5.232  -8.389  0.00  0.00     0.097 N 
HETATM    7  C           1     -19.979  -3.932  -7.837  0.00  0.00     0.271 C 
HETATM    8  H           1     -20.336  -5.933  -7.647  0.00  0.00     0.317 HD
HETATM    9  C           1     -21.246  -3.454  -7.151  0.00  0.00     0.033 C 
HETATM   10  C           1     -22.381  -4.193  -7.852  0.00  0.00     0.047 C 
ENDBRANCH   1   5
BRANCH   2  11
HETATM   11  C           1     -22.654  -2.788 -11.850  0.00  0.00     0.235 C 
BRANCH  11  12
HETATM   12  C           1     -24.035  -2.806 -12.455  0.00  0.00     0.191 C 
HETATM   13  O           1     -24.193  -2.517 -13.661  0.00  0.00    -0.647 OA
HETATM   14  O           1     -25.022  -3.110 -11.752  0.00  0.00    -0.647 OA
ENDBRANCH  11  12
ENDBRANCH   2  11
TORSDOF 3
ENDMDL
MODEL 6
REMARK VINA RESULT:      -5.4      2.340      3.645
REMARK  3 active torsions:
REMARK  status: ('A' for Active; 'I' for Inactive)
REMARK    1  A    between atoms: C_1  and  C_2 
REMARK       I    between atoms: C_2  and  N_12 
REMARK    2  A    between atoms: C_4  and  C_11 
REMARK    3  A    between atoms: C_11  and  N_12 
ROOT
HETATM    1  C           1     -22.793  -3.999  -9.055  0.00  0.00     0.251 C 
HETATM    2  N           1     -22.495  -4.177 -10.379  0.00  0.00    -0.349 N 
HETATM    3  O           1     -23.934  -4.112  -8.673  0.00  0.00    -0.271 OA
HETATM    4  H           1     -21.539  -4.082 -10.699  0.00  0.00     0.163 HD
ENDROOT
BRANCH   1   5
HETATM    5  C           1     -21.699  -3.662  -8.072  0.00  0.00     0.311 C 
HETATM    6  N           1     -21.819  -4.468  -6.862  0.00  0.00     0.097 N 
HETATM    7  C           1     -21.271  -5.773  -7.223  0.00  0.00     0.271 C 
HETATM    8  H           1     -21.270  -4.067  -6.102  0.00  0.00     0.317 HD
HETATM    9  C           1     -20.058  -5.435  -8.072  0.00  0.00     0.033 C 
HETATM   10  C           1     -20.338  -4.043  -8.628  0.00  0.00     0.047 C 
ENDBRANCH   1   5
BRANCH   2  11
HETATM   11  C           1     -23.547  -4.500 -11.323  0.00  0.00     0.235 C 
BRANCH  11  12
HETATM   12  C           1     -23.913  -3.268 -12.112  0.00  0.00     0.191 C 
HETATM   13  O           1     -25.047  -3.171 -12.630  0.00  0.00    -0.647 OA
HETATM   14  O           1     -23.083  -2.343 -12.248  0.00  0.00    -0.647 OA
ENDBRANCH  11  12
ENDBRANCH   2  11
TORSDOF 3
ENDMDL
MODEL 7
REMARK VINA RESULT:      -5.3     11.686     12.536
REMARK  3 active torsions:
REMARK  status: ('A' for Active; 'I' for Inactive)
REMARK    1  A    between atoms: C_1  and  C_2 
REMARK       I    between atoms: C_2  and  N_12 
REMARK    2  A    between atoms: C_4  and  C_11 
REMARK    3  A    between atoms: C_11  and  N_12 
ROOT
HETATM    1  C           1     -35.419  -1.013 -12.957  0.00  0.00     0.251 C 
HETATM    2  N           1     -34.922  -0.463 -14.107  0.00  0.00    -0.349 N 
HETATM    3  O           1     -36.613  -1.103 -12.798  0.00  0.00    -0.271 OA
HETATM    4  H           1     -33.921  -0.388 -14.241  0.00  0.00     0.163 HD
ENDROOT
BRANCH   1   5
HETATM    5  C           1     -34.477  -1.508 -11.887  0.00  0.00     0.311 C 
HETATM    6  N           1     -35.144  -1.562 -10.591  0.00  0.00     0.097 N 
HETATM    7  C           1     -35.945  -2.782 -10.630  0.00  0.00     0.271 C 
HETATM    8  H           1     -34.462  -1.627  -9.834  0.00  0.00     0.317 HD
HETATM    9  C           1     -35.042  -3.788 -11.323  0.00  0.00     0.033 C 
HETATM   10  C           1     -34.072  -2.948 -12.147  0.00  0.00     0.047 C 
ENDBRANCH   1   5
BRANCH   2  11
HETATM   11  C           1     -35.828   0.012 -15.135  0.00  0.00     0.235 C 
BRANCH  11  12
HETATM   12  C           1     -35.860  -0.976 -16.275  0.00  0.00     0.191 C 
HETATM   13  O           1     -35.083  -1.956 -16.274  0.00  0.00    -0.647 OA
HETATM   14  O           1     -36.664  -0.817 -17.218  0.00  0.00    -0.647 OA
ENDBRANCH  11  12
ENDBRANCH   2  11
TORSDOF 3
ENDMDL
MODEL 8
REMARK VINA RESULT:      -5.3      3.321      5.906
REMARK  3 active torsions:
REMARK  status: ('A' for Active; 'I' for Inactive)
REMARK    1  A    between atoms: C_1  and  C_2 
REMARK       I    between atoms: C_2  and  N_12 
REMARK    2  A    between atoms: C_4  and  C_11 
REMARK    3  A    between atoms: C_11  and  N_12 
ROOT
HETATM    1  C           1     -22.623  -4.524  -9.931  0.00  0.00     0.251 C 
HETATM    2  N           1     -21.682  -4.127  -9.020  0.00  0.00    -0.349 N 
HETATM    3  O           1     -23.721  -4.861  -9.557  0.00  0.00    -0.271 OA
HETATM    4  H           1     -20.762  -3.844  -9.333  0.00  0.00     0.163 HD
ENDROOT
BRANCH   1   5
HETATM    5  C           1     -22.290  -4.542 -11.403  0.00  0.00     0.311 C 
HETATM    6  N           1     -23.497  -4.699 -12.208  0.00  0.00     0.097 N 
HETATM    7  C           1     -24.110  -3.374 -12.231  0.00  0.00     0.271 C 
HETATM    8  H           1     -23.263  -4.982 -13.159  0.00  0.00     0.317 HD
HETATM    9  C           1     -22.930  -2.430 -12.387  0.00  0.00     0.033 C 
HETATM   10  C           1     -21.731  -3.201 -11.846  0.00  0.00     0.047 C 
ENDBRANCH   1   5
BRANCH   2  11
HETATM   11  C           1     -22.003  -4.110  -7.606  0.00  0.00     0.235 C 
BRANCH  11  12
HETATM   12  C           1     -21.104  -5.077  -6.874  0.00  0.00     0.191 C 
HETATM   13  O           1     -20.506  -4.713  -5.838  0.00  0.00    -0.647 OA
HETATM   14  O           1     -20.959  -6.242  -7.302  0.00  0.00    -0.647 OA
ENDBRANCH  11  12
ENDBRANCH   2  11
TORSDOF 3
ENDMDL
MODEL 9
REMARK VINA RESULT:      -5.1     15.473     17.100
REMARK  3 active torsions:
REMARK  status: ('A' for Active; 'I' for Inactive)
REMARK    1  A    between atoms: C_1  and  C_2 
REMARK       I    between atoms: C_2  and  N_12 
REMARK    2  A    between atoms: C_4  and  C_11 
REMARK    3  A    between atoms: C_11  and  N_12 
ROOT
HETATM    1  C           1     -12.318   6.020 -19.988  0.00  0.00     0.251 C 
HETATM    2  N           1     -11.213   6.716 -20.397  0.00  0.00    -0.349 N 
HETATM    3  O           1     -13.370   6.594 -19.839  0.00  0.00    -0.271 OA
HETATM    4  H           1     -10.330   6.236 -20.523  0.00  0.00     0.163 HD
ENDROOT
BRANCH   1   5
HETATM    5  C           1     -12.223   4.538 -19.724  0.00  0.00     0.311 C 
HETATM    6  N           1     -13.190   3.802 -20.532  0.00  0.00     0.097 N 
HETATM    7  C           1     -12.594   3.734 -21.864  0.00  0.00     0.271 C 
HETATM    8  H           1     -13.322   2.858 -20.170  0.00  0.00     0.317 HD
HETATM    9  C           1     -11.124   3.468 -21.590  0.00  0.00     0.033 C 
HETATM   10  C           1     -10.881   3.993 -20.180  0.00  0.00     0.047 C 
ENDBRANCH   1   5
BRANCH   2  11
HETATM   11  C           1     -11.304   8.141 -20.651  0.00  0.00     0.235 C 
BRANCH  11  12
HETATM   12  C           1     -10.315   8.872 -19.778  0.00  0.00     0.191 C 
HETATM   13  O           1      -9.545   9.720 -20.280  0.00  0.00    -0.647 OA
HETATM   14  O           1     -10.266   8.633 -18.552  0.00  0.00    -0.647 OA
ENDBRANCH  11  12
ENDBRANCH   2  11
TORSDOF 3
ENDMDL
