MODEL 1
REMARK VINA RESULT:      -7.2      0.000      0.000
REMARK  8 active torsions:
REMARK  status: ('A' for Active; 'I' for Inactive)
REMARK    1  A    between atoms: C_3  and  C_5 
REMARK    2  A    between atoms: C_3  and  C_4 
REMARK    3  A    between atoms: C_3  and  N_19 
REMARK    4  A    between atoms: C_5  and  C_10 
REMARK       I    between atoms: C_13  and  N_19 
REMARK    5  A    between atoms: C_13  and  C_18 
REMARK    6  A    between atoms: N_16  and  C_18 
REMARK    7  A    between atoms: C_18  and  C_25 
REMARK    8  A    between atoms: O_22  and  C_23 
ROOT
HETATM    1  C           1     -21.096  -5.109  -7.000  0.00  0.00     0.189 C 
ENDROOT
BRANCH   1   2
HETATM    2  C           1     -21.942  -3.918  -7.431  0.00  0.00     0.074 C 
BRANCH   2   3
HETATM    3  C           1     -22.398  -4.114  -8.842  0.00  0.00    -0.056 A 
HETATM    4  C           1     -21.462  -4.209  -9.871  0.00  0.00     0.010 A 
HETATM    5  C           1     -21.886  -4.392 -11.188  0.00  0.00     0.037 A 
HETATM    6  C           1     -23.249  -4.478 -11.475  0.00  0.00     0.065 A 
HETATM    7  C           1     -24.186  -4.382 -10.446  0.00  0.00     0.037 A 
HETATM    8  C           1     -23.760  -4.200  -9.130  0.00  0.00     0.010 A 
BRANCH   6   9
HETATM    9  O           1     -23.662  -4.655 -12.753  0.00  0.00    -0.361 OA
HETATM   10  H           1     -23.316  -3.918 -13.285  0.00  0.00     0.217 HD
ENDBRANCH   6   9
ENDBRANCH   2   3
ENDBRANCH   1   2
BRANCH   1  11
HETATM   11  C           1     -19.675  -4.657  -6.762  0.00  0.00     0.197 C 
HETATM   12  O           1     -18.890  -4.529  -7.726  0.00  0.00    -0.646 OA
HETATM   13  O           1     -19.284  -4.413  -5.601  0.00  0.00    -0.646 OA
ENDBRANCH   1  11
BRANCH   1  14
HETATM   14  N           1     -21.637  -5.667  -5.777  0.00  0.00    -0.344 N 
HETATM   15  H           1     -22.204  -5.094  -5.165  0.00  0.00     0.163 HD
HETATM   16  C           1     -21.379  -6.971  -5.447  0.00  0.00     0.249 C 
HETATM   17  O           1     -20.702  -7.656  -6.175  0.00  0.00    -0.271 OA
BRANCH  16  18
HETATM   18  C           1     -21.942  -7.552  -4.173  0.00  0.00     0.278 C 
BRANCH  18  19
HETATM   19  N           1     -21.752  -9.040  -4.176  0.00  0.00    -0.066 N 
HETATM   20  H           1     -21.638  -9.374  -5.159  0.00  0.00     0.275 HD
HETATM   21  H           1     -22.587  -9.499  -3.746  0.00  0.00     0.275 HD
HETATM   22  H           1     -20.899  -9.283  -3.623  0.00  0.00     0.275 HD
ENDBRANCH  18  19
BRANCH  18  23
HETATM   23  C           1     -21.218  -6.950  -2.976  0.00  0.00     0.017 C 
HETATM   24  C           1     -22.221  -6.236  -2.081  0.00  0.00     0.012 C 
HETATM   25  C           1     -20.533  -8.057  -2.187  0.00  0.00     0.012 C 
ENDBRANCH  18  23
ENDBRANCH  16  18
ENDBRANCH   1  14
TORSDOF 8
ENDMDL
MODEL 2
REMARK VINA RESULT:      -7.2      1.235      1.901
REMARK  8 active torsions:
REMARK  status: ('A' for Active; 'I' for Inactive)
REMARK    1  A    between atoms: C_3  and  C_5 
REMARK    2  A    between atoms: C_3  and  C_4 
REMARK    3  A    between atoms: C_3  and  N_19 
REMARK    4  A    between atoms: C_5  and  C_10 
REMARK       I    between atoms: C_13  and  N_19 
REMARK    5  A    between atoms: C_13  and  C_18 
REMARK    6  A    between atoms: N_16  and  C_18 
REMARK    7  A    between atoms: C_18  and  C_25 
REMARK    8  A    between atoms: O_22  and  C_23 
ROOT
HETATM    1  C           1     -21.044  -5.360  -6.515  0.00  0.00     0.189 C 
ENDROOT
BRANCH   1   2
HETATM    2  C           1     -21.552  -4.014  -7.014  0.00  0.00     0.074 C 
BRANCH   2   3
HETATM    3  C           1     -22.090  -4.166  -8.402  0.00  0.00    -0.056 A 
HETATM    4  C           1     -23.457  -4.349  -8.604  0.00  0.00     0.010 A 
HETATM    5  C           1     -23.959  -4.491  -9.898  0.00  0.00     0.037 A 
HETATM    6  C           1     -23.092  -4.452 -10.990  0.00  0.00     0.065 A 
HETATM    7  C           1     -21.724  -4.268 -10.788  0.00  0.00     0.037 A 
HETATM    8  C           1     -21.223  -4.126  -9.494  0.00  0.00     0.010 A 
BRANCH   6   9
HETATM    9  O           1     -23.579  -4.589 -12.247  0.00  0.00    -0.361 OA
HETATM   10  H           1     -23.164  -3.910 -12.806  0.00  0.00     0.217 HD
ENDBRANCH   6   9
ENDBRANCH   2   3
ENDBRANCH   1   2
BRANCH   1  11
HETATM   11  C           1     -19.646  -5.595  -7.034  0.00  0.00     0.197 C 
HETATM   12  O           1     -19.277  -6.751  -7.334  0.00  0.00    -0.646 OA
HETATM   13  O           1     -18.859  -4.634  -7.164  0.00  0.00    -0.646 OA
ENDBRANCH   1  11
BRANCH   1  14
HETATM   14  N           1     -21.027  -5.362  -5.065  0.00  0.00    -0.344 N 
HETATM   15  H           1     -20.768  -4.524  -4.560  0.00  0.00     0.163 HD
HETATM   16  C           1     -21.361  -6.499  -4.378  0.00  0.00     0.249 C 
HETATM   17  O           1     -21.669  -7.500  -4.980  0.00  0.00    -0.271 OA
BRANCH  16  18
HETATM   18  C           1     -21.343  -6.501  -2.869  0.00  0.00     0.278 C 
BRANCH  18  19
HETATM   19  N           1     -22.557  -5.787  -2.354  0.00  0.00    -0.066 N 
HETATM   20  H           1     -22.510  -5.727  -1.312  0.00  0.00     0.275 HD
HETATM   21  H           1     -23.415  -6.313  -2.634  0.00  0.00     0.275 HD
HETATM   22  H           1     -22.593  -4.824  -2.758  0.00  0.00     0.275 HD
ENDBRANCH  18  19
BRANCH  18  23
HETATM   23  C           1     -21.346  -7.937  -2.364  0.00  0.00     0.017 C 
HETATM   24  C           1     -19.912  -8.428  -2.215  0.00  0.00     0.012 C 
HETATM   25  C           1     -22.045  -7.999  -1.012  0.00  0.00     0.012 C 
ENDBRANCH  18  23
ENDBRANCH  16  18
ENDBRANCH   1  14
TORSDOF 8
ENDMDL
MODEL 3
REMARK VINA RESULT:      -7.1     13.004     15.863
REMARK  8 active torsions:
REMARK  status: ('A' for Active; 'I' for Inactive)
REMARK    1  A    between atoms: C_3  and  C_5 
REMARK    2  A    between atoms: C_3  and  C_4 
REMARK    3  A    between atoms: C_3  and  N_19 
REMARK    4  A    between atoms: C_5  and  C_10 
REMARK       I    between atoms: C_13  and  N_19 
REMARK    5  A    between atoms: C_13  and  C_18 
REMARK    6  A    between atoms: N_16  and  C_18 
REMARK    7  A    between atoms: C_18  and  C_25 
REMARK    8  A    between atoms: O_22  and  C_23 
ROOT
HETATM    1  C           1     -36.348  -0.517 -10.433  0.00  0.00     0.189 C 
ENDROOT
BRANCH   1   2
HETATM    2  C           1     -37.576  -0.280 -11.304  0.00  0.00     0.074 C 
BRANCH   2   3
HETATM    3  C           1     -37.148  -0.065 -12.722  0.00  0.00    -0.056 A 
HETATM    4  C           1     -38.075  -0.191 -13.757  0.00  0.00     0.010 A 
HETATM    5  C           1     -37.677   0.009 -15.079  0.00  0.00     0.037 A 
HETATM    6  C           1     -36.351   0.333 -15.366  0.00  0.00     0.065 A 
HETATM    7  C           1     -35.424   0.459 -14.331  0.00  0.00     0.037 A 
HETATM    8  C           1     -35.822   0.259 -13.010  0.00  0.00     0.010 A 
BRANCH   6   9
HETATM    9  O           1     -35.964   0.528 -16.650  0.00  0.00    -0.361 OA
HETATM   10  H           1     -36.566   0.025 -17.224  0.00  0.00     0.217 HD
ENDBRANCH   6   9
ENDBRANCH   2   3
ENDBRANCH   1   2
BRANCH   1  11
HETATM   11  C           1     -36.671  -0.163  -9.002  0.00  0.00     0.197 C 
HETATM   12  O           1     -37.847  -0.252  -8.586  0.00  0.00    -0.646 OA
HETATM   13  O           1     -35.763   0.218  -8.233  0.00  0.00    -0.646 OA
ENDBRANCH   1  11
BRANCH   1  14
HETATM   14  N           1     -35.963  -1.912 -10.512  0.00  0.00    -0.344 N 
HETATM   15  H           1     -36.672  -2.635 -10.500  0.00  0.00     0.163 HD
HETATM   16  C           1     -34.640  -2.253 -10.599  0.00  0.00     0.249 C 
HETATM   17  O           1     -33.793  -1.391 -10.611  0.00  0.00    -0.271 OA
BRANCH  16  18
HETATM   18  C           1     -34.239  -3.705 -10.680  0.00  0.00     0.278 C 
BRANCH  18  19
HETATM   19  N           1     -35.460  -4.550 -10.890  0.00  0.00    -0.066 N 
HETATM   20  H           1     -36.236  -4.196 -10.286  0.00  0.00     0.275 HD
HETATM   21  H           1     -35.246  -5.541 -10.637  0.00  0.00     0.275 HD
HETATM   22  H           1     -35.749  -4.502 -11.893  0.00  0.00     0.275 HD
ENDBRANCH  18  19
BRANCH  18  23
HETATM   23  C           1     -33.279  -3.903 -11.846  0.00  0.00     0.017 C 
HETATM   24  C           1     -32.580  -5.249 -11.708  0.00  0.00     0.012 C 
HETATM   25  C           1     -34.055  -3.867 -13.155  0.00  0.00     0.012 C 
ENDBRANCH  18  23
ENDBRANCH  16  18
ENDBRANCH   1  14
TORSDOF 8
ENDMDL
MODEL 4
REMARK VINA RESULT:      -6.8      2.758      7.464
REMARK  8 active torsions:
REMARK  status: ('A' for Active; 'I' for Inactive)
REMARK    1  A    between atoms: C_3  and  C_5 
REMARK    2  A    between atoms: C_3  and  C_4 
REMARK    3  A    between atoms: C_3  and  N_19 
REMARK    4  A    between atoms: C_5  and  C_10 
REMARK       I    between atoms: C_13  and  N_19 
REMARK    5  A    between atoms: C_13  and  C_18 
REMARK    6  A    between atoms: N_16  and  C_18 
REMARK    7  A    between atoms: C_18  and  C_25 
REMARK    8  A    between atoms: O_22  and  C_23 
ROOT
HETATM    1  C           1     -20.329  -7.793  -4.853  0.00  0.00     0.189 C 
ENDROOT
BRANCH   1   2
HETATM    2  C           1     -21.498  -8.634  -4.358  0.00  0.00     0.074 C 
BRANCH   2   3
HETATM    3  C           1     -21.683  -8.417  -2.889  0.00  0.00    -0.056 A 
HETATM    4  C           1     -21.670  -9.505  -2.016  0.00  0.00     0.010 A 
HETATM    5  C           1     -21.843  -9.303  -0.646  0.00  0.00     0.037 A 
HETATM    6  C           1     -22.031  -8.013  -0.150  0.00  0.00     0.065 A 
HETATM    7  C           1     -22.044  -6.925  -1.023  0.00  0.00     0.037 A 
HETATM    8  C           1     -21.871  -7.127  -2.392  0.00  0.00     0.010 A 
BRANCH   6   9
HETATM    9  O           1     -22.198  -7.817   1.179  0.00  0.00    -0.361 OA
HETATM   10  H           1     -21.475  -7.248   1.493  0.00  0.00     0.217 HD
ENDBRANCH   6   9
ENDBRANCH   2   3
ENDBRANCH   1   2
BRANCH   1  11
HETATM   11  C           1     -19.118  -8.674  -5.040  0.00  0.00     0.197 C 
HETATM   12  O           1     -18.499  -9.106  -4.044  0.00  0.00    -0.646 OA
HETATM   13  O           1     -18.734  -8.971  -6.192  0.00  0.00    -0.646 OA
ENDBRANCH   1  11
BRANCH   1  14
HETATM   14  N           1     -20.679  -7.177  -6.117  0.00  0.00    -0.344 N 
HETATM   15  H           1     -20.671  -7.726  -6.968  0.00  0.00     0.163 HD
HETATM   16  C           1     -21.019  -5.851  -6.163  0.00  0.00     0.249 C 
HETATM   17  O           1     -21.027  -5.195  -5.149  0.00  0.00    -0.271 OA
BRANCH  16  18
HETATM   18  C           1     -21.383  -5.210  -7.480  0.00  0.00     0.278 C 
BRANCH  18  19
HETATM   19  N           1     -21.923  -3.833  -7.233  0.00  0.00    -0.066 N 
HETATM   20  H           1     -21.548  -3.470  -6.327  0.00  0.00     0.275 HD
HETATM   21  H           1     -22.966  -3.871  -7.188  0.00  0.00     0.275 HD
HETATM   22  H           1     -21.631  -3.200  -8.010  0.00  0.00     0.275 HD
ENDBRANCH  18  19
BRANCH  18  23
HETATM   23  C           1     -20.143  -5.119  -8.359  0.00  0.00     0.017 C 
HETATM   24  C           1     -20.505  -4.454  -9.681  0.00  0.00     0.012 C 
HETATM   25  C           1     -19.078  -4.293  -7.652  0.00  0.00     0.012 C 
ENDBRANCH  18  23
ENDBRANCH  16  18
ENDBRANCH   1  14
TORSDOF 8
ENDMDL
MODEL 5
REMARK VINA RESULT:      -6.4      2.458      4.043
REMARK  8 active torsions:
REMARK  status: ('A' for Active; 'I' for Inactive)
REMARK    1  A    between atoms: C_3  and  C_5 
REMARK    2  A    between atoms: C_3  and  C_4 
REMARK    3  A    between atoms: C_3  and  N_19 
REMARK    4  A    between atoms: C_5  and  C_10 
REMARK       I    between atoms: C_13  and  N_19 
REMARK    5  A    between atoms: C_13  and  C_18 
REMARK    6  A    between atoms: N_16  and  C_18 
REMARK    7  A    between atoms: C_18  and  C_25 
REMARK    8  A    between atoms: O_22  and  C_23 
ROOT
HETATM    1  C           1     -21.329  -7.166  -4.125  0.00  0.00     0.189 C 
ENDROOT
BRANCH   1   2
HETATM    2  C           1     -20.661  -5.800  -4.214  0.00  0.00     0.074 C 
BRANCH   2   3
HETATM    3  C           1     -20.753  -5.290  -5.618  0.00  0.00    -0.056 A 
HETATM    4  C           1     -19.601  -4.875  -6.286  0.00  0.00     0.010 A 
HETATM    5  C           1     -19.685  -4.400  -7.595  0.00  0.00     0.037 A 
HETATM    6  C           1     -20.923  -4.338  -8.235  0.00  0.00     0.065 A 
HETATM    7  C           1     -22.075  -4.753  -7.567  0.00  0.00     0.037 A 
HETATM    8  C           1     -21.990  -5.228  -6.259  0.00  0.00     0.010 A 
BRANCH   6   9
HETATM    9  O           1     -21.006  -3.877  -9.506  0.00  0.00    -0.361 OA
HETATM   10  H           1     -20.684  -2.959  -9.515  0.00  0.00     0.217 HD
ENDBRANCH   6   9
ENDBRANCH   2   3
ENDBRANCH   1   2
BRANCH   1  11
HETATM   11  C           1     -20.612  -8.137  -5.030  0.00  0.00     0.197 C 
HETATM   12  O           1     -21.230  -8.693  -5.965  0.00  0.00    -0.646 OA
HETATM   13  O           1     -19.402  -8.387  -4.846  0.00  0.00    -0.646 OA
ENDBRANCH   1  11
BRANCH   1  14
HETATM   14  N           1     -21.266  -7.644  -2.758  0.00  0.00    -0.344 N 
HETATM   15  H           1     -20.643  -8.404  -2.514  0.00  0.00     0.163 HD
HETATM   16  C           1     -22.052  -7.069  -1.795  0.00  0.00     0.249 C 
HETATM   17  O           1     -22.797  -6.163  -2.084  0.00  0.00    -0.271 OA
BRANCH  16  18
HETATM   18  C           1     -21.988  -7.567  -0.372  0.00  0.00     0.278 C 
BRANCH  18  19
HETATM   19  N           1     -23.346  -7.468   0.255  0.00  0.00    -0.066 N 
HETATM   20  H           1     -24.062  -7.850  -0.404  0.00  0.00     0.275 HD
HETATM   21  H           1     -23.562  -6.466   0.461  0.00  0.00     0.275 HD
HETATM   22  H           1     -23.362  -8.016   1.144  0.00  0.00     0.275 HD
ENDBRANCH  18  19
BRANCH  18  23
HETATM   23  C           1     -21.530  -9.020  -0.363  0.00  0.00     0.017 C 
HETATM   24  C           1     -20.958  -9.365   1.006  0.00  0.00     0.012 C 
HETATM   25  C           1     -22.716  -9.928  -0.660  0.00  0.00     0.012 C 
ENDBRANCH  18  23
ENDBRANCH  16  18
ENDBRANCH   1  14
TORSDOF 8
ENDMDL
MODEL 6
REMARK VINA RESULT:      -6.2      5.671      8.609
REMARK  8 active torsions:
REMARK  status: ('A' for Active; 'I' for Inactive)
REMARK    1  A    between atoms: C_3  and  C_5 
REMARK    2  A    between atoms: C_3  and  C_4 
REMARK    3  A    between atoms: C_3  and  N_19 
REMARK    4  A    between atoms: C_5  and  C_10 
REMARK       I    between atoms: C_13  and  N_19 
REMARK    5  A    between atoms: C_13  and  C_18 
REMARK    6  A    between atoms: N_16  and  C_18 
REMARK    7  A    between atoms: C_18  and  C_25 
REMARK    8  A    between atoms: O_22  and  C_23 
ROOT
HETATM    1  C           1     -21.647  -7.899  -2.204  0.00  0.00     0.189 C 
ENDROOT
BRANCH   1   2
HETATM    2  C           1     -21.482  -8.034  -0.696  0.00  0.00     0.074 C 
BRANCH   2   3
HETATM    3  C           1     -21.850  -9.423  -0.276  0.00  0.00    -0.056 A 
HETATM    4  C           1     -20.885 -10.260   0.286  0.00  0.00     0.010 A 
HETATM    5  C           1     -21.227 -11.554   0.678  0.00  0.00     0.037 A 
HETATM    6  C           1     -22.534 -12.012   0.507  0.00  0.00     0.065 A 
HETATM    7  C           1     -23.498 -11.175  -0.055  0.00  0.00     0.037 A 
HETATM    8  C           1     -23.156  -9.881  -0.446  0.00  0.00     0.010 A 
BRANCH   6   9
HETATM    9  O           1     -22.866 -13.269   0.887  0.00  0.00    -0.361 OA
HETATM   10  H           1     -22.923 -13.820   0.088  0.00  0.00     0.217 HD
ENDBRANCH   6   9
ENDBRANCH   2   3
ENDBRANCH   1   2
BRANCH   1  11
HETATM   11  C           1     -21.960  -6.464  -2.550  0.00  0.00     0.197 C 
HETATM   12  O           1     -22.378  -5.685  -1.667  0.00  0.00    -0.646 OA
HETATM   13  O           1     -21.802  -6.055  -3.720  0.00  0.00    -0.646 OA
ENDBRANCH   1  11
BRANCH   1  14
HETATM   14  N           1     -20.418  -8.298  -2.861  0.00  0.00    -0.344 N 
HETATM   15  H           1     -19.581  -7.739  -2.752  0.00  0.00     0.163 HD
HETATM   16  C           1     -20.389  -9.430  -3.631  0.00  0.00     0.249 C 
HETATM   17  O           1     -21.387 -10.097  -3.763  0.00  0.00    -0.271 OA
BRANCH  16  18
HETATM   18  C           1     -19.109  -9.844  -4.315  0.00  0.00     0.278 C 
BRANCH  18  19
HETATM   19  N           1     -18.906  -9.008  -5.543  0.00  0.00    -0.066 N 
HETATM   20  H           1     -18.091  -9.377  -6.085  0.00  0.00     0.275 HD
HETATM   21  H           1     -18.719  -8.019  -5.264  0.00  0.00     0.275 HD
HETATM   22  H           1     -19.765  -9.046  -6.137  0.00  0.00     0.275 HD
ENDBRANCH  18  19
BRANCH  18  23
HETATM   23  C           1     -17.936  -9.642  -3.364  0.00  0.00     0.017 C 
HETATM   24  C           1     -17.970 -10.712  -2.280  0.00  0.00     0.012 C 
HETATM   25  C           1     -16.630  -9.747  -4.139  0.00  0.00     0.012 C 
ENDBRANCH  18  23
ENDBRANCH  16  18
ENDBRANCH   1  14
TORSDOF 8
ENDMDL
MODEL 7
REMARK VINA RESULT:      -6.1      3.366      7.458
REMARK  8 active torsions:
REMARK  status: ('A' for Active; 'I' for Inactive)
REMARK    1  A    between atoms: C_3  and  C_5 
REMARK    2  A    between atoms: C_3  and  C_4 
REMARK    3  A    between atoms: C_3  and  N_19 
REMARK    4  A    between atoms: C_5  and  C_10 
REMARK       I    between atoms: C_13  and  N_19 
REMARK    5  A    between atoms: C_13  and  C_18 
REMARK    6  A    between atoms: N_16  and  C_18 
REMARK    7  A    between atoms: C_18  and  C_25 
REMARK    8  A    between atoms: O_22  and  C_23 
ROOT
HETATM    1  C           1     -20.276  -8.747  -4.753  0.00  0.00     0.189 C 
ENDROOT
BRANCH   1   2
HETATM    2  C           1     -21.167  -9.981  -4.794  0.00  0.00     0.074 C 
BRANCH   2   3
HETATM    3  C           1     -21.852 -10.147  -3.473  0.00  0.00    -0.056 A 
HETATM    4  C           1     -21.562  -9.276  -2.423  0.00  0.00     0.010 A 
HETATM    5  C           1     -22.199  -9.430  -1.192  0.00  0.00     0.037 A 
HETATM    6  C           1     -23.126 -10.457  -1.011  0.00  0.00     0.065 A 
HETATM    7  C           1     -23.416 -11.328  -2.061  0.00  0.00     0.037 A 
HETATM    8  C           1     -22.779 -11.173  -3.291  0.00  0.00     0.010 A 
BRANCH   6   9
HETATM    9  O           1     -23.746 -10.607   0.185  0.00  0.00    -0.361 OA
HETATM   10  H           1     -23.704  -9.756   0.654  0.00  0.00     0.217 HD
ENDBRANCH   6   9
ENDBRANCH   2   3
ENDBRANCH   1   2
BRANCH   1  11
HETATM   11  C           1     -18.841  -9.154  -4.979  0.00  0.00     0.197 C 
HETATM   12  O           1     -18.402  -9.278  -6.143  0.00  0.00    -0.646 OA
HETATM   13  O           1     -18.091  -9.368  -4.003  0.00  0.00    -0.646 OA
ENDBRANCH   1  11
BRANCH   1  14
HETATM   14  N           1     -20.685  -7.822  -5.792  0.00  0.00    -0.344 N 
HETATM   15  H           1     -20.634  -8.098  -6.765  0.00  0.00     0.163 HD
HETATM   16  C           1     -21.140  -6.575  -5.458  0.00  0.00     0.249 C 
HETATM   17  O           1     -21.200  -6.244  -4.298  0.00  0.00    -0.271 OA
BRANCH  16  18
HETATM   18  C           1     -21.566  -5.612  -6.540  0.00  0.00     0.278 C 
BRANCH  18  19
HETATM   19  N           1     -22.970  -5.157  -6.279  0.00  0.00    -0.066 N 
HETATM   20  H           1     -23.080  -4.167  -6.596  0.00  0.00     0.275 HD
HETATM   21  H           1     -23.172  -5.219  -5.256  0.00  0.00     0.275 HD
HETATM   22  H           1     -23.637  -5.766  -6.803  0.00  0.00     0.275 HD
ENDBRANCH  18  19
BRANCH  18  23
HETATM   23  C           1     -20.634  -4.407  -6.543  0.00  0.00     0.017 C 
HETATM   24  C           1     -19.317  -4.785  -7.208  0.00  0.00     0.012 C 
HETATM   25  C           1     -21.282  -3.266  -7.313  0.00  0.00     0.012 C 
ENDBRANCH  18  23
ENDBRANCH  16  18
ENDBRANCH   1  14
TORSDOF 8
ENDMDL
MODEL 8
REMARK VINA RESULT:      -6.1      3.036      7.808
REMARK  8 active torsions:
REMARK  status: ('A' for Active; 'I' for Inactive)
REMARK    1  A    between atoms: C_3  and  C_5 
REMARK    2  A    between atoms: C_3  and  C_4 
REMARK    3  A    between atoms: C_3  and  N_19 
REMARK    4  A    between atoms: C_5  and  C_10 
REMARK       I    between atoms: C_13  and  N_19 
REMARK    5  A    between atoms: C_13  and  C_18 
REMARK    6  A    between atoms: N_16  and  C_18 
REMARK    7  A    between atoms: C_18  and  C_25 
REMARK    8  A    between atoms: O_22  and  C_23 
ROOT
HETATM    1  C           1     -20.091  -9.590  -3.815  0.00  0.00     0.189 C 
ENDROOT
BRANCH   1   2
HETATM    2  C           1     -19.546  -9.113  -2.476  0.00  0.00     0.074 C 
BRANCH   2   3
HETATM    3  C           1     -20.681  -8.687  -1.598  0.00  0.00    -0.056 A 
HETATM    4  C           1     -21.230  -7.412  -1.737  0.00  0.00     0.010 A 
HETATM    5  C           1     -22.288  -7.014  -0.919  0.00  0.00     0.037 A 
HETATM    6  C           1     -22.796  -7.892   0.039  0.00  0.00     0.065 A 
HETATM    7  C           1     -22.247  -9.166   0.178  0.00  0.00     0.037 A 
HETATM    8  C           1     -21.189  -9.563  -0.640  0.00  0.00     0.010 A 
BRANCH   6   9
HETATM    9  O           1     -23.823  -7.506   0.833  0.00  0.00    -0.361 OA
HETATM   10  H           1     -24.428  -8.261   0.930  0.00  0.00     0.217 HD
ENDBRANCH   6   9
ENDBRANCH   2   3
ENDBRANCH   1   2
BRANCH   1  11
HETATM   11  C           1     -20.895 -10.851  -3.612  0.00  0.00     0.197 C 
HETATM   12  O           1     -20.338 -11.886  -3.187  0.00  0.00    -0.646 OA
HETATM   13  O           1     -22.118 -10.860  -3.869  0.00  0.00    -0.646 OA
ENDBRANCH   1  11
BRANCH   1  14
HETATM   14  N           1     -20.939  -8.562  -4.385  0.00  0.00    -0.344 N 
HETATM   15  H           1     -21.853  -8.382  -3.989  0.00  0.00     0.163 HD
HETATM   16  C           1     -20.505  -7.835  -5.462  0.00  0.00     0.249 C 
HETATM   17  O           1     -19.415  -8.050  -5.936  0.00  0.00    -0.271 OA
BRANCH  16  18
HETATM   18  C           1     -21.388  -6.765  -6.055  0.00  0.00     0.278 C 
BRANCH  18  19
HETATM   19  N           1     -22.253  -6.178  -4.980  0.00  0.00    -0.066 N 
HETATM   20  H           1     -21.670  -5.972  -4.138  0.00  0.00     0.275 HD
HETATM   21  H           1     -23.004  -6.860  -4.726  0.00  0.00     0.275 HD
HETATM   22  H           1     -22.689  -5.295  -5.327  0.00  0.00     0.275 HD
ENDBRANCH  18  19
BRANCH  18  23
HETATM   23  C           1     -20.521  -5.671  -6.663  0.00  0.00     0.017 C 
HETATM   24  C           1     -21.270  -5.008  -7.812  0.00  0.00     0.012 C 
HETATM   25  C           1     -20.199  -4.629  -5.600  0.00  0.00     0.012 C 
ENDBRANCH  18  23
ENDBRANCH  16  18
ENDBRANCH   1  14
TORSDOF 8
ENDMDL
MODEL 9
REMARK VINA RESULT:      -6.1      5.253      7.232
REMARK  8 active torsions:
REMARK  status: ('A' for Active; 'I' for Inactive)
REMARK    1  A    between atoms: C_3  and  C_5 
REMARK    2  A    between atoms: C_3  and  C_4 
REMARK    3  A    between atoms: C_3  and  N_19 
REMARK    4  A    between atoms: C_5  and  C_10 
REMARK       I    between atoms: C_13  and  N_19 
REMARK    5  A    between atoms: C_13  and  C_18 
REMARK    6  A    between atoms: N_16  and  C_18 
REMARK    7  A    between atoms: C_18  and  C_25 
REMARK    8  A    between atoms: O_22  and  C_23 
ROOT
HETATM    1  C           1     -21.041  -7.725  -2.852  0.00  0.00     0.189 C 
ENDROOT
BRANCH   1   2
HETATM    2  C           1     -20.805  -8.498  -4.144  0.00  0.00     0.074 C 
BRANCH   2   3
HETATM    3  C           1     -19.397  -9.003  -4.174  0.00  0.00    -0.056 A 
HETATM    4  C           1     -18.800  -9.330  -5.391  0.00  0.00     0.010 A 
HETATM    5  C           1     -17.487  -9.801  -5.420  0.00  0.00     0.037 A 
HETATM    6  C           1     -16.772  -9.946  -4.231  0.00  0.00     0.065 A 
HETATM    7  C           1     -17.370  -9.619  -3.014  0.00  0.00     0.037 A 
HETATM    8  C           1     -18.682  -9.148  -2.986  0.00  0.00     0.010 A 
BRANCH   6   9
HETATM    9  O           1     -15.497 -10.403  -4.259  0.00  0.00    -0.361 OA
HETATM   10  H           1     -15.142 -10.359  -3.355  0.00  0.00     0.217 HD
ENDBRANCH   6   9
ENDBRANCH   2   3
ENDBRANCH   1   2
BRANCH   1  11
HETATM   11  C           1     -21.717  -6.413  -3.166  0.00  0.00     0.197 C 
HETATM   12  O           1     -21.598  -5.904  -4.301  0.00  0.00    -0.646 OA
HETATM   13  O           1     -22.395  -5.835  -2.290  0.00  0.00    -0.646 OA
ENDBRANCH   1  11
BRANCH   1  14
HETATM   14  N           1     -21.887  -8.506  -1.971  0.00  0.00    -0.344 N 
HETATM   15  H           1     -22.717  -8.957  -2.334  0.00  0.00     0.163 HD
HETATM   16  C           1     -21.563  -8.632  -0.646  0.00  0.00     0.249 C 
HETATM   17  O           1     -20.573  -8.094  -0.212  0.00  0.00    -0.271 OA
BRANCH  16  18
HETATM   18  C           1     -22.444  -9.445   0.271  0.00  0.00     0.278 C 
BRANCH  18  19
HETATM   19  N           1     -23.769  -8.761   0.426  0.00  0.00    -0.066 N 
HETATM   20  H           1     -23.776  -8.212   1.316  0.00  0.00     0.275 HD
HETATM   21  H           1     -24.530  -9.477   0.453  0.00  0.00     0.275 HD
HETATM   22  H           1     -23.926  -8.117  -0.381  0.00  0.00     0.275 HD
ENDBRANCH  18  19
BRANCH  18  23
HETATM   23  C           1     -22.655 -10.831  -0.324  0.00  0.00     0.017 C 
HETATM   24  C           1     -21.918 -11.864   0.519  0.00  0.00     0.012 C 
HETATM   25  C           1     -24.142 -11.156  -0.338  0.00  0.00     0.012 C 
ENDBRANCH  18  23
ENDBRANCH  16  18
ENDBRANCH   1  14
TORSDOF 8
ENDMDL
