MODEL 1
REMARK VINA RESULT:      -6.0      0.000      0.000
REMARK  8 active torsions:
REMARK  status: ('A' for Active; 'I' for Inactive)
REMARK    1  A    between atoms: C_5  and  C_6 
REMARK    2  A    between atoms: C_6  and  C_7 
REMARK    3  A    between atoms: C_6  and  N_15 
REMARK    4  A    between atoms: C_7  and  C_16 
REMARK       I    between atoms: C_13  and  N_15 
REMARK    5  A    between atoms: C_13  and  C_14 
REMARK    6  A    between atoms: C_14  and  N_20 
REMARK    7  A    between atoms: C_16  and  C_17 
REMARK    8  A    between atoms: C_17  and  N_18 
ROOT
HETATM    1  C           1     -22.995  -3.322 -12.261  0.00  0.00     0.185 C 
ENDROOT
BRANCH   1   2
HETATM    2  C           1     -24.007  -3.891 -11.297  0.00  0.00     0.196 C 
HETATM    3  O           1     -24.965  -3.188 -10.909  0.00  0.00    -0.646 OA
HETATM    4  O           1     -23.887  -5.065 -10.885  0.00  0.00    -0.646 OA
ENDBRANCH   1   2
BRANCH   1   5
HETATM    5  C           1     -21.759  -2.871 -11.493  0.00  0.00     0.038 C 
BRANCH   5   6
HETATM    6  C           1     -20.855  -4.069 -11.236  0.00  0.00     0.030 C 
BRANCH   6   7
HETATM    7  C           1     -20.434  -4.083  -9.772  0.00  0.00     0.230 C 
BRANCH   7   8
HETATM    8  N           1     -21.503  -4.741  -8.951  0.00  0.00    -0.079 N 
HETATM    9  H           1     -22.215  -5.171  -9.584  0.00  0.00     0.274 HD
HETATM   10  H           1     -21.075  -5.485  -8.354  0.00  0.00     0.274 HD
HETATM   11  H           1     -21.964  -4.028  -8.342  0.00  0.00     0.274 HD
ENDBRANCH   7   8
ENDBRANCH   6   7
ENDBRANCH   5   6
ENDBRANCH   1   5
BRANCH   1  12
HETATM   12  N           1     -23.574  -2.188 -12.954  0.00  0.00    -0.345 N 
HETATM   13  H           1     -24.060  -1.470 -12.432  0.00  0.00     0.163 HD
HETATM   14  C           1     -23.462  -2.087 -14.314  0.00  0.00     0.243 C 
HETATM   15  O           1     -22.882  -2.944 -14.937  0.00  0.00    -0.272 OA
BRANCH  14  16
HETATM   16  C           1     -24.065  -0.906 -15.035  0.00  0.00     0.332 C 
BRANCH  16  17
HETATM   17  N           1     -23.086  -0.385 -16.047  0.00  0.00    -0.071 N 
HETATM   18  H           1     -22.117  -0.652 -15.762  0.00  0.00     0.274 HD
HETATM   19  H           1     -23.162   0.656 -16.098  0.00  0.00     0.274 HD
HETATM   20  H           1     -23.301  -0.796 -16.983  0.00  0.00     0.274 HD
ENDBRANCH  16  17
ENDBRANCH  14  16
ENDBRANCH   1  12
TORSDOF 8
ENDMDL
MODEL 2
REMARK VINA RESULT:      -5.7     11.496     12.444
REMARK  8 active torsions:
REMARK  status: ('A' for Active; 'I' for Inactive)
REMARK    1  A    between atoms: C_5  and  C_6 
REMARK    2  A    between atoms: C_6  and  C_7 
REMARK    3  A    between atoms: C_6  and  N_15 
REMARK    4  A    between atoms: C_7  and  C_16 
REMARK       I    between atoms: C_13  and  N_15 
REMARK    5  A    between atoms: C_13  and  C_14 
REMARK    6  A    between atoms: C_14  and  N_20 
REMARK    7  A    between atoms: C_16  and  C_17 
REMARK    8  A    between atoms: C_17  and  N_18 
ROOT
HETATM    1  C           1     -35.038  -1.667 -11.454  0.00  0.00     0.185 C 
ENDROOT
BRANCH   1   2
HETATM    2  C           1     -36.142  -1.390 -10.463  0.00  0.00     0.196 C 
HETATM    3  O           1     -37.282  -1.868 -10.648  0.00  0.00    -0.646 OA
HETATM    4  O           1     -35.915  -0.681  -9.458  0.00  0.00    -0.646 OA
ENDBRANCH   1   2
BRANCH   1   5
HETATM    5  C           1     -33.798  -2.149 -10.713  0.00  0.00     0.038 C 
BRANCH   5   6
HETATM    6  C           1     -33.176  -3.316 -11.469  0.00  0.00     0.030 C 
BRANCH   6   7
HETATM    7  C           1     -34.240  -3.994 -12.322  0.00  0.00     0.230 C 
BRANCH   7   8
HETATM    8  N           1     -33.818  -3.970 -13.761  0.00  0.00    -0.079 N 
HETATM    9  H           1     -34.292  -4.746 -14.277  0.00  0.00     0.274 HD
HETATM   10  H           1     -34.086  -3.054 -14.188  0.00  0.00     0.274 HD
HETATM   11  H           1     -32.782  -4.093 -13.823  0.00  0.00     0.274 HD
ENDBRANCH   7   8
ENDBRANCH   6   7
ENDBRANCH   5   6
ENDBRANCH   1   5
BRANCH   1  12
HETATM   12  N           1     -34.725  -0.451 -12.180  0.00  0.00    -0.345 N 
HETATM   13  H           1     -34.245   0.307 -11.712  0.00  0.00     0.163 HD
HETATM   14  C           1     -35.078  -0.329 -13.496  0.00  0.00     0.243 C 
HETATM   15  O           1     -35.651  -1.234 -14.054  0.00  0.00    -0.272 OA
BRANCH  14  16
HETATM   16  C           1     -34.752   0.937 -14.250  0.00  0.00     0.332 C 
BRANCH  16  17
HETATM   17  N           1     -35.916   1.318 -15.116  0.00  0.00    -0.071 N 
HETATM   18  H           1     -35.601   1.395 -16.109  0.00  0.00     0.274 HD
HETATM   19  H           1     -36.299   2.237 -14.798  0.00  0.00     0.274 HD
HETATM   20  H           1     -36.659   0.588 -15.042  0.00  0.00     0.274 HD
ENDBRANCH  16  17
ENDBRANCH  14  16
ENDBRANCH   1  12
TORSDOF 8
ENDMDL
MODEL 3
REMARK VINA RESULT:      -5.5      2.259      3.052
REMARK  8 active torsions:
REMARK  status: ('A' for Active; 'I' for Inactive)
REMARK    1  A    between atoms: C_5  and  C_6 
REMARK    2  A    between atoms: C_6  and  C_7 
REMARK    3  A    between atoms: C_6  and  N_15 
REMARK    4  A    between atoms: C_7  and  C_16 
REMARK       I    between atoms: C_13  and  N_15 
REMARK    5  A    between atoms: C_13  and  C_14 
REMARK    6  A    between atoms: C_14  and  N_20 
REMARK    7  A    between atoms: C_16  and  C_17 
REMARK    8  A    between atoms: C_17  and  N_18 
ROOT
HETATM    1  C           1     -22.342  -3.553 -11.269  0.00  0.00     0.185 C 
ENDROOT
BRANCH   1   2
HETATM    2  C           1     -20.944  -3.808 -10.762  0.00  0.00     0.196 C 
HETATM    3  O           1     -20.010  -3.992 -11.572  0.00  0.00    -0.646 OA
HETATM    4  O           1     -20.721  -3.836  -9.533  0.00  0.00    -0.646 OA
ENDBRANCH   1   2
BRANCH   1   5
HETATM    5  C           1     -23.133  -4.855 -11.257  0.00  0.00     0.038 C 
BRANCH   5   6
HETATM    6  C           1     -23.889  -4.979  -9.941  0.00  0.00     0.030 C 
BRANCH   6   7
HETATM    7  C           1     -24.341  -3.598  -9.483  0.00  0.00     0.230 C 
BRANCH   7   8
HETATM    8  N           1     -25.793  -3.412  -9.814  0.00  0.00    -0.079 N 
HETATM    9  H           1     -26.066  -4.076 -10.573  0.00  0.00     0.274 HD
HETATM   10  H           1     -26.370  -3.599  -8.963  0.00  0.00     0.274 HD
HETATM   11  H           1     -25.954  -2.430 -10.136  0.00  0.00     0.274 HD
ENDBRANCH   7   8
ENDBRANCH   6   7
ENDBRANCH   5   6
ENDBRANCH   1   5
BRANCH   1  12
HETATM   12  N           1     -22.279  -3.038 -12.623  0.00  0.00    -0.345 N 
HETATM   13  H           1     -21.401  -3.048 -13.127  0.00  0.00     0.163 HD
HETATM   14  C           1     -23.405  -2.541 -13.219  0.00  0.00     0.243 C 
HETATM   15  O           1     -24.452  -2.530 -12.618  0.00  0.00    -0.272 OA
BRANCH  14  16
HETATM   16  C           1     -23.339  -2.006 -14.629  0.00  0.00     0.332 C 
BRANCH  16  17
HETATM   17  N           1     -24.146  -0.744 -14.724  0.00  0.00    -0.071 N 
HETATM   18  H           1     -24.977  -0.909 -15.336  0.00  0.00     0.274 HD
HETATM   19  H           1     -23.556   0.015 -15.132  0.00  0.00     0.274 HD
HETATM   20  H           1     -24.465  -0.462 -13.771  0.00  0.00     0.274 HD
ENDBRANCH  16  17
ENDBRANCH  14  16
ENDBRANCH   1  12
TORSDOF 8
ENDMDL
MODEL 4
REMARK VINA RESULT:      -5.3      2.564      5.792
REMARK  8 active torsions:
REMARK  status: ('A' for Active; 'I' for Inactive)
REMARK    1  A    between atoms: C_5  and  C_6 
REMARK    2  A    between atoms: C_6  and  C_7 
REMARK    3  A    between atoms: C_6  and  N_15 
REMARK    4  A    between atoms: C_7  and  C_16 
REMARK       I    between atoms: C_13  and  N_15 
REMARK    5  A    between atoms: C_13  and  C_14 
REMARK    6  A    between atoms: C_14  and  N_20 
REMARK    7  A    between atoms: C_16  and  C_17 
REMARK    8  A    between atoms: C_17  and  N_18 
ROOT
HETATM    1  C           1     -22.727  -3.705  -9.553  0.00  0.00     0.185 C 
ENDROOT
BRANCH   1   2
HETATM    2  C           1     -24.227  -3.795  -9.693  0.00  0.00     0.196 C 
HETATM    3  O           1     -24.755  -4.855 -10.092  0.00  0.00    -0.646 OA
HETATM    4  O           1     -24.940  -2.807  -9.412  0.00  0.00    -0.646 OA
ENDBRANCH   1   2
BRANCH   1   5
HETATM    5  C           1     -22.077  -3.865 -10.922  0.00  0.00     0.038 C 
BRANCH   5   6
HETATM    6  C           1     -22.385  -2.642 -11.776  0.00  0.00     0.030 C 
BRANCH   6   7
HETATM    7  C           1     -22.787  -3.089 -13.176  0.00  0.00     0.230 C 
BRANCH   7   8
HETATM    8  N           1     -23.791  -4.199 -13.077  0.00  0.00    -0.079 N 
HETATM    9  H           1     -24.170  -4.241 -12.105  0.00  0.00     0.274 HD
HETATM   10  H           1     -24.573  -4.021 -13.748  0.00  0.00     0.274 HD
HETATM   11  H           1     -23.331  -5.108 -13.312  0.00  0.00     0.274 HD
ENDBRANCH   7   8
ENDBRANCH   6   7
ENDBRANCH   5   6
ENDBRANCH   1   5
BRANCH   1  12
HETATM   12  N           1     -22.261  -4.757  -8.671  0.00  0.00    -0.345 N 
HETATM   13  H           1     -22.401  -5.727  -8.923  0.00  0.00     0.163 HD
HETATM   14  C           1     -21.632  -4.439  -7.498  0.00  0.00     0.243 C 
HETATM   15  O           1     -21.465  -3.282  -7.198  0.00  0.00    -0.272 OA
BRANCH  14  16
HETATM   16  C           1     -21.147  -5.535  -6.581  0.00  0.00     0.332 C 
BRANCH  16  17
HETATM   17  N           1     -19.996  -6.253  -7.223  0.00  0.00    -0.071 N 
HETATM   18  H           1     -19.296  -5.555  -7.560  0.00  0.00     0.274 HD
HETATM   19  H           1     -20.345  -6.816  -8.031  0.00  0.00     0.274 HD
HETATM   20  H           1     -19.548  -6.887  -6.524  0.00  0.00     0.274 HD
ENDBRANCH  16  17
ENDBRANCH  14  16
ENDBRANCH   1  12
TORSDOF 8
ENDMDL
MODEL 5
REMARK VINA RESULT:      -5.0      2.466      3.243
REMARK  8 active torsions:
REMARK  status: ('A' for Active; 'I' for Inactive)
REMARK    1  A    between atoms: C_5  and  C_6 
REMARK    2  A    between atoms: C_6  and  C_7 
REMARK    3  A    between atoms: C_6  and  N_15 
REMARK    4  A    between atoms: C_7  and  C_16 
REMARK       I    between atoms: C_13  and  N_15 
REMARK    5  A    between atoms: C_13  and  C_14 
REMARK    6  A    between atoms: C_14  and  N_20 
REMARK    7  A    between atoms: C_16  and  C_17 
REMARK    8  A    between atoms: C_17  and  N_18 
ROOT
HETATM    1  C           1     -21.991  -3.889 -10.661  0.00  0.00     0.185 C 
ENDROOT
BRANCH   1   2
HETATM    2  C           1     -20.552  -4.292 -10.456  0.00  0.00     0.196 C 
HETATM    3  O           1     -20.180  -4.741  -9.350  0.00  0.00    -0.646 OA
HETATM    4  O           1     -19.731  -4.176 -11.392  0.00  0.00    -0.646 OA
ENDBRANCH   1   2
BRANCH   1   5
HETATM    5  C           1     -22.900  -4.841  -9.895  0.00  0.00     0.038 C 
BRANCH   5   6
HETATM    6  C           1     -23.594  -4.085  -8.769  0.00  0.00     0.030 C 
BRANCH   6   7
HETATM    7  C           1     -22.912  -4.406  -7.445  0.00  0.00     0.230 C 
BRANCH   7   8
HETATM    8  N           1     -21.822  -3.408  -7.189  0.00  0.00    -0.079 N 
HETATM    9  H           1     -21.447  -3.059  -8.100  0.00  0.00     0.274 HD
HETATM   10  H           1     -22.207  -2.605  -6.642  0.00  0.00     0.274 HD
HETATM   11  H           1     -21.053  -3.862  -6.647  0.00  0.00     0.274 HD
ENDBRANCH   7   8
ENDBRANCH   6   7
ENDBRANCH   5   6
ENDBRANCH   1   5
BRANCH   1  12
HETATM   12  N           1     -22.312  -3.949 -12.074  0.00  0.00    -0.345 N 
HETATM   13  H           1     -21.775  -4.545 -12.690  0.00  0.00     0.163 HD
HETATM   14  C           1     -23.342  -3.199 -12.574  0.00  0.00     0.243 C 
HETATM   15  O           1     -23.983  -2.487 -11.839  0.00  0.00    -0.272 OA
BRANCH  14  16
HETATM   16  C           1     -23.676  -3.260 -14.044  0.00  0.00     0.332 C 
BRANCH  16  17
HETATM   17  N           1     -22.443  -2.973 -14.850  0.00  0.00    -0.071 N 
HETATM   18  H           1     -22.670  -2.280 -15.599  0.00  0.00     0.274 HD
HETATM   19  H           1     -22.098  -3.858 -15.286  0.00  0.00     0.274 HD
HETATM   20  H           1     -21.702  -2.581 -14.226  0.00  0.00     0.274 HD
ENDBRANCH  16  17
ENDBRANCH  14  16
ENDBRANCH   1  12
TORSDOF 8
ENDMDL
MODEL 6
REMARK VINA RESULT:      -5.0      2.168      2.815
REMARK  8 active torsions:
REMARK  status: ('A' for Active; 'I' for Inactive)
REMARK    1  A    between atoms: C_5  and  C_6 
REMARK    2  A    between atoms: C_6  and  C_7 
REMARK    3  A    between atoms: C_6  and  N_15 
REMARK    4  A    between atoms: C_7  and  C_16 
REMARK       I    between atoms: C_13  and  N_15 
REMARK    5  A    between atoms: C_13  and  C_14 
REMARK    6  A    between atoms: C_14  and  N_20 
REMARK    7  A    between atoms: C_16  and  C_17 
REMARK    8  A    between atoms: C_17  and  N_18 
ROOT
HETATM    1  C           1     -22.397  -4.187  -9.785  0.00  0.00     0.185 C 
ENDROOT
BRANCH   1   2
HETATM    2  C           1     -23.471  -3.963  -8.751  0.00  0.00     0.196 C 
HETATM    3  O           1     -24.536  -3.390  -9.069  0.00  0.00    -0.646 OA
HETATM    4  O           1     -23.296  -4.348  -7.574  0.00  0.00    -0.646 OA
ENDBRANCH   1   2
BRANCH   1   5
HETATM    5  C           1     -21.046  -3.771  -9.215  0.00  0.00     0.038 C 
BRANCH   5   6
HETATM    6  C           1     -20.143  -4.993  -9.105  0.00  0.00     0.030 C 
BRANCH   6   7
HETATM    7  C           1     -19.903  -5.315  -7.635  0.00  0.00     0.230 C 
BRANCH   7   8
HETATM    8  N           1     -20.928  -6.306  -7.167  0.00  0.00    -0.079 N 
HETATM    9  H           1     -21.769  -5.797  -6.813  0.00  0.00     0.274 HD
HETATM   10  H           1     -21.204  -6.923  -7.963  0.00  0.00     0.274 HD
HETATM   11  H           1     -20.524  -6.888  -6.398  0.00  0.00     0.274 HD
ENDBRANCH   7   8
ENDBRANCH   6   7
ENDBRANCH   5   6
ENDBRANCH   1   5
BRANCH   1  12
HETATM   12  N           1     -22.688  -3.394 -10.964  0.00  0.00    -0.345 N 
HETATM   13  H           1     -22.416  -2.420 -10.998  0.00  0.00     0.163 HD
HETATM   14  C           1     -23.331  -3.963 -12.030  0.00  0.00     0.243 C 
HETATM   15  O           1     -23.656  -5.125 -11.989  0.00  0.00    -0.272 OA
BRANCH  14  16
HETATM   16  C           1     -23.634  -3.137 -13.256  0.00  0.00     0.332 C 
BRANCH  16  17
HETATM   17  N           1     -22.437  -3.125 -14.161  0.00  0.00    -0.071 N 
HETATM   18  H           1     -21.781  -2.371 -13.859  0.00  0.00     0.274 HD
HETATM   19  H           1     -22.747  -2.948 -15.143  0.00  0.00     0.274 HD
HETATM   20  H           1     -21.953  -4.050 -14.110  0.00  0.00     0.274 HD
ENDBRANCH  16  17
ENDBRANCH  14  16
ENDBRANCH   1  12
TORSDOF 8
ENDMDL
MODEL 7
REMARK VINA RESULT:      -4.7      2.209      5.060
REMARK  8 active torsions:
REMARK  status: ('A' for Active; 'I' for Inactive)
REMARK    1  A    between atoms: C_5  and  C_6 
REMARK    2  A    between atoms: C_6  and  C_7 
REMARK    3  A    between atoms: C_6  and  N_15 
REMARK    4  A    between atoms: C_7  and  C_16 
REMARK       I    between atoms: C_13  and  N_15 
REMARK    5  A    between atoms: C_13  and  C_14 
REMARK    6  A    between atoms: C_14  and  N_20 
REMARK    7  A    between atoms: C_16  and  C_17 
REMARK    8  A    between atoms: C_17  and  N_18 
ROOT
HETATM    1  C           1     -23.169  -3.770 -10.575  0.00  0.00     0.185 C 
ENDROOT
BRANCH   1   2
HETATM    2  C           1     -24.444  -3.517  -9.807  0.00  0.00     0.196 C 
HETATM    3  O           1     -24.477  -3.705  -8.572  0.00  0.00    -0.646 OA
HETATM    4  O           1     -25.466  -3.120 -10.408  0.00  0.00    -0.646 OA
ENDBRANCH   1   2
BRANCH   1   5
HETATM    5  C           1     -23.447  -4.740 -11.716  0.00  0.00     0.038 C 
BRANCH   5   6
HETATM    6  C           1     -23.874  -3.960 -12.953  0.00  0.00     0.030 C 
BRANCH   6   7
HETATM    7  C           1     -22.811  -2.923 -13.292  0.00  0.00     0.230 C 
BRANCH   7   8
HETATM    8  N           1     -22.562  -2.926 -14.771  0.00  0.00    -0.079 N 
HETATM    9  H           1     -22.831  -2.000 -15.172  0.00  0.00     0.274 HD
HETATM   10  H           1     -21.548  -3.103 -14.953  0.00  0.00     0.274 HD
HETATM   11  H           1     -23.133  -3.679 -15.219  0.00  0.00     0.274 HD
ENDBRANCH   7   8
ENDBRANCH   6   7
ENDBRANCH   5   6
ENDBRANCH   1   5
BRANCH   1  12
HETATM   12  N           1     -22.177  -4.343  -9.686  0.00  0.00    -0.345 N 
HETATM   13  H           1     -22.466  -4.945  -8.926  0.00  0.00     0.163 HD
HETATM   14  C           1     -20.850  -4.069  -9.876  0.00  0.00     0.243 C 
HETATM   15  O           1     -20.505  -3.350 -10.783  0.00  0.00    -0.272 OA
BRANCH  14  16
HETATM   16  C           1     -19.817  -4.665  -8.951  0.00  0.00     0.332 C 
BRANCH  16  17
HETATM   17  N           1     -20.468  -5.685  -8.064  0.00  0.00    -0.071 N 
HETATM   18  H           1     -20.895  -6.435  -8.652  0.00  0.00     0.274 HD
HETATM   19  H           1     -21.212  -5.223  -7.492  0.00  0.00     0.274 HD
HETATM   20  H           1     -19.751  -6.103  -7.430  0.00  0.00     0.274 HD
ENDBRANCH  16  17
ENDBRANCH  14  16
ENDBRANCH   1  12
TORSDOF 8
ENDMDL
MODEL 8
REMARK VINA RESULT:      -4.6      3.417      4.617
REMARK  8 active torsions:
REMARK  status: ('A' for Active; 'I' for Inactive)
REMARK    1  A    between atoms: C_5  and  C_6 
REMARK    2  A    between atoms: C_6  and  C_7 
REMARK    3  A    between atoms: C_6  and  N_15 
REMARK    4  A    between atoms: C_7  and  C_16 
REMARK       I    between atoms: C_13  and  N_15 
REMARK    5  A    between atoms: C_13  and  C_14 
REMARK    6  A    between atoms: C_14  and  N_20 
REMARK    7  A    between atoms: C_16  and  C_17 
REMARK    8  A    between atoms: C_17  and  N_18 
ROOT
HETATM    1  C           1     -21.692  -4.437  -8.146  0.00  0.00     0.185 C 
ENDROOT
BRANCH   1   2
HETATM    2  C           1     -23.134  -4.428  -7.703  0.00  0.00     0.196 C 
HETATM    3  O           1     -24.033  -4.093  -8.505  0.00  0.00    -0.646 OA
HETATM    4  O           1     -23.430  -4.755  -6.533  0.00  0.00    -0.646 OA
ENDBRANCH   1   2
BRANCH   1   5
HETATM    5  C           1     -20.825  -3.800  -7.068  0.00  0.00     0.038 C 
BRANCH   5   6
HETATM    6  C           1     -19.676  -4.738  -6.720  0.00  0.00     0.030 C 
BRANCH   6   7
HETATM    7  C           1     -20.233  -6.020  -6.116  0.00  0.00     0.230 C 
BRANCH   7   8
HETATM    8  N           1     -20.967  -5.698  -4.847  0.00  0.00    -0.079 N 
HETATM    9  H           1     -21.884  -6.199  -4.838  0.00  0.00     0.274 HD
HETATM   10  H           1     -20.395  -6.004  -4.028  0.00  0.00     0.274 HD
HETATM   11  H           1     -21.132  -4.668  -4.792  0.00  0.00     0.274 HD
ENDBRANCH   7   8
ENDBRANCH   6   7
ENDBRANCH   5   6
ENDBRANCH   1   5
BRANCH   1  12
HETATM   12  N           1     -21.562  -3.684  -9.379  0.00  0.00    -0.345 N 
HETATM   13  H           1     -22.135  -2.864  -9.534  0.00  0.00     0.163 HD
HETATM   14  C           1     -20.663  -4.081 -10.331  0.00  0.00     0.243 C 
HETATM   15  O           1     -19.980  -5.058 -10.146  0.00  0.00    -0.272 OA
BRANCH  14  16
HETATM   16  C           1     -20.528  -3.297 -11.614  0.00  0.00     0.332 C 
BRANCH  16  17
HETATM   17  N           1     -21.609  -3.709 -12.569  0.00  0.00    -0.071 N 
HETATM   18  H           1     -22.494  -3.879 -12.041  0.00  0.00     0.274 HD
HETATM   19  H           1     -21.321  -4.585 -13.061  0.00  0.00     0.274 HD
HETATM   20  H           1     -21.762  -2.950 -13.270  0.00  0.00     0.274 HD
ENDBRANCH  16  17
ENDBRANCH  14  16
ENDBRANCH   1  12
TORSDOF 8
ENDMDL
MODEL 9
REMARK VINA RESULT:      -4.5      3.926      7.385
REMARK  8 active torsions:
REMARK  status: ('A' for Active; 'I' for Inactive)
REMARK    1  A    between atoms: C_5  and  C_6 
REMARK    2  A    between atoms: C_6  and  C_7 
REMARK    3  A    between atoms: C_6  and  N_15 
REMARK    4  A    between atoms: C_7  and  C_16 
REMARK       I    between atoms: C_13  and  N_15 
REMARK    5  A    between atoms: C_13  and  C_14 
REMARK    6  A    between atoms: C_14  and  N_20 
REMARK    7  A    between atoms: C_16  and  C_17 
REMARK    8  A    between atoms: C_17  and  N_18 
ROOT
HETATM    1  C           1     -21.560  -4.852  -8.148  0.00  0.00     0.185 C 
ENDROOT
BRANCH   1   2
HETATM    2  C           1     -20.254  -4.436  -8.779  0.00  0.00     0.196 C 
HETATM    3  O           1     -19.443  -3.737  -8.133  0.00  0.00    -0.646 OA
HETATM    4  O           1     -19.984  -4.788  -9.947  0.00  0.00    -0.646 OA
ENDBRANCH   1   2
BRANCH   1   5
HETATM    5  C           1     -22.650  -3.862  -8.535  0.00  0.00     0.038 C 
BRANCH   5   6
HETATM    6  C           1     -23.427  -4.401  -9.729  0.00  0.00     0.030 C 
BRANCH   6   7
HETATM    7  C           1     -24.573  -3.454 -10.060  0.00  0.00     0.230 C 
BRANCH   7   8
HETATM    8  N           1     -24.709  -3.334 -11.549  0.00  0.00    -0.079 N 
HETATM    9  H           1     -24.583  -2.335 -11.831  0.00  0.00     0.274 HD
HETATM   10  H           1     -23.980  -3.921 -12.013  0.00  0.00     0.274 HD
HETATM   11  H           1     -25.658  -3.661 -11.840  0.00  0.00     0.274 HD
ENDBRANCH   7   8
ENDBRANCH   6   7
ENDBRANCH   5   6
ENDBRANCH   1   5
BRANCH   1  12
HETATM   12  N           1     -21.414  -4.871  -6.705  0.00  0.00    -0.345 N 
HETATM   13  H           1     -21.511  -4.015  -6.176  0.00  0.00     0.163 HD
HETATM   14  C           1     -21.147  -6.048  -6.060  0.00  0.00     0.243 C 
HETATM   15  O           1     -21.031  -7.070  -6.692  0.00  0.00    -0.272 OA
BRANCH  14  16
HETATM   16  C           1     -20.996  -6.068  -4.559  0.00  0.00     0.332 C 
BRANCH  16  17
HETATM   17  N           1     -22.344  -6.235  -3.922  0.00  0.00    -0.071 N 
HETATM   18  H           1     -22.230  -6.659  -2.974  0.00  0.00     0.274 HD
HETATM   19  H           1     -22.934  -6.860  -4.517  0.00  0.00     0.274 HD
HETATM   20  H           1     -22.805  -5.302  -3.833  0.00  0.00     0.274 HD
ENDBRANCH  16  17
ENDBRANCH  14  16
ENDBRANCH   1  12
TORSDOF 8
ENDMDL
