MODEL 1
REMARK VINA RESULT:      -8.1      0.000      0.000
REMARK  9 active torsions:
REMARK  status: ('A' for Active; 'I' for Inactive)
REMARK    1  A    between atoms: C_1  and  C_13 
REMARK    2  A    between atoms: C_1  and  C_25 
REMARK    3  A    between atoms: C_1  and  N_28 
REMARK    4  A    between atoms: N_7  and  C_29 
REMARK       I    between atoms: N_7  and  C_13 
REMARK    5  A    between atoms: C_14  and  C_29 
REMARK    6  A    between atoms: C_14  and  C_21 
REMARK    7  A    between atoms: C_17  and  C_29 
REMARK    8  A    between atoms: C_18  and  O_19 
REMARK    9  A    between atoms: C_25  and  C_27 
ROOT
HETATM    1  N           1     -20.701  -7.491  -6.255  0.00  0.00    -0.344 N 
HETATM    2  O           1     -19.091  -6.451  -7.401  0.00  0.00    -0.271 OA
HETATM    3  C           1     -20.112  -6.363  -6.762  0.00  0.00     0.249 C 
HETATM    4  H           1     -21.387  -7.994  -6.803  0.00  0.00     0.163 HD
ENDROOT
BRANCH   3   5
HETATM    5  C           1     -20.740  -5.012  -6.521  0.00  0.00     0.278 C 
BRANCH   5   6
HETATM    6  C           1     -20.267  -4.036  -7.591  0.00  0.00     0.081 C 
BRANCH   6   7
HETATM    7  C           1     -21.097  -4.208  -8.826  0.00  0.00    -0.056 A 
HETATM    8  C           1     -22.477  -4.375  -8.721  0.00  0.00     0.010 A 
HETATM    9  C           1     -23.250  -4.537  -9.871  0.00  0.00     0.037 A 
HETATM   10  C           1     -22.641  -4.531 -11.126  0.00  0.00     0.065 A 
HETATM   11  C           1     -21.260  -4.365 -11.231  0.00  0.00     0.037 A 
HETATM   12  C           1     -20.488  -4.203 -10.080  0.00  0.00     0.010 A 
BRANCH  10  13
HETATM   13  O           1     -23.392  -4.687 -12.244  0.00  0.00    -0.361 OA
HETATM   14  H           1     -23.802  -3.831 -12.452  0.00  0.00     0.217 HD
ENDBRANCH  10  13
ENDBRANCH   6   7
ENDBRANCH   5   6
BRANCH   5  15
HETATM   15  N           1     -20.334  -4.506  -5.169  0.00  0.00    -0.066 N 
HETATM   16  H           1     -19.306  -4.644  -5.039  0.00  0.00     0.275 HD
HETATM   17  H           1     -20.851  -5.034  -4.431  0.00  0.00     0.275 HD
HETATM   18  H           1     -20.561  -3.489  -5.095  0.00  0.00     0.275 HD
ENDBRANCH   5  15
ENDBRANCH   3   5
BRANCH   1  19
HETATM   19  C           1     -20.342  -7.963  -4.932  0.00  0.00     0.189 C 
BRANCH  19  20
HETATM   20  C           1     -21.529  -8.688  -4.312  0.00  0.00     0.074 C 
BRANCH  20  21
HETATM   21  C           1     -21.762  -8.171  -2.926  0.00  0.00    -0.056 A 
HETATM   22  C           1     -21.766  -9.053  -1.845  0.00  0.00     0.007 A 
HETATM   23  C           1     -21.984  -8.572  -0.555  0.00  0.00     0.001 A 
HETATM   24  C           1     -22.198  -7.210  -0.344  0.00  0.00     0.000 A 
HETATM   25  C           1     -22.195  -6.329  -1.425  0.00  0.00     0.001 A 
HETATM   26  C           1     -21.977  -6.810  -2.717  0.00  0.00     0.007 A 
ENDBRANCH  20  21
ENDBRANCH  19  20
BRANCH  19  27
HETATM   27  C           1     -19.173  -8.911  -5.037  0.00  0.00     0.197 C 
HETATM   28  O           1     -18.422  -9.089  -4.053  0.00  0.00    -0.646 OA
HETATM   29  O           1     -18.953  -9.517  -6.108  0.00  0.00    -0.646 OA
ENDBRANCH  19  27
ENDBRANCH   1  19
TORSDOF 9
ENDMDL
MODEL 2
REMARK VINA RESULT:      -7.8      1.282      1.760
REMARK  9 active torsions:
REMARK  status: ('A' for Active; 'I' for Inactive)
REMARK    1  A    between atoms: C_1  and  C_13 
REMARK    2  A    between atoms: C_1  and  C_25 
REMARK    3  A    between atoms: C_1  and  N_28 
REMARK    4  A    between atoms: N_7  and  C_29 
REMARK       I    between atoms: N_7  and  C_13 
REMARK    5  A    between atoms: C_14  and  C_29 
REMARK    6  A    between atoms: C_14  and  C_21 
REMARK    7  A    between atoms: C_17  and  C_29 
REMARK    8  A    between atoms: C_18  and  O_19 
REMARK    9  A    between atoms: C_25  and  C_27 
ROOT
HETATM    1  N           1     -20.813  -8.518  -5.216  0.00  0.00    -0.344 N 
HETATM    2  O           1     -19.356  -7.315  -6.407  0.00  0.00    -0.271 OA
HETATM    3  C           1     -20.415  -7.359  -5.827  0.00  0.00     0.249 C 
HETATM    4  H           1     -21.354  -9.201  -5.729  0.00  0.00     0.163 HD
ENDROOT
BRANCH   3   5
HETATM    5  C           1     -21.300  -6.137  -5.776  0.00  0.00     0.278 C 
BRANCH   5   6
HETATM    6  C           1     -20.509  -4.918  -6.234  0.00  0.00     0.081 C 
BRANCH   6   7
HETATM    7  C           1     -20.972  -4.507  -7.598  0.00  0.00    -0.056 A 
HETATM    8  C           1     -22.293  -4.108  -7.795  0.00  0.00     0.010 A 
HETATM    9  C           1     -22.724  -3.726  -9.066  0.00  0.00     0.037 A 
HETATM   10  C           1     -21.833  -3.743 -10.139  0.00  0.00     0.065 A 
HETATM   11  C           1     -20.511  -4.143  -9.941  0.00  0.00     0.037 A 
HETATM   12  C           1     -20.081  -4.525  -8.670  0.00  0.00     0.010 A 
BRANCH  10  13
HETATM   13  O           1     -22.250  -3.371 -11.373  0.00  0.00    -0.361 OA
HETATM   14  H           1     -22.012  -4.077 -11.996  0.00  0.00     0.217 HD
ENDBRANCH  10  13
ENDBRANCH   6   7
ENDBRANCH   5   6
BRANCH   5  15
HETATM   15  N           1     -21.776  -5.924  -4.370  0.00  0.00    -0.066 N 
HETATM   16  H           1     -22.767  -6.246  -4.285  0.00  0.00     0.275 HD
HETATM   17  H           1     -21.719  -4.908  -4.134  0.00  0.00     0.275 HD
HETATM   18  H           1     -21.175  -6.469  -3.712  0.00  0.00     0.275 HD
ENDBRANCH   5  15
ENDBRANCH   3   5
BRANCH   1  19
HETATM   19  C           1     -20.458  -8.765  -3.831  0.00  0.00     0.189 C 
BRANCH  19  20
HETATM   20  C           1     -21.452  -9.742  -3.220  0.00  0.00     0.074 C 
BRANCH  20  21
HETATM   21  C           1     -21.975  -9.183  -1.932  0.00  0.00    -0.056 A 
HETATM   22  C           1     -21.723  -7.853  -1.597  0.00  0.00     0.007 A 
HETATM   23  C           1     -22.209  -7.333  -0.398  0.00  0.00     0.001 A 
HETATM   24  C           1     -22.947  -8.142   0.466  0.00  0.00     0.000 A 
HETATM   25  C           1     -23.197  -9.473   0.131  0.00  0.00     0.001 A 
HETATM   26  C           1     -22.711  -9.993  -1.069  0.00  0.00     0.007 A 
ENDBRANCH  20  21
ENDBRANCH  19  20
BRANCH  19  27
HETATM   27  C           1     -19.069  -9.353  -3.766  0.00  0.00     0.197 C 
HETATM   28  O           1     -18.274  -8.980  -2.875  0.00  0.00    -0.646 OA
HETATM   29  O           1     -18.713 -10.210  -4.602  0.00  0.00    -0.646 OA
ENDBRANCH  19  27
ENDBRANCH   1  19
TORSDOF 9
ENDMDL
MODEL 3
REMARK VINA RESULT:      -7.6      2.035      8.105
REMARK  9 active torsions:
REMARK  status: ('A' for Active; 'I' for Inactive)
REMARK    1  A    between atoms: C_1  and  C_13 
REMARK    2  A    between atoms: C_1  and  C_25 
REMARK    3  A    between atoms: C_1  and  N_28 
REMARK    4  A    between atoms: N_7  and  C_29 
REMARK       I    between atoms: N_7  and  C_13 
REMARK    5  A    between atoms: C_14  and  C_29 
REMARK    6  A    between atoms: C_14  and  C_21 
REMARK    7  A    between atoms: C_17  and  C_29 
REMARK    8  A    between atoms: C_18  and  O_19 
REMARK    9  A    between atoms: C_25  and  C_27 
ROOT
HETATM    1  N           1     -22.051  -5.031  -6.125  0.00  0.00    -0.344 N 
HETATM    2  O           1     -20.327  -5.156  -4.711  0.00  0.00    -0.271 OA
HETATM    3  C           1     -21.261  -5.712  -5.239  0.00  0.00     0.249 C 
HETATM    4  H           1     -22.865  -4.528  -5.795  0.00  0.00     0.163 HD
ENDROOT
BRANCH   3   5
HETATM    5  C           1     -21.556  -7.158  -4.922  0.00  0.00     0.278 C 
BRANCH   5   6
HETATM    6  C           1     -20.616  -7.639  -3.824  0.00  0.00     0.081 C 
BRANCH   6   7
HETATM    7  C           1     -21.375  -7.768  -2.539  0.00  0.00    -0.056 A 
HETATM    8  C           1     -21.632  -9.030  -2.005  0.00  0.00     0.010 A 
HETATM    9  C           1     -22.339  -9.150  -0.808  0.00  0.00     0.037 A 
HETATM   10  C           1     -22.788  -8.008  -0.146  0.00  0.00     0.065 A 
HETATM   11  C           1     -22.531  -6.745  -0.681  0.00  0.00     0.037 A 
HETATM   12  C           1     -21.824  -6.626  -1.877  0.00  0.00     0.010 A 
BRANCH  10  13
HETATM   13  O           1     -23.474  -8.124   1.017  0.00  0.00    -0.361 OA
HETATM   14  H           1     -24.402  -8.317   0.801  0.00  0.00     0.217 HD
ENDBRANCH  10  13
ENDBRANCH   6   7
ENDBRANCH   5   6
BRANCH   5  15
HETATM   15  N           1     -21.355  -7.991  -6.152  0.00  0.00    -0.066 N 
HETATM   16  H           1     -20.523  -7.640  -6.679  0.00  0.00     0.275 HD
HETATM   17  H           1     -22.203  -7.926  -6.759  0.00  0.00     0.275 HD
HETATM   18  H           1     -21.198  -8.987  -5.877  0.00  0.00     0.275 HD
ENDBRANCH   5  15
ENDBRANCH   3   5
BRANCH   1  19
HETATM   19  C           1     -21.722  -5.031  -7.538  0.00  0.00     0.189 C 
BRANCH  19  20
HETATM   20  C           1     -22.221  -3.742  -8.175  0.00  0.00     0.074 C 
BRANCH  20  21
HETATM   21  C           1     -22.458  -3.965  -9.636  0.00  0.00    -0.056 A 
HETATM   22  C           1     -23.532  -4.749 -10.057  0.00  0.00     0.007 A 
HETATM   23  C           1     -23.751  -4.958 -11.418  0.00  0.00     0.001 A 
HETATM   24  C           1     -22.898  -4.383 -12.359  0.00  0.00     0.000 A 
HETATM   25  C           1     -21.823  -3.599 -11.938  0.00  0.00     0.001 A 
HETATM   26  C           1     -21.603  -3.390 -10.576  0.00  0.00     0.007 A 
ENDBRANCH  20  21
ENDBRANCH  19  20
BRANCH  19  27
HETATM   27  C           1     -20.226  -5.128  -7.705  0.00  0.00     0.197 C 
HETATM   28  O           1     -19.682  -6.248  -7.829  0.00  0.00    -0.646 OA
HETATM   29  O           1     -19.529  -4.091  -7.719  0.00  0.00    -0.646 OA
ENDBRANCH  19  27
ENDBRANCH   1  19
TORSDOF 9
ENDMDL
MODEL 4
REMARK VINA RESULT:      -7.5     13.585     16.941
REMARK  9 active torsions:
REMARK  status: ('A' for Active; 'I' for Inactive)
REMARK    1  A    between atoms: C_1  and  C_13 
REMARK    2  A    between atoms: C_1  and  C_25 
REMARK    3  A    between atoms: C_1  and  N_28 
REMARK    4  A    between atoms: N_7  and  C_29 
REMARK       I    between atoms: N_7  and  C_13 
REMARK    5  A    between atoms: C_14  and  C_29 
REMARK    6  A    between atoms: C_14  and  C_21 
REMARK    7  A    between atoms: C_17  and  C_29 
REMARK    8  A    between atoms: C_18  and  O_19 
REMARK    9  A    between atoms: C_25  and  C_27 
ROOT
HETATM    1  N           1     -34.805  -1.040 -12.715  0.00  0.00    -0.344 N 
HETATM    2  O           1     -34.667  -3.029 -13.720  0.00  0.00    -0.271 OA
HETATM    3  C           1     -34.511  -2.377 -12.715  0.00  0.00     0.249 C 
HETATM    4  H           1     -34.091  -0.365 -12.959  0.00  0.00     0.163 HD
ENDROOT
BRANCH   3   5
HETATM    5  C           1     -33.994  -3.035 -11.459  0.00  0.00     0.278 C 
BRANCH   5   6
HETATM    6  C           1     -35.108  -3.855 -10.820  0.00  0.00     0.081 C 
BRANCH   6   7
HETATM    7  C           1     -34.629  -5.256 -10.594  0.00  0.00    -0.056 A 
HETATM    8  C           1     -33.410  -5.671 -11.128  0.00  0.00     0.010 A 
HETATM    9  C           1     -32.965  -6.976 -10.918  0.00  0.00     0.037 A 
HETATM   10  C           1     -33.740  -7.866 -10.174  0.00  0.00     0.065 A 
HETATM   11  C           1     -34.960  -7.451  -9.640  0.00  0.00     0.037 A 
HETATM   12  C           1     -35.404  -6.145  -9.851  0.00  0.00     0.010 A 
BRANCH  10  13
HETATM   13  O           1     -33.307  -9.134  -9.970  0.00  0.00    -0.361 OA
HETATM   14  H           1     -32.431  -9.089  -9.552  0.00  0.00     0.217 HD
ENDBRANCH  10  13
ENDBRANCH   6   7
ENDBRANCH   5   6
BRANCH   5  15
HETATM   15  N           1     -33.534  -1.982 -10.496  0.00  0.00    -0.066 N 
HETATM   16  H           1     -33.510  -2.378  -9.530  0.00  0.00     0.275 HD
HETATM   17  H           1     -34.194  -1.173 -10.524  0.00  0.00     0.275 HD
HETATM   18  H           1     -32.576  -1.659 -10.764  0.00  0.00     0.275 HD
ENDBRANCH   5  15
ENDBRANCH   3   5
BRANCH   1  19
HETATM   19  C           1     -36.138  -0.590 -12.364  0.00  0.00     0.189 C 
BRANCH  19  20
HETATM   20  C           1     -36.042   0.662 -11.505  0.00  0.00     0.074 C 
BRANCH  20  21
HETATM   21  C           1     -36.712   0.418 -10.188  0.00  0.00    -0.056 A 
HETATM   22  C           1     -36.949  -0.887  -9.758  0.00  0.00     0.007 A 
HETATM   23  C           1     -37.573  -1.115  -8.532  0.00  0.00     0.001 A 
HETATM   24  C           1     -37.960  -0.037  -7.735  0.00  0.00     0.000 A 
HETATM   25  C           1     -37.723   1.268  -8.166  0.00  0.00     0.001 A 
HETATM   26  C           1     -37.099   1.496  -9.393  0.00  0.00     0.007 A 
ENDBRANCH  20  21
ENDBRANCH  19  20
BRANCH  19  27
HETATM   27  C           1     -36.911  -0.280 -13.623  0.00  0.00     0.197 C 
HETATM   28  O           1     -38.070  -0.727 -13.771  0.00  0.00    -0.646 OA
HETATM   29  O           1     -36.393   0.423 -14.517  0.00  0.00    -0.646 OA
ENDBRANCH  19  27
ENDBRANCH   1  19
TORSDOF 9
ENDMDL
MODEL 5
REMARK VINA RESULT:      -7.4      4.286      7.309
REMARK  9 active torsions:
REMARK  status: ('A' for Active; 'I' for Inactive)
REMARK    1  A    between atoms: C_1  and  C_13 
REMARK    2  A    between atoms: C_1  and  C_25 
REMARK    3  A    between atoms: C_1  and  N_28 
REMARK    4  A    between atoms: N_7  and  C_29 
REMARK       I    between atoms: N_7  and  C_13 
REMARK    5  A    between atoms: C_14  and  C_29 
REMARK    6  A    between atoms: C_14  and  C_21 
REMARK    7  A    between atoms: C_17  and  C_29 
REMARK    8  A    between atoms: C_18  and  O_19 
REMARK    9  A    between atoms: C_25  and  C_27 
ROOT
HETATM    1  N           1     -20.526  -7.789  -3.705  0.00  0.00    -0.344 N 
HETATM    2  O           1     -21.147  -7.945  -5.844  0.00  0.00    -0.271 OA
HETATM    3  C           1     -20.612  -8.463  -4.893  0.00  0.00     0.249 C 
HETATM    4  H           1     -19.726  -7.200  -3.513  0.00  0.00     0.163 HD
ENDROOT
BRANCH   3   5
HETATM    5  C           1     -20.037  -9.853  -5.014  0.00  0.00     0.278 C 
BRANCH   5   6
HETATM    6  C           1     -18.531  -9.764  -5.224  0.00  0.00     0.081 C 
BRANCH   6   7
HETATM    7  C           1     -17.826 -10.225  -3.985  0.00  0.00    -0.056 A 
HETATM    8  C           1     -16.525  -9.799  -3.723  0.00  0.00     0.010 A 
HETATM    9  C           1     -15.869 -10.229  -2.570  0.00  0.00     0.037 A 
HETATM   10  C           1     -16.514 -11.087  -1.679  0.00  0.00     0.065 A 
HETATM   11  C           1     -17.816 -11.514  -1.942  0.00  0.00     0.037 A 
HETATM   12  C           1     -18.472 -11.082  -3.095  0.00  0.00     0.010 A 
BRANCH  10  13
HETATM   13  O           1     -15.877 -11.504  -0.559  0.00  0.00    -0.361 OA
HETATM   14  H           1     -16.551 -11.714   0.109  0.00  0.00     0.217 HD
ENDBRANCH  10  13
ENDBRANCH   6   7
ENDBRANCH   5   6
BRANCH   5  15
HETATM   15  N           1     -20.663 -10.552  -6.184  0.00  0.00    -0.066 N 
HETATM   16  H           1     -20.551 -11.585  -6.074  0.00  0.00     0.275 HD
HETATM   17  H           1     -20.195 -10.244  -7.065  0.00  0.00     0.275 HD
HETATM   18  H           1     -21.680 -10.315  -6.228  0.00  0.00     0.275 HD
ENDBRANCH   5  15
ENDBRANCH   3   5
BRANCH   1  19
HETATM   19  C           1     -21.584  -7.919  -2.721  0.00  0.00     0.189 C 
BRANCH  19  20
HETATM   20  C           1     -21.115  -8.821  -1.588  0.00  0.00     0.074 C 
BRANCH  20  21
HETATM   21  C           1     -22.121  -9.908  -1.365  0.00  0.00    -0.056 A 
HETATM   22  C           1     -22.172 -10.999  -2.232  0.00  0.00     0.007 A 
HETATM   23  C           1     -23.110 -12.010  -2.025  0.00  0.00     0.001 A 
HETATM   24  C           1     -23.997 -11.931  -0.951  0.00  0.00     0.000 A 
HETATM   25  C           1     -23.946 -10.838  -0.085  0.00  0.00     0.001 A 
HETATM   26  C           1     -23.008  -9.826  -0.292  0.00  0.00     0.007 A 
ENDBRANCH  20  21
ENDBRANCH  19  20
BRANCH  19  27
HETATM   27  C           1     -21.927  -6.556  -2.170  0.00  0.00     0.197 C 
HETATM   28  O           1     -22.605  -6.458  -1.123  0.00  0.00    -0.646 OA
HETATM   29  O           1     -21.535  -5.527  -2.759  0.00  0.00    -0.646 OA
ENDBRANCH  19  27
ENDBRANCH   1  19
TORSDOF 9
ENDMDL
MODEL 6
REMARK VINA RESULT:      -7.4      3.339      5.032
REMARK  9 active torsions:
REMARK  status: ('A' for Active; 'I' for Inactive)
REMARK    1  A    between atoms: C_1  and  C_13 
REMARK    2  A    between atoms: C_1  and  C_25 
REMARK    3  A    between atoms: C_1  and  N_28 
REMARK    4  A    between atoms: N_7  and  C_29 
REMARK       I    between atoms: N_7  and  C_13 
REMARK    5  A    between atoms: C_14  and  C_29 
REMARK    6  A    between atoms: C_14  and  C_21 
REMARK    7  A    between atoms: C_17  and  C_29 
REMARK    8  A    between atoms: C_18  and  O_19 
REMARK    9  A    between atoms: C_25  and  C_27 
ROOT
HETATM    1  N           1     -21.078  -7.617  -1.517  0.00  0.00    -0.344 N 
HETATM    2  O           1     -22.230  -5.866  -2.290  0.00  0.00    -0.271 OA
HETATM    3  C           1     -21.616  -6.877  -2.536  0.00  0.00     0.249 C 
HETATM    4  H           1     -20.138  -7.426  -1.195  0.00  0.00     0.163 HD
ENDROOT
BRANCH   3   5
HETATM    5  C           1     -21.441  -7.325  -3.967  0.00  0.00     0.278 C 
BRANCH   5   6
HETATM    6  C           1     -22.425  -6.576  -4.857  0.00  0.00     0.081 C 
BRANCH   6   7
HETATM    7  C           1     -21.671  -5.801  -5.893  0.00  0.00    -0.056 A 
HETATM    8  C           1     -20.301  -6.005  -6.057  0.00  0.00     0.010 A 
HETATM    9  C           1     -19.599  -5.282  -7.021  0.00  0.00     0.037 A 
HETATM   10  C           1     -20.267  -4.356  -7.822  0.00  0.00     0.065 A 
HETATM   11  C           1     -21.637  -4.151  -7.658  0.00  0.00     0.037 A 
HETATM   12  C           1     -22.339  -4.875  -6.693  0.00  0.00     0.010 A 
BRANCH  10  13
HETATM   13  O           1     -19.585  -3.654  -8.759  0.00  0.00    -0.361 OA
HETATM   14  H           1     -19.615  -4.156  -9.591  0.00  0.00     0.217 HD
ENDBRANCH  10  13
ENDBRANCH   6   7
ENDBRANCH   5   6
BRANCH   5  15
HETATM   15  N           1     -21.700  -8.799  -4.064  0.00  0.00    -0.066 N 
HETATM   16  H           1     -22.727  -8.967  -4.159  0.00  0.00     0.275 HD
HETATM   17  H           1     -21.349  -9.271  -3.201  0.00  0.00     0.275 HD
HETATM   18  H           1     -21.205  -9.185  -4.899  0.00  0.00     0.275 HD
ENDBRANCH   5  15
ENDBRANCH   3   5
BRANCH   1  19
HETATM   19  C           1     -21.857  -8.673  -0.900  0.00  0.00     0.189 C 
BRANCH  19  20
HETATM   20  C           1     -21.005  -9.930  -0.785  0.00  0.00     0.074 C 
BRANCH  20  21
HETATM   21  C           1     -21.865 -11.079  -0.356  0.00  0.00    -0.056 A 
HETATM   22  C           1     -23.072 -11.328  -1.009  0.00  0.00     0.007 A 
HETATM   23  C           1     -23.873 -12.397  -0.609  0.00  0.00     0.001 A 
HETATM   24  C           1     -23.467 -13.218   0.444  0.00  0.00     0.000 A 
HETATM   25  C           1     -22.260 -12.967   1.097  0.00  0.00     0.001 A 
HETATM   26  C           1     -21.459 -11.897   0.697  0.00  0.00     0.007 A 
ENDBRANCH  20  21
ENDBRANCH  19  20
BRANCH  19  27
HETATM   27  C           1     -22.297  -8.235   0.475  0.00  0.00     0.197 C 
HETATM   28  O           1     -23.498  -7.960   0.689  0.00  0.00    -0.646 OA
HETATM   29  O           1     -21.462  -8.146   1.400  0.00  0.00    -0.646 OA
ENDBRANCH  19  27
ENDBRANCH   1  19
TORSDOF 9
ENDMDL
MODEL 7
REMARK VINA RESULT:      -7.4      2.813      8.437
REMARK  9 active torsions:
REMARK  status: ('A' for Active; 'I' for Inactive)
REMARK    1  A    between atoms: C_1  and  C_13 
REMARK    2  A    between atoms: C_1  and  C_25 
REMARK    3  A    between atoms: C_1  and  N_28 
REMARK    4  A    between atoms: N_7  and  C_29 
REMARK       I    between atoms: N_7  and  C_13 
REMARK    5  A    between atoms: C_14  and  C_29 
REMARK    6  A    between atoms: C_14  and  C_21 
REMARK    7  A    between atoms: C_17  and  C_29 
REMARK    8  A    between atoms: C_18  and  O_19 
REMARK    9  A    between atoms: C_25  and  C_27 
ROOT
HETATM    1  N           1     -22.606  -6.829  -3.904  0.00  0.00    -0.344 N 
HETATM    2  O           1     -21.912  -5.650  -2.139  0.00  0.00    -0.271 OA
HETATM    3  C           1     -22.026  -6.730  -2.668  0.00  0.00     0.249 C 
HETATM    4  H           1     -23.605  -6.966  -3.985  0.00  0.00     0.163 HD
ENDROOT
BRANCH   3   5
HETATM    5  C           1     -21.530  -7.971  -1.966  0.00  0.00     0.278 C 
BRANCH   5   6
HETATM    6  C           1     -22.163  -8.059  -0.583  0.00  0.00     0.081 C 
BRANCH   6   7
HETATM    7  C           1     -22.283  -9.497  -0.180  0.00  0.00    -0.056 A 
HETATM    8  C           1     -21.193 -10.156   0.386  0.00  0.00     0.010 A 
HETATM    9  C           1     -21.304 -11.495   0.760  0.00  0.00     0.037 A 
HETATM   10  C           1     -22.507 -12.174   0.568  0.00  0.00     0.065 A 
HETATM   11  C           1     -23.598 -11.515   0.002  0.00  0.00     0.037 A 
HETATM   12  C           1     -23.486 -10.175  -0.372  0.00  0.00     0.010 A 
BRANCH  10  13
HETATM   13  O           1     -22.617 -13.475   0.933  0.00  0.00    -0.361 OA
HETATM   14  H           1     -23.561 -13.702   0.956  0.00  0.00     0.217 HD
ENDBRANCH  10  13
ENDBRANCH   6   7
ENDBRANCH   5   6
BRANCH   5  15
HETATM   15  N           1     -20.038  -7.905  -1.829  0.00  0.00    -0.066 N 
HETATM   16  H           1     -19.602  -8.671  -2.390  0.00  0.00     0.275 HD
HETATM   17  H           1     -19.776  -8.016  -0.824  0.00  0.00     0.275 HD
HETATM   18  H           1     -19.697  -6.980  -2.178  0.00  0.00     0.275 HD
ENDBRANCH   5  15
ENDBRANCH   3   5
BRANCH   1  19
HETATM   19  C           1     -21.787  -6.736  -5.097  0.00  0.00     0.189 C 
BRANCH  19  20
HETATM   20  C           1     -20.913  -5.492  -5.018  0.00  0.00     0.074 C 
BRANCH  20  21
HETATM   21  C           1     -20.741  -4.913  -6.388  0.00  0.00    -0.056 A 
HETATM   22  C           1     -21.862  -4.569  -7.145  0.00  0.00     0.007 A 
HETATM   23  C           1     -21.702  -4.030  -8.421  0.00  0.00     0.001 A 
HETATM   24  C           1     -20.422  -3.834  -8.941  0.00  0.00     0.000 A 
HETATM   25  C           1     -19.303  -4.179  -8.184  0.00  0.00     0.001 A 
HETATM   26  C           1     -19.462  -4.718  -6.907  0.00  0.00     0.007 A 
ENDBRANCH  20  21
ENDBRANCH  19  20
BRANCH  19  27
HETATM   27  C           1     -20.912  -7.961  -5.203  0.00  0.00     0.197 C 
HETATM   28  O           1     -21.396  -9.042  -5.605  0.00  0.00    -0.646 OA
HETATM   29  O           1     -19.704  -7.896  -4.888  0.00  0.00    -0.646 OA
ENDBRANCH  19  27
ENDBRANCH   1  19
TORSDOF 9
ENDMDL
MODEL 8
REMARK VINA RESULT:      -7.3      2.338      4.049
REMARK  9 active torsions:
REMARK  status: ('A' for Active; 'I' for Inactive)
REMARK    1  A    between atoms: C_1  and  C_13 
REMARK    2  A    between atoms: C_1  and  C_25 
REMARK    3  A    between atoms: C_1  and  N_28 
REMARK    4  A    between atoms: N_7  and  C_29 
REMARK       I    between atoms: N_7  and  C_13 
REMARK    5  A    between atoms: C_14  and  C_29 
REMARK    6  A    between atoms: C_14  and  C_21 
REMARK    7  A    between atoms: C_17  and  C_29 
REMARK    8  A    between atoms: C_18  and  O_19 
REMARK    9  A    between atoms: C_25  and  C_27 
ROOT
HETATM    1  N           1     -20.704  -7.135  -3.127  0.00  0.00    -0.344 N 
HETATM    2  O           1     -22.418  -6.324  -4.308  0.00  0.00    -0.271 OA
HETATM    3  C           1     -21.235  -6.566  -4.253  0.00  0.00     0.249 C 
HETATM    4  H           1     -20.361  -6.548  -2.377  0.00  0.00     0.163 HD
ENDROOT
BRANCH   3   5
HETATM    5  C           1     -20.343  -6.240  -5.426  0.00  0.00     0.278 C 
BRANCH   5   6
HETATM    6  C           1     -20.349  -4.736  -5.666  0.00  0.00     0.081 C 
BRANCH   6   7
HETATM    7  C           1     -20.815  -4.455  -7.062  0.00  0.00    -0.056 A 
HETATM    8  C           1     -22.166  -4.217  -7.311  0.00  0.00     0.010 A 
HETATM    9  C           1     -22.600  -3.956  -8.610  0.00  0.00     0.037 A 
HETATM   10  C           1     -21.683  -3.934  -9.661  0.00  0.00     0.065 A 
HETATM   11  C           1     -20.331  -4.172  -9.412  0.00  0.00     0.037 A 
HETATM   12  C           1     -19.898  -4.433  -8.111  0.00  0.00     0.010 A 
BRANCH  10  13
HETATM   13  O           1     -22.104  -3.679 -10.923  0.00  0.00    -0.361 OA
HETATM   14  H           1     -22.451  -4.507 -11.297  0.00  0.00     0.217 HD
ENDBRANCH  10  13
ENDBRANCH   6   7
ENDBRANCH   5   6
BRANCH   5  15
HETATM   15  N           1     -20.850  -6.944  -6.650  0.00  0.00    -0.066 N 
HETATM   16  H           1     -21.387  -6.271  -7.241  0.00  0.00     0.275 HD
HETATM   17  H           1     -21.473  -7.732  -6.364  0.00  0.00     0.275 HD
HETATM   18  H           1     -20.041  -7.319  -7.195  0.00  0.00     0.275 HD
ENDBRANCH   5  15
ENDBRANCH   3   5
BRANCH   1  19
HETATM   19  C           1     -20.635  -8.579  -3.009  0.00  0.00     0.189 C 
BRANCH  19  20
HETATM   20  C           1     -19.302  -8.973  -2.387  0.00  0.00     0.074 C 
BRANCH  20  21
HETATM   21  C           1     -18.327  -9.318  -3.470  0.00  0.00    -0.056 A 
HETATM   22  C           1     -18.771  -9.477  -4.783  0.00  0.00     0.007 A 
HETATM   23  C           1     -17.863  -9.799  -5.791  0.00  0.00     0.001 A 
HETATM   24  C           1     -16.511  -9.963  -5.487  0.00  0.00     0.000 A 
HETATM   25  C           1     -16.069  -9.805  -4.173  0.00  0.00     0.001 A 
HETATM   26  C           1     -16.977  -9.483  -3.164  0.00  0.00     0.007 A 
ENDBRANCH  20  21
ENDBRANCH  19  20
BRANCH  19  27
HETATM   27  C           1     -21.763  -9.066  -2.134  0.00  0.00     0.197 C 
HETATM   28  O           1     -22.259 -10.198  -2.326  0.00  0.00    -0.646 OA
HETATM   29  O           1     -22.203  -8.339  -1.218  0.00  0.00    -0.646 OA
ENDBRANCH  19  27
ENDBRANCH   1  19
TORSDOF 9
ENDMDL
MODEL 9
REMARK VINA RESULT:      -7.2      3.868      6.724
REMARK  9 active torsions:
REMARK  status: ('A' for Active; 'I' for Inactive)
REMARK    1  A    between atoms: C_1  and  C_13 
REMARK    2  A    between atoms: C_1  and  C_25 
REMARK    3  A    between atoms: C_1  and  N_28 
REMARK    4  A    between atoms: N_7  and  C_29 
REMARK       I    between atoms: N_7  and  C_13 
REMARK    5  A    between atoms: C_14  and  C_29 
REMARK    6  A    between atoms: C_14  and  C_21 
REMARK    7  A    between atoms: C_17  and  C_29 
REMARK    8  A    between atoms: C_18  and  O_19 
REMARK    9  A    between atoms: C_25  and  C_27 
ROOT
HETATM    1  N           1     -21.976  -8.795  -4.814  0.00  0.00    -0.344 N 
HETATM    2  O           1     -20.557  -7.609  -6.065  0.00  0.00    -0.271 OA
HETATM    3  C           1     -21.141  -7.729  -5.015  0.00  0.00     0.249 C 
HETATM    4  H           1     -22.956  -8.724  -5.060  0.00  0.00     0.163 HD
ENDROOT
BRANCH   3   5
HETATM    5  C           1     -20.951  -6.704  -3.924  0.00  0.00     0.278 C 
BRANCH   5   6
HETATM    6  C           1     -22.172  -6.701  -3.012  0.00  0.00     0.081 C 
BRANCH   6   7
HETATM    7  C           1     -21.814  -7.319  -1.696  0.00  0.00    -0.056 A 
HETATM    8  C           1     -20.597  -7.981  -1.545  0.00  0.00     0.010 A 
HETATM    9  C           1     -20.264  -8.558  -0.319  0.00  0.00     0.037 A 
HETATM   10  C           1     -21.149  -8.472   0.755  0.00  0.00     0.065 A 
HETATM   11  C           1     -22.367  -7.809   0.604  0.00  0.00     0.037 A 
HETATM   12  C           1     -22.699  -7.232  -0.622  0.00  0.00     0.010 A 
BRANCH  10  13
HETATM   13  O           1     -20.825  -9.030   1.946  0.00  0.00    -0.361 OA
HETATM   14  H           1     -20.293  -9.824   1.771  0.00  0.00     0.217 HD
ENDBRANCH  10  13
ENDBRANCH   6   7
ENDBRANCH   5   6
BRANCH   5  15
HETATM   15  N           1     -20.783  -5.346  -4.537  0.00  0.00    -0.066 N 
HETATM   16  H           1     -19.785  -5.047  -4.454  0.00  0.00     0.275 HD
HETATM   17  H           1     -21.394  -4.661  -4.039  0.00  0.00     0.275 HD
HETATM   18  H           1     -21.052  -5.384  -5.546  0.00  0.00     0.275 HD
ENDBRANCH   5  15
ENDBRANCH   3   5
BRANCH   1  19
HETATM   19  C           1     -21.457 -10.026  -4.249  0.00  0.00     0.189 C 
BRANCH  19  20
HETATM   20  C           1     -22.616 -10.926  -3.844  0.00  0.00     0.074 C 
BRANCH  20  21
HETATM   21  C           1     -22.531 -11.221  -2.378  0.00  0.00    -0.056 A 
HETATM   22  C           1     -21.366 -11.769  -1.843  0.00  0.00     0.007 A 
HETATM   23  C           1     -21.288 -12.045  -0.478  0.00  0.00     0.001 A 
HETATM   24  C           1     -22.375 -11.773   0.352  0.00  0.00     0.000 A 
HETATM   25  C           1     -23.541 -11.226  -0.184  0.00  0.00     0.001 A 
HETATM   26  C           1     -23.620 -10.950  -1.549  0.00  0.00     0.007 A 
ENDBRANCH  20  21
ENDBRANCH  19  20
BRANCH  19  27
HETATM   27  C           1     -20.606 -10.730  -5.276  0.00  0.00     0.197 C 
HETATM   28  O           1     -21.090 -11.029  -6.390  0.00  0.00    -0.646 OA
HETATM   29  O           1     -19.418 -11.016  -5.014  0.00  0.00    -0.646 OA
ENDBRANCH  19  27
ENDBRANCH   1  19
TORSDOF 9
ENDMDL
