MODEL 1
REMARK VINA RESULT:      -6.8      0.000      0.000
REMARK  16 active torsions:
REMARK  status: ('A' for Active; 'I' for Inactive)
REMARK    1  A    between atoms: C_5  and  C_19 
REMARK    2  A    between atoms: C_5  and  C_6 
REMARK    3  A    between atoms: C_6  and  C_7 
REMARK    4  A    between atoms: C_7  and  N_8 
REMARK       I    between atoms: N_8  and  C_9 
REMARK       I    between atoms: C_9  and  N_10 
REMARK    5  A    between atoms: N_12  and  C_19 
REMARK    6  A    between atoms: C_13  and  C_20 
REMARK    7  A    between atoms: C_13  and  C_14 
REMARK    8  A    between atoms: C_13  and  N_28 
REMARK    9  A    between atoms: C_19  and  C_29 
REMARK   10  A    between atoms: C_20  and  C_21 
REMARK   11  A    between atoms: C_21  and  S_22 
REMARK   12  A    between atoms: C_24  and  C_25 
REMARK   13  A    between atoms: C_25  and  C_26 
REMARK   14  A    between atoms: C_25  and  N_30 
REMARK   15  A    between atoms: C_26  and  C_27 
REMARK   16  A    between atoms: C_27  and  N_28 
REMARK       I    between atoms: C_29  and  N_30 
ROOT
HETATM    1  O           1     -34.623  -3.606 -15.264  0.00  0.00    -0.271 OA
HETATM    2  H           1     -34.451  -1.227 -17.302  0.00  0.00     0.163 HD
HETATM    3  C           1     -34.284  -3.006 -16.256  0.00  0.00     0.249 C 
HETATM    4  N           1     -34.734  -1.730 -16.471  0.00  0.00    -0.345 N 
ENDROOT
BRANCH   3   5
HETATM    5  C           1     -33.365  -3.660 -17.258  0.00  0.00     0.274 C 
BRANCH   5   6
HETATM    6  C           1     -32.931  -5.022 -16.735  0.00  0.00     0.044 C 
BRANCH   6   7
HETATM    7  C           1     -31.410  -5.085 -16.682  0.00  0.00     0.023 C 
BRANCH   7   8
HETATM    8  C           1     -30.934  -6.398 -17.290  0.00  0.00     0.138 C 
BRANCH   8   9
HETATM    9  N           1     -29.633  -6.192 -17.943  0.00  0.00    -0.227 N 
HETATM   10  C           1     -29.046  -7.164 -18.504  0.00  0.00     0.665 C 
HETATM   11  N           1     -27.926  -6.987 -19.067  0.00  0.00    -0.235 N 
HETATM   12  N           1     -29.593  -8.344 -18.501  0.00  0.00    -0.235 N 
HETATM   13  H           1     -27.439  -7.793 -19.532  0.00  0.00     0.174 HD
HETATM   14  H           1     -27.484  -6.035 -19.069  0.00  0.00     0.174 HD
HETATM   15  H           1     -29.108  -9.145 -18.963  0.00  0.00     0.174 HD
HETATM   16  H           1     -30.518  -8.489 -18.036  0.00  0.00     0.174 HD
HETATM   17  H           1     -29.192  -5.240 -17.946  0.00  0.00     0.177 HD
ENDBRANCH   8   9
ENDBRANCH   7   8
ENDBRANCH   6   7
ENDBRANCH   5   6
BRANCH   5  18
HETATM   18  N           1     -32.156  -2.796 -17.466  0.00  0.00    -0.067 N 
HETATM   19  H           1     -31.300  -3.395 -17.495  0.00  0.00     0.275 HD
HETATM   20  H           1     -32.250  -2.279 -18.369  0.00  0.00     0.275 HD
HETATM   21  H           1     -32.076  -2.114 -16.678  0.00  0.00     0.275 HD
ENDBRANCH   5  18
ENDBRANCH   3   5
BRANCH   4  22
HETATM   22  C           1     -35.617  -1.101 -15.508  0.00  0.00     0.187 C 
BRANCH  22  23
HETATM   23  C           1     -36.655  -0.284 -16.237  0.00  0.00     0.196 C 
HETATM   24  O           1     -37.624  -0.850 -16.786  0.00  0.00    -0.646 OA
HETATM   25  O           1     -36.545   0.960 -16.292  0.00  0.00    -0.646 OA
ENDBRANCH  22  23
BRANCH  22  26
HETATM   26  C           1     -34.805  -0.193 -14.593  0.00  0.00     0.066 C 
BRANCH  26  27
HETATM   27  C           1     -35.442  -0.163 -13.211  0.00  0.00     0.273 C 
BRANCH  27  28
HETATM   28  N           1     -34.446  -0.457 -12.217  0.00  0.00     0.098 N 
HETATM   29  H           1     -34.438   0.281 -11.513  0.00  0.00     0.317 HD
BRANCH  28  30
HETATM   30  C           1     -34.801  -1.706 -11.598  0.00  0.00     0.321 C 
BRANCH  30  31
HETATM   31  C           1     -33.589  -2.276 -10.874  0.00  0.00     0.057 C 
BRANCH  31  32
HETATM   32  C           1     -33.120  -3.539 -11.585  0.00  0.00     0.076 C 
BRANCH  32  33
HETATM   33  S           1     -34.533  -4.647 -11.847  0.00  0.00    -0.173 SA
HETATM   34  C           1     -33.906  -6.013 -10.830  0.00  0.00     0.089 C 
ENDBRANCH  32  33
ENDBRANCH  31  32
ENDBRANCH  30  31
BRANCH  30  35
HETATM   35  C           1     -35.917  -1.476 -10.608  0.00  0.00     0.207 C 
HETATM   36  O           1     -36.960  -2.161 -10.673  0.00  0.00    -0.646 OA
HETATM   37  O           1     -35.798  -0.600  -9.724  0.00  0.00    -0.646 OA
ENDBRANCH  30  35
ENDBRANCH  28  30
ENDBRANCH  27  28
ENDBRANCH  26  27
ENDBRANCH  22  26
ENDBRANCH   4  22
TORSDOF 16
ENDMDL
MODEL 2
REMARK VINA RESULT:      -6.7     14.664     16.609
REMARK  16 active torsions:
REMARK  status: ('A' for Active; 'I' for Inactive)
REMARK    1  A    between atoms: C_5  and  C_19 
REMARK    2  A    between atoms: C_5  and  C_6 
REMARK    3  A    between atoms: C_6  and  C_7 
REMARK    4  A    between atoms: C_7  and  N_8 
REMARK       I    between atoms: N_8  and  C_9 
REMARK       I    between atoms: C_9  and  N_10 
REMARK    5  A    between atoms: N_12  and  C_19 
REMARK    6  A    between atoms: C_13  and  C_20 
REMARK    7  A    between atoms: C_13  and  C_14 
REMARK    8  A    between atoms: C_13  and  N_28 
REMARK    9  A    between atoms: C_19  and  C_29 
REMARK   10  A    between atoms: C_20  and  C_21 
REMARK   11  A    between atoms: C_21  and  S_22 
REMARK   12  A    between atoms: C_24  and  C_25 
REMARK   13  A    between atoms: C_25  and  C_26 
REMARK   14  A    between atoms: C_25  and  N_30 
REMARK   15  A    between atoms: C_26  and  C_27 
REMARK   16  A    between atoms: C_27  and  N_28 
REMARK       I    between atoms: C_29  and  N_30 
ROOT
HETATM    1  O           1     -19.964  -4.571  -6.243  0.00  0.00    -0.271 OA
HETATM    2  H           1     -22.197  -6.738  -6.639  0.00  0.00     0.163 HD
HETATM    3  C           1     -20.881  -5.147  -6.779  0.00  0.00     0.249 C 
HETATM    4  N           1     -21.430  -6.255  -6.190  0.00  0.00    -0.345 N 
ENDROOT
BRANCH   3   5
HETATM    5  C           1     -21.421  -4.647  -8.096  0.00  0.00     0.274 C 
BRANCH   5   6
HETATM    6  C           1     -20.267  -4.183  -8.975  0.00  0.00     0.044 C 
BRANCH   6   7
HETATM    7  C           1     -20.551  -4.554 -10.424  0.00  0.00     0.023 C 
BRANCH   7   8
HETATM    8  C           1     -20.711  -3.286 -11.252  0.00  0.00     0.138 C 
BRANCH   8   9
HETATM    9  N           1     -22.128  -2.901 -11.292  0.00  0.00    -0.227 N 
HETATM   10  C           1     -22.765  -2.944 -12.385  0.00  0.00     0.665 C 
HETATM   11  N           1     -23.987  -2.613 -12.419  0.00  0.00    -0.235 N 
HETATM   12  N           1     -22.165  -3.328 -13.473  0.00  0.00    -0.235 N 
HETATM   13  H           1     -24.516  -2.648 -13.326  0.00  0.00     0.174 HD
HETATM   14  H           1     -24.472  -2.303 -11.541  0.00  0.00     0.174 HD
HETATM   15  H           1     -22.691  -3.362 -14.374  0.00  0.00     0.174 HD
HETATM   16  H           1     -21.157  -3.601 -13.444  0.00  0.00     0.174 HD
HETATM   17  H           1     -22.613  -2.592 -10.414  0.00  0.00     0.177 HD
ENDBRANCH   8   9
ENDBRANCH   7   8
ENDBRANCH   6   7
ENDBRANCH   5   6
BRANCH   5  18
HETATM   18  N           1     -22.353  -3.498  -7.849  0.00  0.00    -0.067 N 
HETATM   19  H           1     -23.232  -3.850  -7.406  0.00  0.00     0.275 HD
HETATM   20  H           1     -21.894  -2.809  -7.212  0.00  0.00     0.275 HD
HETATM   21  H           1     -22.583  -3.035  -8.757  0.00  0.00     0.275 HD
ENDBRANCH   5  18
ENDBRANCH   3   5
BRANCH   4  22
HETATM   22  C           1     -20.911  -6.736  -4.924  0.00  0.00     0.187 C 
BRANCH  22  23
HETATM   23  C           1     -20.348  -8.124  -5.107  0.00  0.00     0.196 C 
HETATM   24  O           1     -20.862  -8.902  -5.939  0.00  0.00    -0.646 OA
HETATM   25  O           1     -19.368  -8.496  -4.425  0.00  0.00    -0.646 OA
ENDBRANCH  22  23
BRANCH  22  26
HETATM   26  C           1     -22.035  -6.774  -3.897  0.00  0.00     0.066 C 
BRANCH  26  27
HETATM   27  C           1     -21.531  -6.222  -2.571  0.00  0.00     0.273 C 
BRANCH  27  28
HETATM   28  N           1     -20.801  -7.244  -1.872  0.00  0.00     0.098 N 
HETATM   29  H           1     -20.359  -6.842  -1.044  0.00  0.00     0.317 HD
BRANCH  28  30
HETATM   30  C           1     -21.741  -8.255  -1.469  0.00  0.00     0.321 C 
BRANCH  30  31
HETATM   31  C           1     -21.053  -9.613  -1.462  0.00  0.00     0.057 C 
BRANCH  31  32
HETATM   32  C           1     -22.095 -10.712  -1.634  0.00  0.00     0.076 C 
BRANCH  32  33
HETATM   33  S           1     -22.484 -10.907  -3.396  0.00  0.00    -0.173 SA
HETATM   34  C           1     -20.974 -11.816  -3.833  0.00  0.00     0.089 C 
ENDBRANCH  32  33
ENDBRANCH  31  32
ENDBRANCH  30  31
BRANCH  30  35
HETATM   35  C           1     -22.253  -7.942  -0.085  0.00  0.00     0.207 C 
HETATM   36  O           1     -23.405  -7.481   0.066  0.00  0.00    -0.646 OA
HETATM   37  O           1     -21.524  -8.143   0.911  0.00  0.00    -0.646 OA
ENDBRANCH  30  35
ENDBRANCH  28  30
ENDBRANCH  27  28
ENDBRANCH  26  27
ENDBRANCH  22  26
ENDBRANCH   4  22
TORSDOF 16
ENDMDL
MODEL 3
REMARK VINA RESULT:      -6.7     13.675     15.445
REMARK  16 active torsions:
REMARK  status: ('A' for Active; 'I' for Inactive)
REMARK    1  A    between atoms: C_5  and  C_19 
REMARK    2  A    between atoms: C_5  and  C_6 
REMARK    3  A    between atoms: C_6  and  C_7 
REMARK    4  A    between atoms: C_7  and  N_8 
REMARK       I    between atoms: N_8  and  C_9 
REMARK       I    between atoms: C_9  and  N_10 
REMARK    5  A    between atoms: N_12  and  C_19 
REMARK    6  A    between atoms: C_13  and  C_20 
REMARK    7  A    between atoms: C_13  and  C_14 
REMARK    8  A    between atoms: C_13  and  N_28 
REMARK    9  A    between atoms: C_19  and  C_29 
REMARK   10  A    between atoms: C_20  and  C_21 
REMARK   11  A    between atoms: C_21  and  S_22 
REMARK   12  A    between atoms: C_24  and  C_25 
REMARK   13  A    between atoms: C_25  and  C_26 
REMARK   14  A    between atoms: C_25  and  N_30 
REMARK   15  A    between atoms: C_26  and  C_27 
REMARK   16  A    between atoms: C_27  and  N_28 
REMARK       I    between atoms: C_29  and  N_30 
ROOT
HETATM    1  O           1     -22.267  -3.303  -8.432  0.00  0.00    -0.271 OA
HETATM    2  H           1     -22.346  -6.437  -8.311  0.00  0.00     0.163 HD
HETATM    3  C           1     -22.514  -4.430  -8.790  0.00  0.00     0.249 C 
HETATM    4  N           1     -22.140  -5.493  -8.012  0.00  0.00    -0.345 N 
ENDROOT
BRANCH   3   5
HETATM    5  C           1     -23.235  -4.668 -10.095  0.00  0.00     0.274 C 
BRANCH   5   6
HETATM    6  C           1     -22.330  -4.272 -11.254  0.00  0.00     0.044 C 
BRANCH   6   7
HETATM    7  C           1     -22.727  -2.893 -11.761  0.00  0.00     0.023 C 
BRANCH   7   8
HETATM    8  C           1     -23.060  -2.972 -13.245  0.00  0.00     0.138 C 
BRANCH   8   9
HETATM    9  N           1     -23.917  -1.837 -13.616  0.00  0.00    -0.227 N 
HETATM   10  C           1     -23.762  -1.267 -14.736  0.00  0.00     0.665 C 
HETATM   11  N           1     -24.500  -0.290 -15.057  0.00  0.00    -0.235 N 
HETATM   12  N           1     -22.844  -1.686 -15.557  0.00  0.00    -0.235 N 
HETATM   13  H           1     -24.372   0.183 -15.985  0.00  0.00     0.174 HD
HETATM   14  H           1     -25.241   0.048 -14.394  0.00  0.00     0.174 HD
HETATM   15  H           1     -22.716  -1.215 -16.481  0.00  0.00     0.174 HD
HETATM   16  H           1     -22.235  -2.493 -15.292  0.00  0.00     0.174 HD
HETATM   17  H           1     -24.658  -1.500 -12.954  0.00  0.00     0.177 HD
ENDBRANCH   8   9
ENDBRANCH   7   8
ENDBRANCH   6   7
ENDBRANCH   5   6
BRANCH   5  18
HETATM   18  N           1     -24.485  -3.840 -10.133  0.00  0.00    -0.067 N 
HETATM   19  H           1     -24.616  -3.364  -9.211  0.00  0.00     0.275 HD
HETATM   20  H           1     -24.403  -3.121 -10.887  0.00  0.00     0.275 HD
HETATM   21  H           1     -25.306  -4.457 -10.325  0.00  0.00     0.275 HD
ENDBRANCH   5  18
ENDBRANCH   3   5
BRANCH   4  22
HETATM   22  C           1     -21.447  -5.265  -6.758  0.00  0.00     0.187 C 
BRANCH  22  23
HETATM   23  C           1     -19.976  -5.547  -6.939  0.00  0.00     0.196 C 
HETATM   24  O           1     -19.146  -4.617  -6.852  0.00  0.00    -0.646 OA
HETATM   25  O           1     -19.587  -6.711  -7.175  0.00  0.00    -0.646 OA
ENDBRANCH  22  23
BRANCH  22  26
HETATM   26  C           1     -22.015  -6.189  -5.690  0.00  0.00     0.066 C 
BRANCH  26  27
HETATM   27  C           1     -21.274  -5.966  -4.378  0.00  0.00     0.273 C 
BRANCH  27  28
HETATM   28  N           1     -21.849  -6.797  -3.355  0.00  0.00     0.098 N 
HETATM   29  H           1     -22.582  -7.380  -3.761  0.00  0.00     0.317 HD
BRANCH  28  30
HETATM   30  C           1     -20.803  -7.636  -2.835  0.00  0.00     0.321 C 
BRANCH  30  31
HETATM   31  C           1     -20.948  -7.748  -1.323  0.00  0.00     0.057 C 
BRANCH  31  32
HETATM   32  C           1     -22.257  -7.101  -0.888  0.00  0.00     0.076 C 
BRANCH  32  33
HETATM   33  S           1     -23.055  -8.135   0.372  0.00  0.00    -0.173 SA
HETATM   34  C           1     -22.006  -9.595   0.124  0.00  0.00     0.089 C 
ENDBRANCH  32  33
ENDBRANCH  31  32
ENDBRANCH  30  31
BRANCH  30  35
HETATM   35  C           1     -20.907  -9.009  -3.454  0.00  0.00     0.207 C 
HETATM   36  O           1     -19.967  -9.823  -3.328  0.00  0.00    -0.646 OA
HETATM   37  O           1     -21.931  -9.331  -4.094  0.00  0.00    -0.646 OA
ENDBRANCH  30  35
ENDBRANCH  28  30
ENDBRANCH  27  28
ENDBRANCH  26  27
ENDBRANCH  22  26
ENDBRANCH   4  22
TORSDOF 16
ENDMDL
MODEL 4
REMARK VINA RESULT:      -6.5     15.141     17.341
REMARK  16 active torsions:
REMARK  status: ('A' for Active; 'I' for Inactive)
REMARK    1  A    between atoms: C_5  and  C_19 
REMARK    2  A    between atoms: C_5  and  C_6 
REMARK    3  A    between atoms: C_6  and  C_7 
REMARK    4  A    between atoms: C_7  and  N_8 
REMARK       I    between atoms: N_8  and  C_9 
REMARK       I    between atoms: C_9  and  N_10 
REMARK    5  A    between atoms: N_12  and  C_19 
REMARK    6  A    between atoms: C_13  and  C_20 
REMARK    7  A    between atoms: C_13  and  C_14 
REMARK    8  A    between atoms: C_13  and  N_28 
REMARK    9  A    between atoms: C_19  and  C_29 
REMARK   10  A    between atoms: C_20  and  C_21 
REMARK   11  A    between atoms: C_21  and  S_22 
REMARK   12  A    between atoms: C_24  and  C_25 
REMARK   13  A    between atoms: C_25  and  C_26 
REMARK   14  A    between atoms: C_25  and  N_30 
REMARK   15  A    between atoms: C_26  and  C_27 
REMARK   16  A    between atoms: C_27  and  N_28 
REMARK       I    between atoms: C_29  and  N_30 
ROOT
HETATM    1  O           1     -19.682  -7.412  -6.217  0.00  0.00    -0.271 OA
HETATM    2  H           1     -22.311  -8.311  -4.762  0.00  0.00     0.163 HD
HETATM    3  C           1     -20.822  -7.343  -5.826  0.00  0.00     0.249 C 
HETATM    4  N           1     -21.356  -8.367  -5.090  0.00  0.00    -0.345 N 
ENDROOT
BRANCH   3   5
HETATM    5  C           1     -21.660  -6.131  -6.148  0.00  0.00     0.274 C 
BRANCH   5   6
HETATM    6  C           1     -20.792  -4.881  -6.081  0.00  0.00     0.044 C 
BRANCH   6   7
HETATM    7  C           1     -21.346  -3.826  -7.028  0.00  0.00     0.023 C 
BRANCH   7   8
HETATM    8  C           1     -22.068  -4.506  -8.184  0.00  0.00     0.138 C 
BRANCH   8   9
HETATM    9  N           1     -23.382  -3.877  -8.380  0.00  0.00    -0.227 N 
HETATM   10  C           1     -24.064  -4.145  -9.412  0.00  0.00     0.665 C 
HETATM   11  N           1     -25.196  -3.604  -9.581  0.00  0.00    -0.235 N 
HETATM   12  N           1     -23.603  -4.978 -10.298  0.00  0.00    -0.235 N 
HETATM   13  H           1     -25.762  -3.826 -10.437  0.00  0.00     0.174 HD
HETATM   14  H           1     -25.568  -2.931  -8.866  0.00  0.00     0.174 HD
HETATM   15  H           1     -24.166  -5.199 -11.149  0.00  0.00     0.174 HD
HETATM   16  H           1     -22.669  -5.425 -10.158  0.00  0.00     0.174 HD
HETATM   17  H           1     -23.754  -3.205  -7.665  0.00  0.00     0.177 HD
ENDBRANCH   8   9
ENDBRANCH   7   8
ENDBRANCH   6   7
ENDBRANCH   5   6
BRANCH   5  18
HETATM   18  N           1     -22.776  -6.016  -5.152  0.00  0.00    -0.067 N 
HETATM   19  H           1     -22.426  -6.281  -4.203  0.00  0.00     0.275 HD
HETATM   20  H           1     -23.123  -5.031  -5.131  0.00  0.00     0.275 HD
HETATM   21  H           1     -23.555  -6.656  -5.427  0.00  0.00     0.275 HD
ENDBRANCH   5  18
ENDBRANCH   3   5
BRANCH   4  22
HETATM   22  C           1     -20.551  -9.534  -4.780  0.00  0.00     0.187 C 
BRANCH  22  23
HETATM   23  C           1     -21.077 -10.724  -5.543  0.00  0.00     0.196 C 
HETATM   24  O           1     -21.947 -11.461  -5.030  0.00  0.00    -0.646 OA
HETATM   25  O           1     -20.644 -10.975  -6.688  0.00  0.00    -0.646 OA
ENDBRANCH  22  23
BRANCH  22  26
HETATM   26  C           1     -20.621  -9.816  -3.286  0.00  0.00     0.066 C 
BRANCH  26  27
HETATM   27  C           1     -19.662  -8.892  -2.548  0.00  0.00     0.273 C 
BRANCH  27  28
HETATM   28  N           1     -20.232  -8.520  -1.282  0.00  0.00     0.098 N 
HETATM   29  H           1     -19.852  -7.619  -0.988  0.00  0.00     0.317 HD
BRANCH  28  30
HETATM   30  C           1     -21.655  -8.404  -1.460  0.00  0.00     0.321 C 
BRANCH  30  31
HETATM   31  C           1     -22.367  -9.013  -0.260  0.00  0.00     0.057 C 
BRANCH  31  32
HETATM   32  C           1     -21.495 -10.103   0.351  0.00  0.00     0.076 C 
BRANCH  32  33
HETATM   33  S           1     -22.330 -11.706   0.193  0.00  0.00    -0.173 SA
HETATM   34  C           1     -23.965 -11.038  -0.227  0.00  0.00     0.089 C 
ENDBRANCH  32  33
ENDBRANCH  31  32
ENDBRANCH  30  31
BRANCH  30  35
HETATM   35  C           1     -22.028  -6.947  -1.582  0.00  0.00     0.207 C 
HETATM   36  O           1     -22.698  -6.396  -0.682  0.00  0.00    -0.646 OA
HETATM   37  O           1     -21.670  -6.292  -2.584  0.00  0.00    -0.646 OA
ENDBRANCH  30  35
ENDBRANCH  28  30
ENDBRANCH  27  28
ENDBRANCH  26  27
ENDBRANCH  22  26
ENDBRANCH   4  22
TORSDOF 16
ENDMDL
MODEL 5
REMARK VINA RESULT:      -6.5     16.060     18.379
REMARK  16 active torsions:
REMARK  status: ('A' for Active; 'I' for Inactive)
REMARK    1  A    between atoms: C_5  and  C_19 
REMARK    2  A    between atoms: C_5  and  C_6 
REMARK    3  A    between atoms: C_6  and  C_7 
REMARK    4  A    between atoms: C_7  and  N_8 
REMARK       I    between atoms: N_8  and  C_9 
REMARK       I    between atoms: C_9  and  N_10 
REMARK    5  A    between atoms: N_12  and  C_19 
REMARK    6  A    between atoms: C_13  and  C_20 
REMARK    7  A    between atoms: C_13  and  C_14 
REMARK    8  A    between atoms: C_13  and  N_28 
REMARK    9  A    between atoms: C_19  and  C_29 
REMARK   10  A    between atoms: C_20  and  C_21 
REMARK   11  A    between atoms: C_21  and  S_22 
REMARK   12  A    between atoms: C_24  and  C_25 
REMARK   13  A    between atoms: C_25  and  C_26 
REMARK   14  A    between atoms: C_25  and  N_30 
REMARK   15  A    between atoms: C_26  and  C_27 
REMARK   16  A    between atoms: C_27  and  N_28 
REMARK       I    between atoms: C_29  and  N_30 
ROOT
HETATM    1  O           1     -21.981  -7.671  -5.359  0.00  0.00    -0.271 OA
HETATM    2  H           1     -20.380  -5.818  -3.398  0.00  0.00     0.163 HD
HETATM    3  C           1     -21.308  -6.731  -5.007  0.00  0.00     0.249 C 
HETATM    4  N           1     -20.943  -6.604  -3.693  0.00  0.00    -0.345 N 
ENDROOT
BRANCH   3   5
HETATM    5  C           1     -20.869  -5.698  -6.014  0.00  0.00     0.274 C 
BRANCH   5   6
HETATM    6  C           1     -22.088  -5.153  -6.747  0.00  0.00     0.044 C 
BRANCH   6   7
HETATM    7  C           1     -21.740  -3.816  -7.387  0.00  0.00     0.023 C 
BRANCH   7   8
HETATM    8  C           1     -22.354  -3.743  -8.779  0.00  0.00     0.138 C 
BRANCH   8   9
HETATM    9  N           1     -23.820  -3.746  -8.670  0.00  0.00    -0.227 N 
HETATM   10  C           1     -24.531  -3.502  -9.689  0.00  0.00     0.665 C 
HETATM   11  N           1     -25.793  -3.506  -9.596  0.00  0.00    -0.235 N 
HETATM   12  N           1     -23.964  -3.248 -10.831  0.00  0.00    -0.235 N 
HETATM   13  H           1     -26.383  -3.303 -10.441  0.00  0.00     0.174 HD
HETATM   14  H           1     -26.251  -3.711  -8.674  0.00  0.00     0.174 HD
HETATM   15  H           1     -24.550  -3.046 -11.672  0.00  0.00     0.174 HD
HETATM   16  H           1     -22.922  -3.245 -10.908  0.00  0.00     0.174 HD
HETATM   17  H           1     -24.277  -3.952  -7.748  0.00  0.00     0.177 HD
ENDBRANCH   8   9
ENDBRANCH   7   8
ENDBRANCH   6   7
ENDBRANCH   5   6
BRANCH   5  18
HETATM   18  N           1     -19.934  -6.330  -7.003  0.00  0.00    -0.067 N 
HETATM   19  H           1     -20.463  -7.003  -7.602  0.00  0.00     0.275 HD
HETATM   20  H           1     -19.511  -5.587  -7.605  0.00  0.00     0.275 HD
HETATM   21  H           1     -19.178  -6.838  -6.492  0.00  0.00     0.275 HD
ENDBRANCH   5  18
ENDBRANCH   3   5
BRANCH   4  22
HETATM   22  C           1     -21.366  -7.598  -2.725  0.00  0.00     0.187 C 
BRANCH  22  23
HETATM   23  C           1     -22.018  -6.910  -1.551  0.00  0.00     0.196 C 
HETATM   24  O           1     -22.448  -5.743  -1.671  0.00  0.00    -0.646 OA
HETATM   25  O           1     -22.128  -7.507  -0.458  0.00  0.00    -0.646 OA
ENDBRANCH  22  23
BRANCH  22  26
HETATM   26  C           1     -20.153  -8.384  -2.244  0.00  0.00     0.066 C 
BRANCH  26  27
HETATM   27  C           1     -20.200  -9.793  -2.818  0.00  0.00     0.273 C 
BRANCH  27  28
HETATM   28  N           1     -18.870 -10.335  -2.871  0.00  0.00     0.098 N 
HETATM   29  H           1     -18.885 -11.231  -3.359  0.00  0.00     0.317 HD
BRANCH  28  30
HETATM   30  C           1     -18.048  -9.406  -3.599  0.00  0.00     0.321 C 
BRANCH  30  31
HETATM   31  C           1     -16.603  -9.537  -3.137  0.00  0.00     0.057 C 
BRANCH  31  32
HETATM   32  C           1     -16.483 -10.708  -2.169  0.00  0.00     0.076 C 
BRANCH  32  33
HETATM   33  S           1     -15.363 -11.955  -2.865  0.00  0.00    -0.173 SA
HETATM   34  C           1     -16.632 -13.216  -3.167  0.00  0.00     0.089 C 
ENDBRANCH  32  33
ENDBRANCH  31  32
ENDBRANCH  30  31
BRANCH  30  35
HETATM   35  C           1     -18.134  -9.711  -5.075  0.00  0.00     0.207 C 
HETATM   36  O           1     -18.804  -8.971  -5.827  0.00  0.00    -0.646 OA
HETATM   37  O           1     -17.536 -10.703  -5.544  0.00  0.00    -0.646 OA
ENDBRANCH  30  35
ENDBRANCH  28  30
ENDBRANCH  27  28
ENDBRANCH  26  27
ENDBRANCH  22  26
ENDBRANCH   4  22
TORSDOF 16
ENDMDL
MODEL 6
REMARK VINA RESULT:      -6.5      1.746      2.528
REMARK  16 active torsions:
REMARK  status: ('A' for Active; 'I' for Inactive)
REMARK    1  A    between atoms: C_5  and  C_19 
REMARK    2  A    between atoms: C_5  and  C_6 
REMARK    3  A    between atoms: C_6  and  C_7 
REMARK    4  A    between atoms: C_7  and  N_8 
REMARK       I    between atoms: N_8  and  C_9 
REMARK       I    between atoms: C_9  and  N_10 
REMARK    5  A    between atoms: N_12  and  C_19 
REMARK    6  A    between atoms: C_13  and  C_20 
REMARK    7  A    between atoms: C_13  and  C_14 
REMARK    8  A    between atoms: C_13  and  N_28 
REMARK    9  A    between atoms: C_19  and  C_29 
REMARK   10  A    between atoms: C_20  and  C_21 
REMARK   11  A    between atoms: C_21  and  S_22 
REMARK   12  A    between atoms: C_24  and  C_25 
REMARK   13  A    between atoms: C_25  and  C_26 
REMARK   14  A    between atoms: C_25  and  N_30 
REMARK   15  A    between atoms: C_26  and  C_27 
REMARK   16  A    between atoms: C_27  and  N_28 
REMARK       I    between atoms: C_29  and  N_30 
ROOT
HETATM    1  O           1     -34.537  -3.335 -15.140  0.00  0.00    -0.271 OA
HETATM    2  H           1     -34.627  -1.209 -17.445  0.00  0.00     0.163 HD
HETATM    3  C           1     -34.311  -2.849 -16.223  0.00  0.00     0.249 C 
HETATM    4  N           1     -34.815  -1.616 -16.539  0.00  0.00    -0.345 N 
ENDROOT
BRANCH   3   5
HETATM    5  C           1     -33.474  -3.601 -17.228  0.00  0.00     0.274 C 
BRANCH   5   6
HETATM    6  C           1     -33.051  -4.939 -16.637  0.00  0.00     0.044 C 
BRANCH   6   7
HETATM    7  C           1     -31.531  -5.026 -16.609  0.00  0.00     0.023 C 
BRANCH   7   8
HETATM    8  C           1     -31.082  -6.318 -17.277  0.00  0.00     0.138 C 
BRANCH   8   9
HETATM    9  N           1     -29.719  -6.151 -17.802  0.00  0.00    -0.227 N 
HETATM   10  C           1     -29.148  -7.112 -18.397  0.00  0.00     0.665 C 
HETATM   11  N           1     -27.975  -6.968 -18.849  0.00  0.00    -0.235 N 
HETATM   12  N           1     -29.767  -8.246 -18.543  0.00  0.00    -0.235 N 
HETATM   13  H           1     -27.500  -7.765 -19.343  0.00  0.00     0.174 HD
HETATM   14  H           1     -27.475  -6.053 -18.731  0.00  0.00     0.174 HD
HETATM   15  H           1     -29.295  -9.039 -19.034  0.00  0.00     0.174 HD
HETATM   16  H           1     -30.736  -8.364 -18.170  0.00  0.00     0.174 HD
HETATM   17  H           1     -29.220  -5.236 -17.684  0.00  0.00     0.177 HD
ENDBRANCH   8   9
ENDBRANCH   7   8
ENDBRANCH   6   7
ENDBRANCH   5   6
BRANCH   5  18
HETATM   18  N           1     -32.253  -2.795 -17.562  0.00  0.00    -0.067 N 
HETATM   19  H           1     -32.111  -2.790 -18.598  0.00  0.00     0.275 HD
HETATM   20  H           1     -32.380  -1.815 -17.223  0.00  0.00     0.275 HD
HETATM   21  H           1     -31.418  -3.220 -17.100  0.00  0.00     0.275 HD
ENDBRANCH   5  18
ENDBRANCH   3   5
BRANCH   4  22
HETATM   22  C           1     -35.621  -0.893 -15.573  0.00  0.00     0.187 C 
BRANCH  22  23
HETATM   23  C           1     -36.883  -0.403 -16.238  0.00  0.00     0.196 C 
HETATM   24  O           1     -37.625  -1.207 -16.842  0.00  0.00    -0.646 OA
HETATM   25  O           1     -37.187   0.809 -16.187  0.00  0.00    -0.646 OA
ENDBRANCH  22  23
BRANCH  22  26
HETATM   26  C           1     -34.831   0.296 -15.042  0.00  0.00     0.066 C 
BRANCH  26  27
HETATM   27  C           1     -34.867   0.292 -13.520  0.00  0.00     0.273 C 
BRANCH  27  28
HETATM   28  N           1     -34.944  -1.063 -13.045  0.00  0.00     0.098 N 
HETATM   29  H           1     -34.088  -1.561 -13.292  0.00  0.00     0.317 HD
BRANCH  28  30
HETATM   30  C           1     -35.076  -1.018 -11.614  0.00  0.00     0.321 C 
BRANCH  30  31
HETATM   31  C           1     -36.524  -1.292 -11.229  0.00  0.00     0.057 C 
BRANCH  31  32
HETATM   32  C           1     -36.735  -0.941  -9.762  0.00  0.00     0.076 C 
BRANCH  32  33
HETATM   33  S           1     -37.039   0.841  -9.603  0.00  0.00    -0.173 SA
HETATM   34  C           1     -36.676   0.948  -7.828  0.00  0.00     0.089 C 
ENDBRANCH  32  33
ENDBRANCH  31  32
ENDBRANCH  30  31
BRANCH  30  35
HETATM   35  C           1     -34.184  -2.066 -10.995  0.00  0.00     0.207 C 
HETATM   36  O           1     -33.140  -1.724 -10.399  0.00  0.00    -0.646 OA
HETATM   37  O           1     -34.489  -3.275 -11.078  0.00  0.00    -0.646 OA
ENDBRANCH  30  35
ENDBRANCH  28  30
ENDBRANCH  27  28
ENDBRANCH  26  27
ENDBRANCH  22  26
ENDBRANCH   4  22
TORSDOF 16
ENDMDL
MODEL 7
REMARK VINA RESULT:      -6.3     15.111     17.250
REMARK  16 active torsions:
REMARK  status: ('A' for Active; 'I' for Inactive)
REMARK    1  A    between atoms: C_5  and  C_19 
REMARK    2  A    between atoms: C_5  and  C_6 
REMARK    3  A    between atoms: C_6  and  C_7 
REMARK    4  A    between atoms: C_7  and  N_8 
REMARK       I    between atoms: N_8  and  C_9 
REMARK       I    between atoms: C_9  and  N_10 
REMARK    5  A    between atoms: N_12  and  C_19 
REMARK    6  A    between atoms: C_13  and  C_20 
REMARK    7  A    between atoms: C_13  and  C_14 
REMARK    8  A    between atoms: C_13  and  N_28 
REMARK    9  A    between atoms: C_19  and  C_29 
REMARK   10  A    between atoms: C_20  and  C_21 
REMARK   11  A    between atoms: C_21  and  S_22 
REMARK   12  A    between atoms: C_24  and  C_25 
REMARK   13  A    between atoms: C_25  and  C_26 
REMARK   14  A    between atoms: C_25  and  N_30 
REMARK   15  A    between atoms: C_26  and  C_27 
REMARK   16  A    between atoms: C_27  and  N_28 
REMARK       I    between atoms: C_29  and  N_30 
ROOT
HETATM    1  O           1     -20.897  -5.633  -4.558  0.00  0.00    -0.271 OA
HETATM    2  H           1     -19.650  -7.273  -6.924  0.00  0.00     0.163 HD
HETATM    3  C           1     -20.493  -5.854  -5.675  0.00  0.00     0.249 C 
HETATM    4  N           1     -19.990  -7.088  -5.990  0.00  0.00    -0.345 N 
ENDROOT
BRANCH   3   5
HETATM    5  C           1     -20.543  -4.770  -6.724  0.00  0.00     0.274 C 
BRANCH   5   6
HETATM    6  C           1     -21.586  -5.127  -7.774  0.00  0.00     0.044 C 
BRANCH   6   7
HETATM    7  C           1     -22.011  -3.868  -8.517  0.00  0.00     0.023 C 
BRANCH   7   8
HETATM    8  C           1     -21.829  -4.075 -10.015  0.00  0.00     0.138 C 
BRANCH   8   9
HETATM    9  N           1     -22.804  -3.252 -10.745  0.00  0.00    -0.227 N 
HETATM   10  C           1     -22.691  -3.099 -11.997  0.00  0.00     0.665 C 
HETATM   11  N           1     -23.530  -2.391 -12.626  0.00  0.00    -0.235 N 
HETATM   12  N           1     -21.712  -3.668 -12.636  0.00  0.00    -0.235 N 
HETATM   13  H           1     -23.437  -2.263 -13.665  0.00  0.00     0.174 HD
HETATM   14  H           1     -24.321  -1.931 -12.111  0.00  0.00     0.174 HD
HETATM   15  H           1     -21.618  -3.541 -13.668  0.00  0.00     0.174 HD
HETATM   16  H           1     -21.019  -4.253 -12.116  0.00  0.00     0.174 HD
HETATM   17  H           1     -23.594  -2.793 -10.230  0.00  0.00     0.177 HD
ENDBRANCH   8   9
ENDBRANCH   7   8
ENDBRANCH   6   7
ENDBRANCH   5   6
BRANCH   5  18
HETATM   18  N           1     -19.198  -4.648  -7.378  0.00  0.00    -0.067 N 
HETATM   19  H           1     -19.319  -4.336  -8.369  0.00  0.00     0.275 HD
HETATM   20  H           1     -18.622  -3.946  -6.860  0.00  0.00     0.275 HD
HETATM   21  H           1     -18.717  -5.575  -7.362  0.00  0.00     0.275 HD
ENDBRANCH   5  18
ENDBRANCH   3   5
BRANCH   4  22
HETATM   22  C           1     -19.942  -8.130  -4.981  0.00  0.00     0.187 C 
BRANCH  22  23
HETATM   23  C           1     -18.703  -8.968  -5.183  0.00  0.00     0.196 C 
HETATM   24  O           1     -18.277  -9.185  -6.338  0.00  0.00    -0.646 OA
HETATM   25  O           1     -18.105  -9.446  -4.196  0.00  0.00    -0.646 OA
ENDBRANCH  22  23
BRANCH  22  26
HETATM   26  C           1     -21.178  -9.011  -5.104  0.00  0.00     0.066 C 
BRANCH  26  27
HETATM   27  C           1     -21.701  -9.350  -3.715  0.00  0.00     0.273 C 
BRANCH  27  28
HETATM   28  N           1     -21.540  -8.212  -2.851  0.00  0.00     0.098 N 
HETATM   29  H           1     -22.146  -7.455  -3.167  0.00  0.00     0.317 HD
BRANCH  28  30
HETATM   30  C           1     -21.925  -8.612  -1.524  0.00  0.00     0.321 C 
BRANCH  30  31
HETATM   31  C           1     -20.706  -9.137  -0.779  0.00  0.00     0.057 C 
BRANCH  31  32
HETATM   32  C           1     -21.143 -10.188   0.234  0.00  0.00     0.076 C 
BRANCH  32  33
HETATM   33  S           1     -21.770 -11.649  -0.641  0.00  0.00    -0.173 SA
HETATM   34  C           1     -23.460 -11.564   0.015  0.00  0.00     0.089 C 
ENDBRANCH  32  33
ENDBRANCH  31  32
ENDBRANCH  30  31
BRANCH  30  35
HETATM   35  C           1     -22.493  -7.425  -0.787  0.00  0.00     0.207 C 
HETATM   36  O           1     -22.434  -6.285  -1.297  0.00  0.00    -0.646 OA
HETATM   37  O           1     -23.022  -7.580   0.335  0.00  0.00    -0.646 OA
ENDBRANCH  30  35
ENDBRANCH  28  30
ENDBRANCH  27  28
ENDBRANCH  26  27
ENDBRANCH  22  26
ENDBRANCH   4  22
TORSDOF 16
ENDMDL
MODEL 8
REMARK VINA RESULT:      -6.2     15.932     18.184
REMARK  16 active torsions:
REMARK  status: ('A' for Active; 'I' for Inactive)
REMARK    1  A    between atoms: C_5  and  C_19 
REMARK    2  A    between atoms: C_5  and  C_6 
REMARK    3  A    between atoms: C_6  and  C_7 
REMARK    4  A    between atoms: C_7  and  N_8 
REMARK       I    between atoms: N_8  and  C_9 
REMARK       I    between atoms: C_9  and  N_10 
REMARK    5  A    between atoms: N_12  and  C_19 
REMARK    6  A    between atoms: C_13  and  C_20 
REMARK    7  A    between atoms: C_13  and  C_14 
REMARK    8  A    between atoms: C_13  and  N_28 
REMARK    9  A    between atoms: C_19  and  C_29 
REMARK   10  A    between atoms: C_20  and  C_21 
REMARK   11  A    between atoms: C_21  and  S_22 
REMARK   12  A    between atoms: C_24  and  C_25 
REMARK   13  A    between atoms: C_25  and  C_26 
REMARK   14  A    between atoms: C_25  and  N_30 
REMARK   15  A    between atoms: C_26  and  C_27 
REMARK   16  A    between atoms: C_27  and  N_28 
REMARK       I    between atoms: C_29  and  N_30 
ROOT
HETATM    1  O           1     -22.516  -5.720  -5.552  0.00  0.00    -0.271 OA
HETATM    2  H           1     -19.769  -6.950  -4.667  0.00  0.00     0.163 HD
HETATM    3  C           1     -21.320  -5.888  -5.535  0.00  0.00     0.249 C 
HETATM    4  N           1     -20.770  -6.809  -4.682  0.00  0.00    -0.345 N 
ENDROOT
BRANCH   3   5
HETATM    5  C           1     -20.431  -5.085  -6.452  0.00  0.00     0.274 C 
BRANCH   5   6
HETATM    6  C           1     -21.205  -3.891  -6.992  0.00  0.00     0.044 C 
BRANCH   6   7
HETATM    7  C           1     -21.460  -4.082  -8.481  0.00  0.00     0.023 C 
BRANCH   7   8
HETATM    8  C           1     -22.960  -4.155  -8.736  0.00  0.00     0.138 C 
BRANCH   8   9
HETATM    9  N           1     -23.236  -3.817 -10.140  0.00  0.00    -0.227 N 
HETATM   10  C           1     -24.416  -3.536 -10.502  0.00  0.00     0.665 C 
HETATM   11  N           1     -24.654  -3.244 -11.711  0.00  0.00    -0.235 N 
HETATM   12  N           1     -25.383  -3.545  -9.633  0.00  0.00    -0.235 N 
HETATM   13  H           1     -25.633  -3.010 -12.012  0.00  0.00     0.174 HD
HETATM   14  H           1     -23.874  -3.237 -12.413  0.00  0.00     0.174 HD
HETATM   15  H           1     -26.357  -3.313  -9.933  0.00  0.00     0.174 HD
HETATM   16  H           1     -25.186  -3.785  -8.635  0.00  0.00     0.174 HD
HETATM   17  H           1     -22.456  -3.809 -10.841  0.00  0.00     0.177 HD
ENDBRANCH   8   9
ENDBRANCH   7   8
ENDBRANCH   6   7
ENDBRANCH   5   6
BRANCH   5  18
HETATM   18  N           1     -19.983  -5.948  -7.595  0.00  0.00    -0.067 N 
HETATM   19  H           1     -20.647  -5.840  -8.394  0.00  0.00     0.275 HD
HETATM   20  H           1     -19.026  -5.657  -7.895  0.00  0.00     0.275 HD
HETATM   21  H           1     -19.965  -6.948  -7.290  0.00  0.00     0.275 HD
ENDBRANCH   5  18
ENDBRANCH   3   5
BRANCH   4  22
HETATM   22  C           1     -21.625  -7.580  -3.800  0.00  0.00     0.187 C 
BRANCH  22  23
HETATM   23  C           1     -21.668  -6.924  -2.442  0.00  0.00     0.196 C 
HETATM   24  O           1     -22.394  -5.925  -2.253  0.00  0.00    -0.646 OA
HETATM   25  O           1     -20.976  -7.380  -1.506  0.00  0.00    -0.646 OA
ENDBRANCH  22  23
BRANCH  22  26
HETATM   26  C           1     -21.071  -8.992  -3.666  0.00  0.00     0.066 C 
BRANCH  26  27
HETATM   27  C           1     -19.588  -8.992  -4.011  0.00  0.00     0.273 C 
BRANCH  27  28
HETATM   28  N           1     -18.813  -9.022  -2.800  0.00  0.00     0.098 N 
HETATM   29  H           1     -19.439  -9.023  -1.995  0.00  0.00     0.317 HD
BRANCH  28  30
HETATM   30  C           1     -18.040 -10.234  -2.806  0.00  0.00     0.321 C 
BRANCH  30  31
HETATM   31  C           1     -16.558  -9.891  -2.721  0.00  0.00     0.057 C 
BRANCH  31  32
HETATM   32  C           1     -15.761 -10.861  -3.584  0.00  0.00     0.076 C 
BRANCH  32  33
HETATM   33  S           1     -16.712 -11.268  -5.075  0.00  0.00    -0.173 SA
HETATM   34  C           1     -16.236  -9.795  -6.023  0.00  0.00     0.089 C 
ENDBRANCH  32  33
ENDBRANCH  31  32
ENDBRANCH  30  31
BRANCH  30  35
HETATM   35  C           1     -18.429 -11.084  -1.622  0.00  0.00     0.207 C 
HETATM   36  O           1     -19.568 -10.973  -1.121  0.00  0.00    -0.646 OA
HETATM   37  O           1     -17.611 -11.898  -1.141  0.00  0.00    -0.646 OA
ENDBRANCH  30  35
ENDBRANCH  28  30
ENDBRANCH  27  28
ENDBRANCH  26  27
ENDBRANCH  22  26
ENDBRANCH   4  22
TORSDOF 16
ENDMDL
MODEL 9
REMARK VINA RESULT:      -6.1     14.791     17.102
REMARK  16 active torsions:
REMARK  status: ('A' for Active; 'I' for Inactive)
REMARK    1  A    between atoms: C_5  and  C_19 
REMARK    2  A    between atoms: C_5  and  C_6 
REMARK    3  A    between atoms: C_6  and  C_7 
REMARK    4  A    between atoms: C_7  and  N_8 
REMARK       I    between atoms: N_8  and  C_9 
REMARK       I    between atoms: C_9  and  N_10 
REMARK    5  A    between atoms: N_12  and  C_19 
REMARK    6  A    between atoms: C_13  and  C_20 
REMARK    7  A    between atoms: C_13  and  C_14 
REMARK    8  A    between atoms: C_13  and  N_28 
REMARK    9  A    between atoms: C_19  and  C_29 
REMARK   10  A    between atoms: C_20  and  C_21 
REMARK   11  A    between atoms: C_21  and  S_22 
REMARK   12  A    between atoms: C_24  and  C_25 
REMARK   13  A    between atoms: C_25  and  C_26 
REMARK   14  A    between atoms: C_25  and  N_30 
REMARK   15  A    between atoms: C_26  and  C_27 
REMARK   16  A    between atoms: C_27  and  N_28 
REMARK       I    between atoms: C_29  and  N_30 
ROOT
HETATM    1  O           1     -22.836  -5.802  -5.603  0.00  0.00    -0.271 OA
HETATM    2  H           1     -20.036  -7.162  -5.212  0.00  0.00     0.163 HD
HETATM    3  C           1     -21.668  -6.034  -5.805  0.00  0.00     0.249 C 
HETATM    4  N           1     -21.014  -6.967  -5.045  0.00  0.00    -0.345 N 
ENDROOT
BRANCH   3   5
HETATM    5  C           1     -20.929  -5.297  -6.894  0.00  0.00     0.274 C 
BRANCH   5   6
HETATM    6  C           1     -21.842  -5.123  -8.100  0.00  0.00     0.044 C 
BRANCH   6   7
HETATM    7  C           1     -21.095  -4.382  -9.200  0.00  0.00     0.023 C 
BRANCH   7   8
HETATM    8  C           1     -22.086  -3.594 -10.047  0.00  0.00     0.138 C 
BRANCH   8   9
HETATM    9  N           1     -23.428  -3.695  -9.455  0.00  0.00    -0.227 N 
HETATM   10  C           1     -24.453  -3.506 -10.173  0.00  0.00     0.665 C 
HETATM   11  N           1     -25.608  -3.594  -9.663  0.00  0.00    -0.235 N 
HETATM   12  N           1     -24.319  -3.222 -11.435  0.00  0.00    -0.235 N 
HETATM   13  H           1     -26.459  -3.438 -10.259  0.00  0.00     0.174 HD
HETATM   14  H           1     -25.716  -3.823  -8.645  0.00  0.00     0.174 HD
HETATM   15  H           1     -25.165  -3.066 -12.027  0.00  0.00     0.174 HD
HETATM   16  H           1     -23.365  -3.150 -11.855  0.00  0.00     0.174 HD
HETATM   17  H           1     -23.535  -3.925  -8.436  0.00  0.00     0.177 HD
ENDBRANCH   8   9
ENDBRANCH   7   8
ENDBRANCH   6   7
ENDBRANCH   5   6
BRANCH   5  18
HETATM   18  N           1     -19.717  -6.086  -7.296  0.00  0.00    -0.067 N 
HETATM   19  H           1     -20.004  -6.868  -7.928  0.00  0.00     0.275 HD
HETATM   20  H           1     -19.047  -5.461  -7.799  0.00  0.00     0.275 HD
HETATM   21  H           1     -19.258  -6.478  -6.444  0.00  0.00     0.275 HD
ENDBRANCH   5  18
ENDBRANCH   3   5
BRANCH   4  22
HETATM   22  C           1     -21.725  -7.675  -3.997  0.00  0.00     0.187 C 
BRANCH  22  23
HETATM   23  C           1     -21.538  -6.953  -2.686  0.00  0.00     0.196 C 
HETATM   24  O           1     -20.602  -7.273  -1.923  0.00  0.00    -0.646 OA
HETATM   25  O           1     -22.321  -6.034  -2.362  0.00  0.00    -0.646 OA
ENDBRANCH  22  23
BRANCH  22  26
HETATM   26  C           1     -21.177  -9.091  -3.880  0.00  0.00     0.066 C 
BRANCH  26  27
HETATM   27  C           1     -22.201  -9.978  -3.185  0.00  0.00     0.273 C 
BRANCH  27  28
HETATM   28  N           1     -21.727 -10.321  -1.872  0.00  0.00     0.098 N 
HETATM   29  H           1     -21.002  -9.661  -1.588  0.00  0.00     0.317 HD
BRANCH  28  30
HETATM   30  C           1     -22.840 -10.228  -0.967  0.00  0.00     0.321 C 
BRANCH  30  31
HETATM   31  C           1     -23.111 -11.596  -0.355  0.00  0.00     0.057 C 
BRANCH  31  32
HETATM   32  C           1     -21.972 -12.545  -0.706  0.00  0.00     0.076 C 
BRANCH  32  33
HETATM   33  S           1     -22.585 -13.843  -1.816  0.00  0.00    -0.173 SA
HETATM   34  C           1     -24.250 -13.946  -1.101  0.00  0.00     0.089 C 
ENDBRANCH  32  33
ENDBRANCH  31  32
ENDBRANCH  30  31
BRANCH  30  35
HETATM   35  C           1     -22.516  -9.242   0.128  0.00  0.00     0.207 C 
HETATM   36  O           1     -23.311  -8.312   0.386  0.00  0.00    -0.646 OA
HETATM   37  O           1     -21.452  -9.353   0.775  0.00  0.00    -0.646 OA
ENDBRANCH  30  35
ENDBRANCH  28  30
ENDBRANCH  27  28
ENDBRANCH  26  27
ENDBRANCH  22  26
ENDBRANCH   4  22
TORSDOF 16
ENDMDL
