MODEL 1
REMARK VINA RESULT:      -6.1      0.000      0.000
REMARK  11 active torsions:
REMARK  status: ('A' for Active; 'I' for Inactive)
REMARK    1  A    between atoms: C_1  and  C_24 
REMARK    2  A    between atoms: C_1  and  C_3 
REMARK    3  A    between atoms: C_3  and  C_9 
REMARK    4  A    between atoms: C_7  and  C_12 
REMARK    5  A    between atoms: C_9  and  N_18 
REMARK    6  A    between atoms: N_10  and  C_24 
REMARK    7  A    between atoms: C_11  and  S_20 
REMARK    8  A    between atoms: C_11  and  C_21 
REMARK    9  A    between atoms: C_12  and  C_21 
REMARK   10  A    between atoms: C_12  and  N_17 
REMARK       I    between atoms: C_16  and  N_17 
REMARK   11  A    between atoms: C_16  and  C_24 
ROOT
HETATM    1  O           1     -21.629  -3.562  -7.306  0.00  0.00    -0.271 OA
HETATM    2  H           1     -22.254  -5.893  -9.311  0.00  0.00     0.163 HD
HETATM    3  C           1     -21.676  -4.694  -7.726  0.00  0.00     0.249 C 
HETATM    4  N           1     -22.214  -4.945  -8.960  0.00  0.00    -0.345 N 
ENDROOT
BRANCH   3   5
HETATM    5  C           1     -21.142  -5.831  -6.891  0.00  0.00     0.274 C 
BRANCH   5   6
HETATM    6  C           1     -21.061  -5.398  -5.433  0.00  0.00     0.044 C 
BRANCH   6   7
HETATM    7  C           1     -21.912  -6.328  -4.579  0.00  0.00     0.030 C 
BRANCH   7   8
HETATM    8  C           1     -21.360  -6.365  -3.161  0.00  0.00     0.230 C 
BRANCH   8   9
HETATM    9  N           1     -22.412  -5.897  -2.200  0.00  0.00    -0.079 N 
HETATM   10  H           1     -21.982  -5.739  -1.261  0.00  0.00     0.274 HD
HETATM   11  H           1     -23.160  -6.623  -2.123  0.00  0.00     0.274 HD
HETATM   12  H           1     -22.827  -5.002  -2.547  0.00  0.00     0.274 HD
ENDBRANCH   8   9
ENDBRANCH   7   8
ENDBRANCH   6   7
ENDBRANCH   5   6
BRANCH   5  13
HETATM   13  N           1     -19.774  -6.208  -7.378  0.00  0.00    -0.067 N 
HETATM   14  H           1     -19.667  -5.917  -8.375  0.00  0.00     0.275 HD
HETATM   15  H           1     -19.052  -5.728  -6.795  0.00  0.00     0.275 HD
HETATM   16  H           1     -19.651  -7.243  -7.303  0.00  0.00     0.275 HD
ENDBRANCH   5  13
ENDBRANCH   3   5
BRANCH   4  17
HETATM   17  C           1     -22.728  -3.851  -9.762  0.00  0.00     0.186 C 
BRANCH  17  18
HETATM   18  C           1     -24.235  -3.842  -9.692  0.00  0.00     0.196 C 
HETATM   19  O           1     -24.876  -4.899  -9.873  0.00  0.00    -0.646 OA
HETATM   20  O           1     -24.843  -2.776  -9.452  0.00  0.00    -0.646 OA
ENDBRANCH  17  18
BRANCH  17  21
HETATM   21  C           1     -22.287  -4.033 -11.209  0.00  0.00     0.046 C 
BRANCH  21  22
HETATM   22  C           1     -22.486  -2.728 -11.968  0.00  0.00     0.076 C 
BRANCH  22  23
HETATM   23  S           1     -23.873  -2.907 -13.125  0.00  0.00    -0.173 SA
HETATM   24  C           1     -22.911  -2.617 -14.636  0.00  0.00     0.089 C 
ENDBRANCH  22  23
ENDBRANCH  21  22
ENDBRANCH  17  21
ENDBRANCH   4  17
TORSDOF 11
ENDMDL
MODEL 2
REMARK VINA RESULT:      -6.0     12.314     13.629
REMARK  11 active torsions:
REMARK  status: ('A' for Active; 'I' for Inactive)
REMARK    1  A    between atoms: C_1  and  C_24 
REMARK    2  A    between atoms: C_1  and  C_3 
REMARK    3  A    between atoms: C_3  and  C_9 
REMARK    4  A    between atoms: C_7  and  C_12 
REMARK    5  A    between atoms: C_9  and  N_18 
REMARK    6  A    between atoms: N_10  and  C_24 
REMARK    7  A    between atoms: C_11  and  S_20 
REMARK    8  A    between atoms: C_11  and  C_21 
REMARK    9  A    between atoms: C_12  and  C_21 
REMARK   10  A    between atoms: C_12  and  N_17 
REMARK       I    between atoms: C_16  and  N_17 
REMARK   11  A    between atoms: C_16  and  C_24 
ROOT
HETATM    1  O           1     -33.426  -2.225 -10.883  0.00  0.00    -0.271 OA
HETATM    2  H           1     -35.678  -2.182 -13.066  0.00  0.00     0.163 HD
HETATM    3  C           1     -34.157  -2.652 -11.744  0.00  0.00     0.249 C 
HETATM    4  N           1     -35.065  -1.823 -12.346  0.00  0.00    -0.345 N 
ENDROOT
BRANCH   3   5
HETATM    5  C           1     -34.070  -4.101 -12.157  0.00  0.00     0.274 C 
BRANCH   5   6
HETATM    6  C           1     -34.737  -4.972 -11.101  0.00  0.00     0.044 C 
BRANCH   6   7
HETATM    7  C           1     -33.860  -6.185 -10.815  0.00  0.00     0.030 C 
BRANCH   7   8
HETATM    8  C           1     -34.699  -7.278 -10.169  0.00  0.00     0.230 C 
BRANCH   8   9
HETATM    9  N           1     -33.981  -8.591 -10.277  0.00  0.00    -0.079 N 
HETATM   10  H           1     -34.321  -9.238  -9.531  0.00  0.00     0.274 HD
HETATM   11  H           1     -32.954  -8.436 -10.162  0.00  0.00     0.274 HD
HETATM   12  H           1     -34.168  -9.014 -11.215  0.00  0.00     0.274 HD
ENDBRANCH   8   9
ENDBRANCH   7   8
ENDBRANCH   6   7
ENDBRANCH   5   6
BRANCH   5  13
HETATM   13  N           1     -32.629  -4.495 -12.294  0.00  0.00    -0.067 N 
HETATM   14  H           1     -32.035  -3.843 -11.733  0.00  0.00     0.275 HD
HETATM   15  H           1     -32.500  -5.471 -11.944  0.00  0.00     0.275 HD
HETATM   16  H           1     -32.348  -4.443 -13.299  0.00  0.00     0.275 HD
ENDBRANCH   5  13
ENDBRANCH   3   5
BRANCH   4  17
HETATM   17  C           1     -35.149  -0.431 -11.948  0.00  0.00     0.186 C 
BRANCH  17  18
HETATM   18  C           1     -36.448  -0.194 -11.217  0.00  0.00     0.196 C 
HETATM   19  O           1     -36.471   0.538 -10.205  0.00  0.00    -0.646 OA
HETATM   20  O           1     -37.501  -0.731 -11.625  0.00  0.00    -0.646 OA
ENDBRANCH  17  18
BRANCH  17  21
HETATM   21  C           1     -35.095   0.454 -13.187  0.00  0.00     0.046 C 
BRANCH  21  22
HETATM   22  C           1     -35.355  -0.390 -14.427  0.00  0.00     0.076 C 
BRANCH  22  23
HETATM   23  S           1     -36.895   0.154 -15.218  0.00  0.00    -0.173 SA
HETATM   24  C           1     -36.764  -0.925 -16.672  0.00  0.00     0.089 C 
ENDBRANCH  22  23
ENDBRANCH  21  22
ENDBRANCH  17  21
ENDBRANCH   4  17
TORSDOF 11
ENDMDL
MODEL 3
REMARK VINA RESULT:      -5.9     12.603     13.992
REMARK  11 active torsions:
REMARK  status: ('A' for Active; 'I' for Inactive)
REMARK    1  A    between atoms: C_1  and  C_24 
REMARK    2  A    between atoms: C_1  and  C_3 
REMARK    3  A    between atoms: C_3  and  C_9 
REMARK    4  A    between atoms: C_7  and  C_12 
REMARK    5  A    between atoms: C_9  and  N_18 
REMARK    6  A    between atoms: N_10  and  C_24 
REMARK    7  A    between atoms: C_11  and  S_20 
REMARK    8  A    between atoms: C_11  and  C_21 
REMARK    9  A    between atoms: C_12  and  C_21 
REMARK   10  A    between atoms: C_12  and  N_17 
REMARK       I    between atoms: C_16  and  N_17 
REMARK   11  A    between atoms: C_16  and  C_24 
ROOT
HETATM    1  O           1     -34.597  -3.167 -13.577  0.00  0.00    -0.271 OA
HETATM    2  H           1     -34.732  -0.979 -11.333  0.00  0.00     0.163 HD
HETATM    3  C           1     -34.351  -2.628 -12.524  0.00  0.00     0.249 C 
HETATM    4  N           1     -34.938  -1.431 -12.214  0.00  0.00    -0.345 N 
ENDROOT
BRANCH   3   5
HETATM    5  C           1     -33.397  -3.275 -11.551  0.00  0.00     0.274 C 
BRANCH   5   6
HETATM    6  C           1     -33.474  -4.789 -11.693  0.00  0.00     0.044 C 
BRANCH   6   7
HETATM    7  C           1     -34.322  -5.363 -10.565  0.00  0.00     0.030 C 
BRANCH   7   8
HETATM    8  C           1     -34.227  -6.882 -10.579  0.00  0.00     0.230 C 
BRANCH   8   9
HETATM    9  N           1     -35.131  -7.450  -9.526  0.00  0.00    -0.079 N 
HETATM   10  H           1     -35.956  -7.903  -9.981  0.00  0.00     0.274 HD
HETATM   11  H           1     -35.458  -6.682  -8.897  0.00  0.00     0.274 HD
HETATM   12  H           1     -34.609  -8.162  -8.966  0.00  0.00     0.274 HD
ENDBRANCH   8   9
ENDBRANCH   7   8
ENDBRANCH   6   7
ENDBRANCH   5   6
BRANCH   5  13
HETATM   13  N           1     -33.771  -2.884 -10.152  0.00  0.00    -0.067 N 
HETATM   14  H           1     -33.067  -3.271  -9.482  0.00  0.00     0.275 HD
HETATM   15  H           1     -33.790  -1.843 -10.074  0.00  0.00     0.275 HD
HETATM   16  H           1     -34.715  -3.269  -9.924  0.00  0.00     0.275 HD
ENDBRANCH   5  13
ENDBRANCH   3   5
BRANCH   4  17
HETATM   17  C           1     -35.855  -0.810 -13.150  0.00  0.00     0.186 C 
BRANCH  17  18
HETATM   18  C           1     -35.104   0.179 -14.008  0.00  0.00     0.196 C 
HETATM   19  O           1     -34.847  -0.095 -15.199  0.00  0.00    -0.646 OA
HETATM   20  O           1     -34.739   1.274 -13.526  0.00  0.00    -0.646 OA
ENDBRANCH  17  18
BRANCH  17  21
HETATM   21  C           1     -36.952  -0.085 -12.381  0.00  0.00     0.046 C 
BRANCH  21  22
HETATM   22  C           1     -37.013  -0.621 -10.957  0.00  0.00     0.076 C 
BRANCH  22  23
HETATM   23  S           1     -37.676   0.660  -9.855  0.00  0.00    -0.173 SA
HETATM   24  C           1     -36.856   0.069  -8.347  0.00  0.00     0.089 C 
ENDBRANCH  22  23
ENDBRANCH  21  22
ENDBRANCH  17  21
ENDBRANCH   4  17
TORSDOF 11
ENDMDL
MODEL 4
REMARK VINA RESULT:      -5.5      3.293      6.808
REMARK  11 active torsions:
REMARK  status: ('A' for Active; 'I' for Inactive)
REMARK    1  A    between atoms: C_1  and  C_24 
REMARK    2  A    between atoms: C_1  and  C_3 
REMARK    3  A    between atoms: C_3  and  C_9 
REMARK    4  A    between atoms: C_7  and  C_12 
REMARK    5  A    between atoms: C_9  and  N_18 
REMARK    6  A    between atoms: N_10  and  C_24 
REMARK    7  A    between atoms: C_11  and  S_20 
REMARK    8  A    between atoms: C_11  and  C_21 
REMARK    9  A    between atoms: C_12  and  C_21 
REMARK   10  A    between atoms: C_12  and  N_17 
REMARK       I    between atoms: C_16  and  N_17 
REMARK   11  A    between atoms: C_16  and  C_24 
ROOT
HETATM    1  O           1     -23.065  -3.131  -8.590  0.00  0.00    -0.271 OA
HETATM    2  H           1     -22.287  -6.147  -8.961  0.00  0.00     0.163 HD
HETATM    3  C           1     -23.146  -4.265  -8.999  0.00  0.00     0.249 C 
HETATM    4  N           1     -22.220  -5.198  -8.618  0.00  0.00    -0.345 N 
ENDROOT
BRANCH   3   5
HETATM    5  C           1     -24.267  -4.652  -9.931  0.00  0.00     0.274 C 
BRANCH   5   6
HETATM    6  C           1     -23.745  -4.708 -11.360  0.00  0.00     0.044 C 
BRANCH   6   7
HETATM    7  C           1     -23.935  -3.350 -12.024  0.00  0.00     0.030 C 
BRANCH   7   8
HETATM    8  C           1     -22.576  -2.749 -12.351  0.00  0.00     0.230 C 
BRANCH   8   9
HETATM    9  N           1     -21.536  -3.829 -12.351  0.00  0.00    -0.079 N 
HETATM   10  H           1     -20.584  -3.398 -12.355  0.00  0.00     0.274 HD
HETATM   11  H           1     -21.652  -4.423 -13.203  0.00  0.00     0.274 HD
HETATM   12  H           1     -21.647  -4.419 -11.496  0.00  0.00     0.274 HD
ENDBRANCH   8   9
ENDBRANCH   7   8
ENDBRANCH   6   7
ENDBRANCH   5   6
BRANCH   5  13
HETATM   13  N           1     -25.366  -3.635  -9.839  0.00  0.00    -0.067 N 
HETATM   14  H           1     -26.132  -3.888 -10.504  0.00  0.00     0.275 HD
HETATM   15  H           1     -25.743  -3.616  -8.865  0.00  0.00     0.275 HD
HETATM   16  H           1     -24.989  -2.692 -10.087  0.00  0.00     0.275 HD
ENDBRANCH   5  13
ENDBRANCH   3   5
BRANCH   4  17
HETATM   17  C           1     -21.142  -4.825  -7.722  0.00  0.00     0.186 C 
BRANCH  17  18
HETATM   18  C           1     -19.889  -4.567  -8.524  0.00  0.00     0.196 C 
HETATM   19  O           1     -18.848  -4.181  -7.951  0.00  0.00    -0.646 OA
HETATM   20  O           1     -19.893  -4.741  -9.762  0.00  0.00    -0.646 OA
ENDBRANCH  17  18
BRANCH  17  21
HETATM   21  C           1     -20.888  -5.956  -6.734  0.00  0.00     0.046 C 
BRANCH  21  22
HETATM   22  C           1     -20.786  -5.387  -5.325  0.00  0.00     0.076 C 
BRANCH  22  23
HETATM   23  S           1     -21.566  -6.531  -4.152  0.00  0.00    -0.173 SA
HETATM   24  C           1     -21.381  -8.020  -5.173  0.00  0.00     0.089 C 
ENDBRANCH  22  23
ENDBRANCH  21  22
ENDBRANCH  17  21
ENDBRANCH   4  17
TORSDOF 11
ENDMDL
MODEL 5
REMARK VINA RESULT:      -5.5      3.299      7.108
REMARK  11 active torsions:
REMARK  status: ('A' for Active; 'I' for Inactive)
REMARK    1  A    between atoms: C_1  and  C_24 
REMARK    2  A    between atoms: C_1  and  C_3 
REMARK    3  A    between atoms: C_3  and  C_9 
REMARK    4  A    between atoms: C_7  and  C_12 
REMARK    5  A    between atoms: C_9  and  N_18 
REMARK    6  A    between atoms: N_10  and  C_24 
REMARK    7  A    between atoms: C_11  and  S_20 
REMARK    8  A    between atoms: C_11  and  C_21 
REMARK    9  A    between atoms: C_12  and  C_21 
REMARK   10  A    between atoms: C_12  and  N_17 
REMARK       I    between atoms: C_16  and  N_17 
REMARK   11  A    between atoms: C_16  and  C_24 
ROOT
HETATM    1  O           1     -21.669  -3.184  -8.379  0.00  0.00    -0.271 OA
HETATM    2  H           1     -22.587  -5.863  -7.028  0.00  0.00     0.163 HD
HETATM    3  C           1     -22.347  -4.166  -8.189  0.00  0.00     0.249 C 
HETATM    4  N           1     -22.020  -5.041  -7.188  0.00  0.00    -0.345 N 
ENDROOT
BRANCH   3   5
HETATM    5  C           1     -23.555  -4.429  -9.054  0.00  0.00     0.274 C 
BRANCH   5   6
HETATM    6  C           1     -23.127  -4.508 -10.514  0.00  0.00     0.044 C 
BRANCH   6   7
HETATM    7  C           1     -23.803  -3.394 -11.302  0.00  0.00     0.030 C 
BRANCH   7   8
HETATM    8  C           1     -22.764  -2.658 -12.136  0.00  0.00     0.230 C 
BRANCH   8   9
HETATM    9  N           1     -21.801  -3.646 -12.725  0.00  0.00    -0.079 N 
HETATM   10  H           1     -21.486  -3.310 -13.663  0.00  0.00     0.274 HD
HETATM   11  H           1     -22.274  -4.572 -12.828  0.00  0.00     0.274 HD
HETATM   12  H           1     -20.974  -3.744 -12.095  0.00  0.00     0.274 HD
ENDBRANCH   8   9
ENDBRANCH   7   8
ENDBRANCH   6   7
ENDBRANCH   5   6
BRANCH   5  13
HETATM   13  N           1     -24.543  -3.314  -8.883  0.00  0.00    -0.067 N 
HETATM   14  H           1     -24.298  -2.758  -8.033  0.00  0.00     0.275 HD
HETATM   15  H           1     -24.518  -2.693  -9.723  0.00  0.00     0.275 HD
HETATM   16  H           1     -25.503  -3.713  -8.772  0.00  0.00     0.275 HD
ENDBRANCH   5  13
ENDBRANCH   3   5
BRANCH   4  17
HETATM   17  C           1     -20.859  -4.788  -6.356  0.00  0.00     0.186 C 
BRANCH  17  18
HETATM   18  C           1     -19.626  -5.335  -7.035  0.00  0.00     0.196 C 
HETATM   19  O           1     -19.487  -6.568  -7.179  0.00  0.00    -0.646 OA
HETATM   20  O           1     -18.744  -4.553  -7.452  0.00  0.00    -0.646 OA
ENDBRANCH  17  18
BRANCH  17  21
HETATM   21  C           1     -21.042  -5.472  -5.008  0.00  0.00     0.046 C 
BRANCH  21  22
HETATM   22  C           1     -22.162  -6.499  -5.107  0.00  0.00     0.076 C 
BRANCH  22  23
HETATM   23  S           1     -21.571  -8.102  -4.493  0.00  0.00    -0.173 SA
HETATM   24  C           1     -21.116  -7.524  -2.834  0.00  0.00     0.089 C 
ENDBRANCH  22  23
ENDBRANCH  21  22
ENDBRANCH  17  21
ENDBRANCH   4  17
TORSDOF 11
ENDMDL
MODEL 6
REMARK VINA RESULT:      -5.4      4.241      7.537
REMARK  11 active torsions:
REMARK  status: ('A' for Active; 'I' for Inactive)
REMARK    1  A    between atoms: C_1  and  C_24 
REMARK    2  A    between atoms: C_1  and  C_3 
REMARK    3  A    between atoms: C_3  and  C_9 
REMARK    4  A    between atoms: C_7  and  C_12 
REMARK    5  A    between atoms: C_9  and  N_18 
REMARK    6  A    between atoms: N_10  and  C_24 
REMARK    7  A    between atoms: C_11  and  S_20 
REMARK    8  A    between atoms: C_11  and  C_21 
REMARK    9  A    between atoms: C_12  and  C_21 
REMARK   10  A    between atoms: C_12  and  N_17 
REMARK       I    between atoms: C_16  and  N_17 
REMARK   11  A    between atoms: C_16  and  C_24 
ROOT
HETATM    1  O           1     -22.590  -5.563  -5.771  0.00  0.00    -0.271 OA
HETATM    2  H           1     -19.770  -6.440  -4.710  0.00  0.00     0.163 HD
HETATM    3  C           1     -21.386  -5.566  -5.663  0.00  0.00     0.249 C 
HETATM    4  N           1     -20.778  -6.438  -4.800  0.00  0.00    -0.345 N 
ENDROOT
BRANCH   3   5
HETATM    5  C           1     -20.553  -4.610  -6.481  0.00  0.00     0.274 C 
BRANCH   5   6
HETATM    6  C           1     -21.470  -3.683  -7.269  0.00  0.00     0.044 C 
BRANCH   6   7
HETATM    7  C           1     -21.463  -4.091  -8.737  0.00  0.00     0.030 C 
BRANCH   7   8
HETATM    8  C           1     -22.893  -4.306  -9.212  0.00  0.00     0.230 C 
BRANCH   8   9
HETATM    9  N           1     -23.843  -4.045  -8.080  0.00  0.00    -0.079 N 
HETATM   10  H           1     -24.825  -4.170  -8.412  0.00  0.00     0.274 HD
HETATM   11  H           1     -23.713  -3.066  -7.737  0.00  0.00     0.274 HD
HETATM   12  H           1     -23.650  -4.716  -7.303  0.00  0.00     0.274 HD
ENDBRANCH   8   9
ENDBRANCH   7   8
ENDBRANCH   6   7
ENDBRANCH   5   6
BRANCH   5  13
HETATM   13  N           1     -19.690  -5.387  -7.431  0.00  0.00    -0.067 N 
HETATM   14  H           1     -20.264  -6.124  -7.899  0.00  0.00     0.275 HD
HETATM   15  H           1     -19.297  -4.741  -8.152  0.00  0.00     0.275 HD
HETATM   16  H           1     -18.910  -5.837  -6.902  0.00  0.00     0.275 HD
ENDBRANCH   5  13
ENDBRANCH   3   5
BRANCH   4  17
HETATM   17  C           1     -21.579  -7.356  -4.015  0.00  0.00     0.186 C 
BRANCH  17  18
HETATM   18  C           1     -21.646  -6.870  -2.587  0.00  0.00     0.196 C 
HETATM   19  O           1     -20.932  -7.403  -1.711  0.00  0.00    -0.646 OA
HETATM   20  O           1     -22.416  -5.934  -2.282  0.00  0.00    -0.646 OA
ENDBRANCH  17  18
BRANCH  17  21
HETATM   21  C           1     -20.945  -8.741  -4.051  0.00  0.00     0.046 C 
BRANCH  21  22
HETATM   22  C           1     -19.592  -8.662  -4.745  0.00  0.00     0.076 C 
BRANCH  22  23
HETATM   23  S           1     -18.337  -9.483  -3.722  0.00  0.00    -0.173 SA
HETATM   24  C           1     -19.498 -10.473  -2.739  0.00  0.00     0.089 C 
ENDBRANCH  22  23
ENDBRANCH  21  22
ENDBRANCH  17  21
ENDBRANCH   4  17
TORSDOF 11
ENDMDL
MODEL 7
REMARK VINA RESULT:      -5.3      4.397      7.509
REMARK  11 active torsions:
REMARK  status: ('A' for Active; 'I' for Inactive)
REMARK    1  A    between atoms: C_1  and  C_24 
REMARK    2  A    between atoms: C_1  and  C_3 
REMARK    3  A    between atoms: C_3  and  C_9 
REMARK    4  A    between atoms: C_7  and  C_12 
REMARK    5  A    between atoms: C_9  and  N_18 
REMARK    6  A    between atoms: N_10  and  C_24 
REMARK    7  A    between atoms: C_11  and  S_20 
REMARK    8  A    between atoms: C_11  and  C_21 
REMARK    9  A    between atoms: C_12  and  C_21 
REMARK   10  A    between atoms: C_12  and  N_17 
REMARK       I    between atoms: C_16  and  N_17 
REMARK   11  A    between atoms: C_16  and  C_24 
ROOT
HETATM    1  O           1     -19.629  -4.554  -5.851  0.00  0.00    -0.271 OA
HETATM    2  H           1     -22.471  -5.861  -6.085  0.00  0.00     0.163 HD
HETATM    3  C           1     -20.743  -4.738  -6.279  0.00  0.00     0.249 C 
HETATM    4  N           1     -21.538  -5.706  -5.726  0.00  0.00    -0.345 N 
ENDROOT
BRANCH   3   5
HETATM    5  C           1     -21.260  -3.900  -7.423  0.00  0.00     0.274 C 
BRANCH   5   6
HETATM    6  C           1     -22.708  -4.275  -7.714  0.00  0.00     0.044 C 
BRANCH   6   7
HETATM    7  C           1     -22.904  -4.409  -9.218  0.00  0.00     0.030 C 
BRANCH   7   8
HETATM    8  C           1     -23.939  -3.396  -9.688  0.00  0.00     0.230 C 
BRANCH   8   9
HETATM    9  N           1     -25.303  -4.020  -9.652  0.00  0.00    -0.079 N 
HETATM   10  H           1     -26.013  -3.326  -9.981  0.00  0.00     0.274 HD
HETATM   11  H           1     -25.527  -4.310  -8.674  0.00  0.00     0.274 HD
HETATM   12  H           1     -25.320  -4.857 -10.278  0.00  0.00     0.274 HD
ENDBRANCH   8   9
ENDBRANCH   7   8
ENDBRANCH   6   7
ENDBRANCH   5   6
BRANCH   5  13
HETATM   13  N           1     -20.424  -4.151  -8.642  0.00  0.00    -0.067 N 
HETATM   14  H           1     -19.523  -4.599  -8.361  0.00  0.00     0.275 HD
HETATM   15  H           1     -20.939  -4.784  -9.294  0.00  0.00     0.275 HD
HETATM   16  H           1     -20.225  -3.243  -9.121  0.00  0.00     0.275 HD
ENDBRANCH   5  13
ENDBRANCH   3   5
BRANCH   4  17
HETATM   17  C           1     -21.041  -6.511  -4.627  0.00  0.00     0.186 C 
BRANCH  17  18
HETATM   18  C           1     -20.559  -7.841  -5.156  0.00  0.00     0.196 C 
HETATM   19  O           1     -21.180  -8.408  -6.079  0.00  0.00    -0.646 OA
HETATM   20  O           1     -19.538  -8.373  -4.670  0.00  0.00    -0.646 OA
ENDBRANCH  17  18
BRANCH  17  21
HETATM   21  C           1     -22.160  -6.741  -3.620  0.00  0.00     0.046 C 
BRANCH  21  22
HETATM   22  C           1     -21.815  -6.044  -2.310  0.00  0.00     0.076 C 
BRANCH  22  23
HETATM   23  S           1     -22.222  -7.137  -0.918  0.00  0.00    -0.173 SA
HETATM   24  C           1     -20.870  -8.317  -1.191  0.00  0.00     0.089 C 
ENDBRANCH  22  23
ENDBRANCH  21  22
ENDBRANCH  17  21
ENDBRANCH   4  17
TORSDOF 11
ENDMDL
MODEL 8
REMARK VINA RESULT:      -5.2      4.187      7.700
REMARK  11 active torsions:
REMARK  status: ('A' for Active; 'I' for Inactive)
REMARK    1  A    between atoms: C_1  and  C_24 
REMARK    2  A    between atoms: C_1  and  C_3 
REMARK    3  A    between atoms: C_3  and  C_9 
REMARK    4  A    between atoms: C_7  and  C_12 
REMARK    5  A    between atoms: C_9  and  N_18 
REMARK    6  A    between atoms: N_10  and  C_24 
REMARK    7  A    between atoms: C_11  and  S_20 
REMARK    8  A    between atoms: C_11  and  C_21 
REMARK    9  A    between atoms: C_12  and  C_21 
REMARK   10  A    between atoms: C_12  and  N_17 
REMARK       I    between atoms: C_16  and  N_17 
REMARK   11  A    between atoms: C_16  and  C_24 
ROOT
HETATM    1  O           1     -20.514  -4.473  -6.055  0.00  0.00    -0.271 OA
HETATM    2  H           1     -21.510  -7.154  -7.345  0.00  0.00     0.163 HD
HETATM    3  C           1     -20.984  -5.203  -6.895  0.00  0.00     0.249 C 
HETATM    4  N           1     -21.117  -6.542  -6.641  0.00  0.00    -0.345 N 
ENDROOT
BRANCH   3   5
HETATM    5  C           1     -21.423  -4.640  -8.224  0.00  0.00     0.274 C 
BRANCH   5   6
HETATM    6  C           1     -20.215  -4.080  -8.964  0.00  0.00     0.044 C 
BRANCH   6   7
HETATM    7  C           1     -20.068  -4.787 -10.305  0.00  0.00     0.030 C 
BRANCH   7   8
HETATM    8  C           1     -21.164  -4.316 -11.251  0.00  0.00     0.230 C 
BRANCH   8   9
HETATM    9  N           1     -20.914  -2.888 -11.637  0.00  0.00    -0.079 N 
HETATM   10  H           1     -21.635  -2.582 -12.329  0.00  0.00     0.274 HD
HETATM   11  H           1     -19.964  -2.805 -12.064  0.00  0.00     0.274 HD
HETATM   12  H           1     -20.969  -2.283 -10.786  0.00  0.00     0.274 HD
ENDBRANCH   8   9
ENDBRANCH   7   8
ENDBRANCH   6   7
ENDBRANCH   5   6
BRANCH   5  13
HETATM   13  N           1     -22.422  -3.545  -7.996  0.00  0.00    -0.067 N 
HETATM   14  H           1     -22.518  -2.975  -8.867  0.00  0.00     0.275 HD
HETATM   15  H           1     -23.347  -3.963  -7.750  0.00  0.00     0.275 HD
HETATM   16  H           1     -22.095  -2.933  -7.215  0.00  0.00     0.275 HD
ENDBRANCH   5  13
ENDBRANCH   3   5
BRANCH   4  17
HETATM   17  C           1     -20.694  -7.083  -5.364  0.00  0.00     0.186 C 
BRANCH  17  18
HETATM   18  C           1     -20.220  -8.503  -5.552  0.00  0.00     0.196 C 
HETATM   19  O           1     -18.998  -8.749  -5.624  0.00  0.00    -0.646 OA
HETATM   20  O           1     -21.051  -9.434  -5.634  0.00  0.00    -0.646 OA
ENDBRANCH  17  18
BRANCH  17  21
HETATM   21  C           1     -21.867  -7.063  -4.392  0.00  0.00     0.046 C 
BRANCH  21  22
HETATM   22  C           1     -21.435  -6.409  -3.087  0.00  0.00     0.076 C 
BRANCH  22  23
HETATM   23  S           1     -21.127  -7.691  -1.839  0.00  0.00    -0.173 SA
HETATM   24  C           1     -22.403  -7.143  -0.671  0.00  0.00     0.089 C 
ENDBRANCH  22  23
ENDBRANCH  21  22
ENDBRANCH  17  21
ENDBRANCH   4  17
TORSDOF 11
ENDMDL
MODEL 9
REMARK VINA RESULT:      -4.8      3.649      7.112
REMARK  11 active torsions:
REMARK  status: ('A' for Active; 'I' for Inactive)
REMARK    1  A    between atoms: C_1  and  C_24 
REMARK    2  A    between atoms: C_1  and  C_3 
REMARK    3  A    between atoms: C_3  and  C_9 
REMARK    4  A    between atoms: C_7  and  C_12 
REMARK    5  A    between atoms: C_9  and  N_18 
REMARK    6  A    between atoms: N_10  and  C_24 
REMARK    7  A    between atoms: C_11  and  S_20 
REMARK    8  A    between atoms: C_11  and  C_21 
REMARK    9  A    between atoms: C_12  and  C_21 
REMARK   10  A    between atoms: C_12  and  N_17 
REMARK       I    between atoms: C_16  and  N_17 
REMARK   11  A    between atoms: C_16  and  C_24 
ROOT
HETATM    1  O           1     -22.885  -4.553  -7.354  0.00  0.00    -0.271 OA
HETATM    2  H           1     -20.086  -5.942  -7.634  0.00  0.00     0.163 HD
HETATM    3  C           1     -21.818  -4.830  -7.849  0.00  0.00     0.249 C 
HETATM    4  N           1     -20.980  -5.710  -7.220  0.00  0.00    -0.345 N 
ENDROOT
BRANCH   3   5
HETATM    5  C           1     -21.410  -4.206  -9.160  0.00  0.00     0.274 C 
BRANCH   5   6
HETATM    6  C           1     -22.418  -4.583 -10.238  0.00  0.00     0.044 C 
BRANCH   6   7
HETATM    7  C           1     -22.979  -3.318 -10.874  0.00  0.00     0.030 C 
BRANCH   7   8
HETATM    8  C           1     -24.499  -3.389 -10.893  0.00  0.00     0.230 C 
BRANCH   8   9
HETATM    9  N           1     -24.985  -4.072  -9.649  0.00  0.00    -0.079 N 
HETATM   10  H           1     -24.246  -4.022  -8.911  0.00  0.00     0.274 HD
HETATM   11  H           1     -25.197  -5.073  -9.862  0.00  0.00     0.274 HD
HETATM   12  H           1     -25.851  -3.596  -9.306  0.00  0.00     0.274 HD
ENDBRANCH   8   9
ENDBRANCH   7   8
ENDBRANCH   6   7
ENDBRANCH   5   6
BRANCH   5  13
HETATM   13  N           1     -20.050  -4.705  -9.549  0.00  0.00    -0.067 N 
HETATM   14  H           1     -19.941  -4.647 -10.587  0.00  0.00     0.275 HD
HETATM   15  H           1     -19.319  -4.119  -9.088  0.00  0.00     0.275 HD
HETATM   16  H           1     -19.945  -5.700  -9.245  0.00  0.00     0.275 HD
ENDBRANCH   5  13
ENDBRANCH   3   5
BRANCH   4  17
HETATM   17  C           1     -21.372  -6.310  -5.959  0.00  0.00     0.186 C 
BRANCH  17  18
HETATM   18  C           1     -20.876  -5.454  -4.819  0.00  0.00     0.196 C 
HETATM   19  O           1     -21.327  -5.624  -3.667  0.00  0.00    -0.646 OA
HETATM   20  O           1     -20.013  -4.574  -5.029  0.00  0.00    -0.646 OA
ENDBRANCH  17  18
BRANCH  17  21
HETATM   21  C           1     -20.766  -7.703  -5.849  0.00  0.00     0.046 C 
BRANCH  21  22
HETATM   22  C           1     -21.556  -8.523  -4.839  0.00  0.00     0.076 C 
BRANCH  22  23
HETATM   23  S           1     -20.466  -9.757  -4.074  0.00  0.00    -0.173 SA
HETATM   24  C           1     -19.989  -8.742  -2.646  0.00  0.00     0.089 C 
ENDBRANCH  22  23
ENDBRANCH  21  22
ENDBRANCH  17  21
ENDBRANCH   4  17
TORSDOF 11
ENDMDL
