MODEL 1
REMARK VINA RESULT:      -8.0      0.000      0.000
REMARK  9 active torsions:
REMARK  status: ('A' for Active; 'I' for Inactive)
REMARK    1  A    between atoms: C_2  and  C_16 
REMARK    2  A    between atoms: C_2  and  C_22 
REMARK    3  A    between atoms: N_8  and  C_19 
REMARK    4  A    between atoms: C_12  and  C_21 
REMARK    5  A    between atoms: N_13  and  C_18 
REMARK       I    between atoms: N_13  and  C_20 
REMARK       I    between atoms: C_16  and  N_23 
REMARK    6  A    between atoms: C_18  and  C_22 
REMARK    7  A    between atoms: C_18  and  C_27 
REMARK    8  A    between atoms: C_19  and  C_20 
REMARK    9  A    between atoms: C_19  and  C_21 
ROOT
HETATM    1  H           1     -22.159  -5.790  -9.325  0.00  0.00     0.163 HD
HETATM    2  O           1     -21.692  -3.455  -7.284  0.00  0.00    -0.271 OA
HETATM    3  N           1     -22.173  -4.846  -8.964  0.00  0.00    -0.345 N 
HETATM    4  C           1     -21.675  -4.583  -7.715  0.00  0.00     0.249 C 
ENDROOT
BRANCH   4   5
HETATM    5  C           1     -21.102  -5.701  -6.880  0.00  0.00     0.278 C 
BRANCH   5   6
HETATM    6  N           1     -19.791  -6.139  -7.465  0.00  0.00    -0.066 N 
HETATM    7  H           1     -19.270  -6.709  -6.761  0.00  0.00     0.275 HD
HETATM    8  H           1     -19.966  -6.713  -8.320  0.00  0.00     0.275 HD
HETATM    9  H           1     -19.225  -5.298  -7.719  0.00  0.00     0.275 HD
ENDBRANCH   5   6
BRANCH   5  10
HETATM   10  C           1     -20.884  -5.212  -5.456  0.00  0.00     0.081 C 
BRANCH  10  11
HETATM   11  C           1     -21.145  -6.331  -4.497  0.00  0.00    -0.056 A 
HETATM   12  C           1     -21.288  -7.636  -4.970  0.00  0.00     0.007 A 
HETATM   13  C           1     -21.531  -8.679  -4.077  0.00  0.00     0.001 A 
HETATM   14  C           1     -21.632  -8.418  -2.710  0.00  0.00     0.000 A 
HETATM   15  C           1     -21.489  -7.114  -2.237  0.00  0.00     0.001 A 
HETATM   16  C           1     -21.246  -6.071  -3.130  0.00  0.00     0.007 A 
ENDBRANCH  10  11
ENDBRANCH   5  10
ENDBRANCH   4   5
BRANCH   3  17
HETATM   17  C           1     -22.723  -3.770  -9.766  0.00  0.00     0.186 C 
BRANCH  17  18
HETATM   18  C           1     -22.239  -3.908 -11.203  0.00  0.00     0.045 C 
BRANCH  18  19
HETATM   19  C           1     -22.502  -2.609 -11.954  0.00  0.00     0.105 C 
BRANCH  19  20
HETATM   20  C           1     -23.263  -2.905 -13.223  0.00  0.00     0.215 C 
HETATM   21  O           1     -24.464  -3.031 -13.192  0.00  0.00    -0.274 OA
HETATM   22  N           1     -22.592  -3.030 -14.409  0.00  0.00    -0.370 N 
HETATM   23  H           1     -21.586  -2.925 -14.435  0.00  0.00     0.159 HD
HETATM   24  H           1     -23.102  -3.229 -15.261  0.00  0.00     0.159 HD
ENDBRANCH  19  20
ENDBRANCH  18  19
ENDBRANCH  17  18
BRANCH  17  25
HETATM   25  C           1     -24.230  -3.840  -9.734  0.00  0.00     0.196 C 
HETATM   26  O           1     -24.810  -4.920  -9.979  0.00  0.00    -0.646 OA
HETATM   27  O           1     -24.899  -2.820  -9.462  0.00  0.00    -0.646 OA
ENDBRANCH  17  25
ENDBRANCH   3  17
TORSDOF 9
ENDMDL
MODEL 2
REMARK VINA RESULT:      -7.7     12.126     14.002
REMARK  9 active torsions:
REMARK  status: ('A' for Active; 'I' for Inactive)
REMARK    1  A    between atoms: C_2  and  C_16 
REMARK    2  A    between atoms: C_2  and  C_22 
REMARK    3  A    between atoms: N_8  and  C_19 
REMARK    4  A    between atoms: C_12  and  C_21 
REMARK    5  A    between atoms: N_13  and  C_18 
REMARK       I    between atoms: N_13  and  C_20 
REMARK       I    between atoms: C_16  and  N_23 
REMARK    6  A    between atoms: C_18  and  C_22 
REMARK    7  A    between atoms: C_18  and  C_27 
REMARK    8  A    between atoms: C_19  and  C_20 
REMARK    9  A    between atoms: C_19  and  C_21 
ROOT
HETATM    1  H           1     -35.353  -1.996 -13.997  0.00  0.00     0.163 HD
HETATM    2  O           1     -33.831  -2.006 -11.253  0.00  0.00    -0.271 OA
HETATM    3  N           1     -34.970  -1.625 -13.137  0.00  0.00    -0.345 N 
HETATM    4  C           1     -34.289  -2.448 -12.280  0.00  0.00     0.249 C 
ENDROOT
BRANCH   4   5
HETATM    5  C           1     -34.108  -3.907 -12.619  0.00  0.00     0.278 C 
BRANCH   5   6
HETATM    6  N           1     -33.693  -4.038 -14.055  0.00  0.00    -0.066 N 
HETATM    7  H           1     -32.676  -4.269 -14.103  0.00  0.00     0.275 HD
HETATM    8  H           1     -34.248  -4.798 -14.510  0.00  0.00     0.275 HD
HETATM    9  H           1     -33.868  -3.135 -14.551  0.00  0.00     0.275 HD
ENDBRANCH   5   6
BRANCH   5  10
HETATM   10  C           1     -33.033  -4.508 -11.724  0.00  0.00     0.081 C 
BRANCH  10  11
HETATM   11  C           1     -33.593  -5.687 -10.992  0.00  0.00    -0.056 A 
HETATM   12  C           1     -34.823  -5.584 -10.341  0.00  0.00     0.007 A 
HETATM   13  C           1     -35.344  -6.684  -9.659  0.00  0.00     0.001 A 
HETATM   14  C           1     -34.637  -7.885  -9.626  0.00  0.00     0.000 A 
HETATM   15  C           1     -33.408  -7.987 -10.278  0.00  0.00     0.001 A 
HETATM   16  C           1     -32.886  -6.889 -10.960  0.00  0.00     0.007 A 
ENDBRANCH  10  11
ENDBRANCH   5  10
ENDBRANCH   4   5
BRANCH   3  17
HETATM   17  C           1     -35.143  -0.223 -12.810  0.00  0.00     0.186 C 
BRANCH  17  18
HETATM   18  C           1     -35.308   0.582 -14.092  0.00  0.00     0.045 C 
BRANCH  18  19
HETATM   19  C           1     -35.497  -0.368 -15.268  0.00  0.00     0.105 C 
BRANCH  19  20
HETATM   20  C           1     -36.858  -0.147 -15.882  0.00  0.00     0.215 C 
HETATM   21  O           1     -37.153  -0.702 -16.912  0.00  0.00    -0.274 OA
HETATM   22  N           1     -37.757   0.683 -15.269  0.00  0.00    -0.370 N 
HETATM   23  H           1     -37.510   1.148 -14.404  0.00  0.00     0.159 HD
HETATM   24  H           1     -38.670   0.831 -15.679  0.00  0.00     0.159 HD
ENDBRANCH  19  20
ENDBRANCH  18  19
ENDBRANCH  17  18
BRANCH  17  25
HETATM   25  C           1     -36.372  -0.056 -11.951  0.00  0.00     0.196 C 
HETATM   26  O           1     -37.493  -0.390 -12.392  0.00  0.00    -0.646 OA
HETATM   27  O           1     -36.270   0.415 -10.797  0.00  0.00    -0.646 OA
ENDBRANCH  17  25
ENDBRANCH   3  17
TORSDOF 9
ENDMDL
MODEL 3
REMARK VINA RESULT:      -7.5      3.788      8.205
REMARK  9 active torsions:
REMARK  status: ('A' for Active; 'I' for Inactive)
REMARK    1  A    between atoms: C_2  and  C_16 
REMARK    2  A    between atoms: C_2  and  C_22 
REMARK    3  A    between atoms: N_8  and  C_19 
REMARK    4  A    between atoms: C_12  and  C_21 
REMARK    5  A    between atoms: N_13  and  C_18 
REMARK       I    between atoms: N_13  and  C_20 
REMARK       I    between atoms: C_16  and  N_23 
REMARK    6  A    between atoms: C_18  and  C_22 
REMARK    7  A    between atoms: C_18  and  C_27 
REMARK    8  A    between atoms: C_19  and  C_20 
REMARK    9  A    between atoms: C_19  and  C_21 
ROOT
HETATM    1  H           1     -21.809  -7.882  -5.941  0.00  0.00     0.163 HD
HETATM    2  O           1     -20.683  -5.167  -4.843  0.00  0.00    -0.271 OA
HETATM    3  N           1     -21.277  -7.261  -5.345  0.00  0.00    -0.345 N 
HETATM    4  C           1     -21.318  -5.908  -5.554  0.00  0.00     0.249 C 
ENDROOT
BRANCH   4   5
HETATM    5  C           1     -22.158  -5.343  -6.673  0.00  0.00     0.278 C 
BRANCH   5   6
HETATM    6  N           1     -23.545  -5.075  -6.169  0.00  0.00    -0.066 N 
HETATM    7  H           1     -24.164  -5.881  -6.407  0.00  0.00     0.275 HD
HETATM    8  H           1     -23.520  -4.947  -5.132  0.00  0.00     0.275 HD
HETATM    9  H           1     -23.917  -4.207  -6.618  0.00  0.00     0.275 HD
ENDBRANCH   5   6
BRANCH   5  10
HETATM   10  C           1     -21.538  -4.044  -7.168  0.00  0.00     0.081 C 
BRANCH  10  11
HETATM   11  C           1     -21.480  -4.055  -8.664  0.00  0.00    -0.056 A 
HETATM   12  C           1     -22.599  -3.680  -9.408  0.00  0.00     0.007 A 
HETATM   13  C           1     -22.545  -3.691 -10.802  0.00  0.00     0.001 A 
HETATM   14  C           1     -21.374  -4.078 -11.452  0.00  0.00     0.000 A 
HETATM   15  C           1     -20.255  -4.452 -10.708  0.00  0.00     0.001 A 
HETATM   16  C           1     -20.308  -4.442  -9.314  0.00  0.00     0.007 A 
ENDBRANCH  10  11
ENDBRANCH   5  10
ENDBRANCH   4   5
BRANCH   3  17
HETATM   17  C           1     -20.470  -7.803  -4.269  0.00  0.00     0.186 C 
BRANCH  17  18
HETATM   18  C           1     -21.378  -8.399  -3.202  0.00  0.00     0.045 C 
BRANCH  18  19
HETATM   19  C           1     -21.038  -7.789  -1.848  0.00  0.00     0.105 C 
BRANCH  19  20
HETATM   20  C           1     -22.130  -6.831  -1.438  0.00  0.00     0.215 C 
HETATM   21  O           1     -22.851  -7.098  -0.507  0.00  0.00    -0.274 OA
HETATM   22  N           1     -22.301  -5.658  -2.123  0.00  0.00    -0.370 N 
HETATM   23  H           1     -21.697  -5.433  -2.903  0.00  0.00     0.159 HD
HETATM   24  H           1     -23.033  -5.014  -1.849  0.00  0.00     0.159 HD
ENDBRANCH  19  20
ENDBRANCH  18  19
ENDBRANCH  17  18
BRANCH  17  25
HETATM   25  C           1     -19.564  -8.879  -4.815  0.00  0.00     0.196 C 
HETATM   26  O           1     -19.018  -8.730  -5.930  0.00  0.00    -0.646 OA
HETATM   27  O           1     -19.358  -9.920  -4.154  0.00  0.00    -0.646 OA
ENDBRANCH  17  25
ENDBRANCH   3  17
TORSDOF 9
ENDMDL
MODEL 4
REMARK VINA RESULT:      -7.5     12.600     14.640
REMARK  9 active torsions:
REMARK  status: ('A' for Active; 'I' for Inactive)
REMARK    1  A    between atoms: C_2  and  C_16 
REMARK    2  A    between atoms: C_2  and  C_22 
REMARK    3  A    between atoms: N_8  and  C_19 
REMARK    4  A    between atoms: C_12  and  C_21 
REMARK    5  A    between atoms: N_13  and  C_18 
REMARK       I    between atoms: N_13  and  C_20 
REMARK       I    between atoms: C_16  and  N_23 
REMARK    6  A    between atoms: C_18  and  C_22 
REMARK    7  A    between atoms: C_18  and  C_27 
REMARK    8  A    between atoms: C_19  and  C_20 
REMARK    9  A    between atoms: C_19  and  C_21 
ROOT
HETATM    1  H           1     -35.677  -2.117 -14.319  0.00  0.00     0.163 HD
HETATM    2  O           1     -34.923   0.888 -13.821  0.00  0.00    -0.271 OA
HETATM    3  N           1     -35.495  -1.147 -14.543  0.00  0.00    -0.345 N 
HETATM    4  C           1     -35.141  -0.270 -13.553  0.00  0.00     0.249 C 
ENDROOT
BRANCH   4   5
HETATM    5  C           1     -35.023  -0.749 -12.127  0.00  0.00     0.278 C 
BRANCH   5   6
HETATM    6  N           1     -35.544   0.309 -11.200  0.00  0.00    -0.066 N 
HETATM    7  H           1     -35.740  -0.114 -10.266  0.00  0.00     0.275 HD
HETATM    8  H           1     -34.831   1.066 -11.100  0.00  0.00     0.275 HD
HETATM    9  H           1     -36.426   0.711 -11.592  0.00  0.00     0.275 HD
ENDBRANCH   5   6
BRANCH   5  10
HETATM   10  C           1     -35.835  -2.024 -11.951  0.00  0.00     0.081 C 
BRANCH  10  11
HETATM   11  C           1     -34.914  -3.171 -11.676  0.00  0.00    -0.056 A 
HETATM   12  C           1     -35.369  -4.273 -10.952  0.00  0.00     0.007 A 
HETATM   13  C           1     -34.510  -5.342 -10.696  0.00  0.00     0.001 A 
HETATM   14  C           1     -33.196  -5.309 -11.163  0.00  0.00     0.000 A 
HETATM   15  C           1     -32.741  -4.207 -11.887  0.00  0.00     0.001 A 
HETATM   16  C           1     -33.600  -3.138 -12.143  0.00  0.00     0.007 A 
ENDBRANCH  10  11
ENDBRANCH   5  10
ENDBRANCH   4   5
BRANCH   3  17
HETATM   17  C           1     -35.608  -0.686 -15.914  0.00  0.00     0.186 C 
BRANCH  17  18
HETATM   18  C           1     -35.149  -1.786 -16.861  0.00  0.00     0.045 C 
BRANCH  18  19
HETATM   19  C           1     -34.625  -2.966 -16.054  0.00  0.00     0.105 C 
BRANCH  19  20
HETATM   20  C           1     -33.483  -3.617 -16.794  0.00  0.00     0.215 C 
HETATM   21  O           1     -32.841  -2.980 -17.595  0.00  0.00    -0.274 OA
HETATM   22  N           1     -33.173  -4.928 -16.557  0.00  0.00    -0.370 N 
HETATM   23  H           1     -33.711  -5.462 -15.885  0.00  0.00     0.159 HD
HETATM   24  H           1     -32.407  -5.366 -17.053  0.00  0.00     0.159 HD
ENDBRANCH  19  20
ENDBRANCH  18  19
ENDBRANCH  17  18
BRANCH  17  25
HETATM   25  C           1     -37.046  -0.337 -16.208  0.00  0.00     0.196 C 
HETATM   26  O           1     -37.434   0.848 -16.112  0.00  0.00    -0.646 OA
HETATM   27  O           1     -37.850  -1.231 -16.549  0.00  0.00    -0.646 OA
ENDBRANCH  17  25
ENDBRANCH   3  17
TORSDOF 9
ENDMDL
MODEL 5
REMARK VINA RESULT:      -7.4     12.480     15.172
REMARK  9 active torsions:
REMARK  status: ('A' for Active; 'I' for Inactive)
REMARK    1  A    between atoms: C_2  and  C_16 
REMARK    2  A    between atoms: C_2  and  C_22 
REMARK    3  A    between atoms: N_8  and  C_19 
REMARK    4  A    between atoms: C_12  and  C_21 
REMARK    5  A    between atoms: N_13  and  C_18 
REMARK       I    between atoms: N_13  and  C_20 
REMARK       I    between atoms: C_16  and  N_23 
REMARK    6  A    between atoms: C_18  and  C_22 
REMARK    7  A    between atoms: C_18  and  C_27 
REMARK    8  A    between atoms: C_19  and  C_20 
REMARK    9  A    between atoms: C_19  and  C_21 
ROOT
HETATM    1  H           1     -35.648  -2.777 -11.433  0.00  0.00     0.163 HD
HETATM    2  O           1     -34.683  -0.515 -13.379  0.00  0.00    -0.271 OA
HETATM    3  N           1     -35.066  -2.320 -12.122  0.00  0.00    -0.345 N 
HETATM    4  C           1     -35.379  -1.060 -12.557  0.00  0.00     0.249 C 
ENDROOT
BRANCH   4   5
HETATM    5  C           1     -36.593  -0.352 -12.007  0.00  0.00     0.278 C 
BRANCH   5   6
HETATM    6  N           1     -37.684  -0.359 -13.037  0.00  0.00    -0.066 N 
HETATM    7  H           1     -37.328   0.067 -13.922  0.00  0.00     0.275 HD
HETATM    8  H           1     -37.986  -1.343 -13.218  0.00  0.00     0.275 HD
HETATM    9  H           1     -38.497   0.197 -12.686  0.00  0.00     0.275 HD
ENDBRANCH   5   6
BRANCH   5  10
HETATM   10  C           1     -37.075  -1.069 -10.753  0.00  0.00     0.081 C 
BRANCH  10  11
HETATM   11  C           1     -37.169  -0.093  -9.623  0.00  0.00    -0.056 A 
HETATM   12  C           1     -36.438  -0.307  -8.454  0.00  0.00     0.007 A 
HETATM   13  C           1     -36.525   0.603  -7.401  0.00  0.00     0.001 A 
HETATM   14  C           1     -37.344   1.726  -7.515  0.00  0.00     0.000 A 
HETATM   15  C           1     -38.075   1.940  -8.683  0.00  0.00     0.001 A 
HETATM   16  C           1     -37.988   1.031  -9.737  0.00  0.00     0.007 A 
ENDBRANCH  10  11
ENDBRANCH   5  10
ENDBRANCH   4   5
BRANCH   3  17
HETATM   17  C           1     -33.899  -3.000 -12.650  0.00  0.00     0.186 C 
BRANCH  17  18
HETATM   18  C           1     -33.158  -3.696 -11.517  0.00  0.00     0.045 C 
BRANCH  18  19
HETATM   19  C           1     -34.162  -4.223 -10.501  0.00  0.00     0.105 C 
BRANCH  19  20
HETATM   20  C           1     -34.118  -5.731 -10.483  0.00  0.00     0.215 C 
HETATM   21  O           1     -34.913  -6.351  -9.818  0.00  0.00    -0.274 OA
HETATM   22  N           1     -33.176  -6.396 -11.220  0.00  0.00    -0.370 N 
HETATM   23  H           1     -32.509  -5.876 -11.778  0.00  0.00     0.159 HD
HETATM   24  H           1     -33.145  -7.408 -11.209  0.00  0.00     0.159 HD
ENDBRANCH  19  20
ENDBRANCH  18  19
ENDBRANCH  17  18
BRANCH  17  25
HETATM   25  C           1     -34.333  -4.024 -13.670  0.00  0.00     0.196 C 
HETATM   26  O           1     -33.946  -3.929 -14.855  0.00  0.00    -0.646 OA
HETATM   27  O           1     -35.079  -4.967 -13.331  0.00  0.00    -0.646 OA
ENDBRANCH  17  25
ENDBRANCH   3  17
TORSDOF 9
ENDMDL
MODEL 6
REMARK VINA RESULT:      -7.3     12.251     15.365
REMARK  9 active torsions:
REMARK  status: ('A' for Active; 'I' for Inactive)
REMARK    1  A    between atoms: C_2  and  C_16 
REMARK    2  A    between atoms: C_2  and  C_22 
REMARK    3  A    between atoms: N_8  and  C_19 
REMARK    4  A    between atoms: C_12  and  C_21 
REMARK    5  A    between atoms: N_13  and  C_18 
REMARK       I    between atoms: N_13  and  C_20 
REMARK       I    between atoms: C_16  and  N_23 
REMARK    6  A    between atoms: C_18  and  C_22 
REMARK    7  A    between atoms: C_18  and  C_27 
REMARK    8  A    between atoms: C_19  and  C_20 
REMARK    9  A    between atoms: C_19  and  C_21 
ROOT
HETATM    1  H           1     -36.242  -3.511 -11.711  0.00  0.00     0.163 HD
HETATM    2  O           1     -34.307  -1.663 -10.073  0.00  0.00    -0.271 OA
HETATM    3  N           1     -35.402  -3.237 -11.218  0.00  0.00    -0.345 N 
HETATM    4  C           1     -35.311  -1.990 -10.661  0.00  0.00     0.249 C 
ENDROOT
BRANCH   4   5
HETATM    5  C           1     -36.464  -1.024 -10.780  0.00  0.00     0.278 C 
BRANCH   5   6
HETATM    6  N           1     -37.089  -0.824  -9.431  0.00  0.00    -0.066 N 
HETATM    7  H           1     -37.165  -1.745  -8.944  0.00  0.00     0.275 HD
HETATM    8  H           1     -36.495  -0.176  -8.865  0.00  0.00     0.275 HD
HETATM    9  H           1     -38.042  -0.412  -9.547  0.00  0.00     0.275 HD
ENDBRANCH   5   6
BRANCH   5  10
HETATM   10  C           1     -35.956   0.311 -11.307  0.00  0.00     0.081 C 
BRANCH  10  11
HETATM   11  C           1     -35.968   0.296 -12.804  0.00  0.00    -0.056 A 
HETATM   12  C           1     -34.844   0.718 -13.514  0.00  0.00     0.007 A 
HETATM   13  C           1     -34.855   0.704 -14.909  0.00  0.00     0.001 A 
HETATM   14  C           1     -35.990   0.269 -15.594  0.00  0.00     0.000 A 
HETATM   15  C           1     -37.113  -0.152 -14.883  0.00  0.00     0.001 A 
HETATM   16  C           1     -37.103  -0.138 -13.488  0.00  0.00     0.007 A 
ENDBRANCH  10  11
ENDBRANCH   5  10
ENDBRANCH   4   5
BRANCH   3  17
HETATM   17  C           1     -34.294  -4.165 -11.103  0.00  0.00     0.186 C 
BRANCH  17  18
HETATM   18  C           1     -34.828  -5.587 -10.999  0.00  0.00     0.045 C 
BRANCH  18  19
HETATM   19  C           1     -33.691  -6.533 -10.636  0.00  0.00     0.105 C 
BRANCH  19  20
HETATM   20  C           1     -34.260  -7.849 -10.166  0.00  0.00     0.215 C 
HETATM   21  O           1     -35.372  -7.894  -9.697  0.00  0.00    -0.274 OA
HETATM   22  N           1     -33.514  -8.992 -10.272  0.00  0.00    -0.370 N 
HETATM   23  H           1     -32.582  -8.954 -10.665  0.00  0.00     0.159 HD
HETATM   24  H           1     -33.895  -9.876  -9.957  0.00  0.00     0.159 HD
ENDBRANCH  19  20
ENDBRANCH  18  19
ENDBRANCH  17  18
BRANCH  17  25
HETATM   25  C           1     -33.412  -4.048 -12.322  0.00  0.00     0.196 C 
HETATM   26  O           1     -33.907  -3.716 -13.421  0.00  0.00    -0.646 OA
HETATM   27  O           1     -32.188  -4.282 -12.234  0.00  0.00    -0.646 OA
ENDBRANCH  17  25
ENDBRANCH   3  17
TORSDOF 9
ENDMDL
MODEL 7
REMARK VINA RESULT:      -7.2      3.563      8.164
REMARK  9 active torsions:
REMARK  status: ('A' for Active; 'I' for Inactive)
REMARK    1  A    between atoms: C_2  and  C_16 
REMARK    2  A    between atoms: C_2  and  C_22 
REMARK    3  A    between atoms: N_8  and  C_19 
REMARK    4  A    between atoms: C_12  and  C_21 
REMARK    5  A    between atoms: N_13  and  C_18 
REMARK       I    between atoms: N_13  and  C_20 
REMARK       I    between atoms: C_16  and  N_23 
REMARK    6  A    between atoms: C_18  and  C_22 
REMARK    7  A    between atoms: C_18  and  C_27 
REMARK    8  A    between atoms: C_19  and  C_20 
REMARK    9  A    between atoms: C_19  and  C_21 
ROOT
HETATM    1  H           1     -22.015  -6.420  -6.380  0.00  0.00     0.163 HD
HETATM    2  O           1     -19.746  -4.476  -5.424  0.00  0.00    -0.271 OA
HETATM    3  N           1     -21.298  -6.043  -5.773  0.00  0.00    -0.345 N 
HETATM    4  C           1     -20.601  -4.926  -6.148  0.00  0.00     0.249 C 
ENDROOT
BRANCH   4   5
HETATM    5  C           1     -20.902  -4.256  -7.467  0.00  0.00     0.278 C 
BRANCH   5   6
HETATM    6  N           1     -19.626  -3.747  -8.071  0.00  0.00    -0.066 N 
HETATM    7  H           1     -19.826  -2.893  -8.638  0.00  0.00     0.275 HD
HETATM    8  H           1     -18.950  -3.512  -7.309  0.00  0.00     0.275 HD
HETATM    9  H           1     -19.214  -4.485  -8.687  0.00  0.00     0.275 HD
ENDBRANCH   5   6
BRANCH   5  10
HETATM   10  C           1     -21.545  -5.261  -8.412  0.00  0.00     0.081 C 
BRANCH  10  11
HETATM   11  C           1     -22.424  -4.540  -9.385  0.00  0.00    -0.056 A 
HETATM   12  C           1     -23.660  -4.041  -8.972  0.00  0.00     0.007 A 
HETATM   13  C           1     -24.480  -3.370  -9.879  0.00  0.00     0.001 A 
HETATM   14  C           1     -24.065  -3.197 -11.200  0.00  0.00     0.000 A 
HETATM   15  C           1     -22.829  -3.696 -11.612  0.00  0.00     0.001 A 
HETATM   16  C           1     -22.010  -4.367 -10.706  0.00  0.00     0.007 A 
ENDBRANCH  10  11
ENDBRANCH   5  10
ENDBRANCH   4   5
BRANCH   3  17
HETATM   17  C           1     -21.009  -6.686  -4.506  0.00  0.00     0.186 C 
BRANCH  17  18
HETATM   18  C           1     -22.254  -6.667  -3.629  0.00  0.00     0.045 C 
BRANCH  18  19
HETATM   19  C           1     -21.910  -6.073  -2.270  0.00  0.00     0.105 C 
BRANCH  19  20
HETATM   20  C           1     -21.996  -7.148  -1.213  0.00  0.00     0.215 C 
HETATM   21  O           1     -22.924  -7.163  -0.441  0.00  0.00    -0.274 OA
HETATM   22  N           1     -21.021  -8.105  -1.132  0.00  0.00    -0.370 N 
HETATM   23  H           1     -20.243  -8.092  -1.780  0.00  0.00     0.159 HD
HETATM   24  H           1     -21.077  -8.826  -0.424  0.00  0.00     0.159 HD
ENDBRANCH  19  20
ENDBRANCH  18  19
ENDBRANCH  17  18
BRANCH  17  25
HETATM   25  C           1     -20.589  -8.114  -4.752  0.00  0.00     0.196 C 
HETATM   26  O           1     -19.778  -8.669  -3.979  0.00  0.00    -0.646 OA
HETATM   27  O           1     -21.051  -8.743  -5.728  0.00  0.00    -0.646 OA
ENDBRANCH  17  25
ENDBRANCH   3  17
TORSDOF 9
ENDMDL
MODEL 8
REMARK VINA RESULT:      -7.2      1.981      3.068
REMARK  9 active torsions:
REMARK  status: ('A' for Active; 'I' for Inactive)
REMARK    1  A    between atoms: C_2  and  C_16 
REMARK    2  A    between atoms: C_2  and  C_22 
REMARK    3  A    between atoms: N_8  and  C_19 
REMARK    4  A    between atoms: C_12  and  C_21 
REMARK    5  A    between atoms: N_13  and  C_18 
REMARK       I    between atoms: N_13  and  C_20 
REMARK       I    between atoms: C_16  and  N_23 
REMARK    6  A    between atoms: C_18  and  C_22 
REMARK    7  A    between atoms: C_18  and  C_27 
REMARK    8  A    between atoms: C_19  and  C_20 
REMARK    9  A    between atoms: C_19  and  C_21 
ROOT
HETATM    1  H           1     -21.244  -3.960  -6.511  0.00  0.00     0.163 HD
HETATM    2  O           1     -21.092  -7.055  -7.002  0.00  0.00    -0.271 OA
HETATM    3  N           1     -21.277  -4.829  -7.027  0.00  0.00    -0.345 N 
HETATM    4  C           1     -21.053  -6.017  -6.384  0.00  0.00     0.249 C 
ENDROOT
BRANCH   4   5
HETATM    5  C           1     -20.759  -6.031  -4.905  0.00  0.00     0.278 C 
BRANCH   5   6
HETATM    6  N           1     -20.188  -4.704  -4.497  0.00  0.00    -0.066 N 
HETATM    7  H           1     -20.296  -4.582  -3.466  0.00  0.00     0.275 HD
HETATM    8  H           1     -19.175  -4.669  -4.751  0.00  0.00     0.275 HD
HETATM    9  H           1     -20.698  -3.938  -4.993  0.00  0.00     0.275 HD
ENDBRANCH   5   6
BRANCH   5  10
HETATM   10  C           1     -22.046  -6.287  -4.133  0.00  0.00     0.081 C 
BRANCH  10  11
HETATM   11  C           1     -21.727  -6.962  -2.836  0.00  0.00    -0.056 A 
HETATM   12  C           1     -20.778  -7.985  -2.798  0.00  0.00     0.007 A 
HETATM   13  C           1     -20.480  -8.614  -1.589  0.00  0.00     0.001 A 
HETATM   14  C           1     -21.131  -8.222  -0.419  0.00  0.00     0.000 A 
HETATM   15  C           1     -22.079  -7.199  -0.458  0.00  0.00     0.001 A 
HETATM   16  C           1     -22.377  -6.570  -1.666  0.00  0.00     0.007 A 
ENDBRANCH  10  11
ENDBRANCH   5  10
ENDBRANCH   4   5
BRANCH   3  17
HETATM   17  C           1     -21.560  -4.817  -8.450  0.00  0.00     0.186 C 
BRANCH  17  18
HETATM   18  C           1     -22.714  -3.865  -8.731  0.00  0.00     0.045 C 
BRANCH  18  19
HETATM   19  C           1     -23.753  -4.569  -9.595  0.00  0.00     0.105 C 
BRANCH  19  20
HETATM   20  C           1     -24.546  -3.543 -10.367  0.00  0.00     0.215 C 
HETATM   21  O           1     -25.618  -3.172  -9.955  0.00  0.00    -0.274 OA
HETATM   22  N           1     -24.048  -3.033 -11.536  0.00  0.00    -0.370 N 
HETATM   23  H           1     -23.148  -3.344 -11.882  0.00  0.00     0.159 HD
HETATM   24  H           1     -24.578  -2.345 -12.055  0.00  0.00     0.159 HD
ENDBRANCH  19  20
ENDBRANCH  18  19
ENDBRANCH  17  18
BRANCH  17  25
HETATM   25  C           1     -20.335  -4.356  -9.201  0.00  0.00     0.196 C 
HETATM   26  O           1     -19.391  -3.814  -8.585  0.00  0.00    -0.646 OA
HETATM   27  O           1     -20.262  -4.516 -10.438  0.00  0.00    -0.646 OA
ENDBRANCH  17  25
ENDBRANCH   3  17
TORSDOF 9
ENDMDL
MODEL 9
REMARK VINA RESULT:      -6.8      3.924      8.079
REMARK  9 active torsions:
REMARK  status: ('A' for Active; 'I' for Inactive)
REMARK    1  A    between atoms: C_2  and  C_16 
REMARK    2  A    between atoms: C_2  and  C_22 
REMARK    3  A    between atoms: N_8  and  C_19 
REMARK    4  A    between atoms: C_12  and  C_21 
REMARK    5  A    between atoms: N_13  and  C_18 
REMARK       I    between atoms: N_13  and  C_20 
REMARK       I    between atoms: C_16  and  N_23 
REMARK    6  A    between atoms: C_18  and  C_22 
REMARK    7  A    between atoms: C_18  and  C_27 
REMARK    8  A    between atoms: C_19  and  C_20 
REMARK    9  A    between atoms: C_19  and  C_21 
ROOT
HETATM    1  H           1     -20.726  -5.556  -3.471  0.00  0.00     0.163 HD
HETATM    2  O           1     -21.697  -7.547  -5.693  0.00  0.00    -0.271 OA
HETATM    3  N           1     -21.070  -6.420  -3.869  0.00  0.00    -0.345 N 
HETATM    4  C           1     -21.286  -6.515  -5.218  0.00  0.00     0.249 C 
ENDROOT
BRANCH   4   5
HETATM    5  C           1     -21.007  -5.331  -6.112  0.00  0.00     0.278 C 
BRANCH   5   6
HETATM    6  N           1     -20.056  -4.398  -5.422  0.00  0.00    -0.066 N 
HETATM    7  H           1     -19.265  -4.946  -5.016  0.00  0.00     0.275 HD
HETATM    8  H           1     -19.685  -3.707  -6.112  0.00  0.00     0.275 HD
HETATM    9  H           1     -20.557  -3.893  -4.657  0.00  0.00     0.275 HD
ENDBRANCH   5   6
BRANCH   5  10
HETATM   10  C           1     -20.388  -5.814  -7.416  0.00  0.00     0.081 C 
BRANCH  10  11
HETATM   11  C           1     -20.919  -4.998  -8.554  0.00  0.00    -0.056 A 
HETATM   12  C           1     -22.224  -4.508  -8.510  0.00  0.00     0.007 A 
HETATM   13  C           1     -22.719  -3.748  -9.571  0.00  0.00     0.001 A 
HETATM   14  C           1     -21.909  -3.479 -10.674  0.00  0.00     0.000 A 
HETATM   15  C           1     -20.604  -3.970 -10.717  0.00  0.00     0.001 A 
HETATM   16  C           1     -20.109  -4.729  -9.657  0.00  0.00     0.007 A 
ENDBRANCH  10  11
ENDBRANCH   5  10
ENDBRANCH   4   5
BRANCH   3  17
HETATM   17  C           1     -21.338  -7.558  -3.011  0.00  0.00     0.186 C 
BRANCH  17  18
HETATM   18  C           1     -20.025  -8.235  -2.639  0.00  0.00     0.045 C 
BRANCH  18  19
HETATM   19  C           1     -19.860  -9.507  -3.460  0.00  0.00     0.105 C 
BRANCH  19  20
HETATM   20  C           1     -18.703  -9.345  -4.415  0.00  0.00     0.215 C 
HETATM   21  O           1     -17.569  -9.461  -4.015  0.00  0.00    -0.274 OA
HETATM   22  N           1     -18.939  -9.068  -5.734  0.00  0.00    -0.370 N 
HETATM   23  H           1     -19.890  -8.972  -6.069  0.00  0.00     0.159 HD
HETATM   24  H           1     -18.164  -8.959  -6.375  0.00  0.00     0.159 HD
ENDBRANCH  19  20
ENDBRANCH  18  19
ENDBRANCH  17  18
BRANCH  17  25
HETATM   25  C           1     -22.033  -7.088  -1.757  0.00  0.00     0.196 C 
HETATM   26  O           1     -22.602  -5.975  -1.738  0.00  0.00    -0.646 OA
HETATM   27  O           1     -22.042  -7.811  -0.738  0.00  0.00    -0.646 OA
ENDBRANCH  17  25
ENDBRANCH   3  17
TORSDOF 9
ENDMDL
