MODEL 1
REMARK VINA RESULT:      -5.8      0.000      0.000
REMARK  7 active torsions:
REMARK  status: ('A' for Active; 'I' for Inactive)
REMARK    1  A    between atoms: C_2  and  C_14 
REMARK    2  A    between atoms: C_2  and  S_3 
REMARK    3  A    between atoms: N_4  and  C_14 
REMARK    4  A    between atoms: C_7  and  C_12 
REMARK    5  A    between atoms: C_12  and  C_19 
REMARK    6  A    between atoms: C_12  and  N_16 
REMARK    7  A    between atoms: C_14  and  C_15 
REMARK       I    between atoms: C_15  and  N_16 
ROOT
HETATM    1  H           1     -22.170  -5.806  -9.209  0.00  0.00     0.163 HD
HETATM    2  O           1     -21.573  -3.441  -7.236  0.00  0.00    -0.271 OA
HETATM    3  C           1     -21.615  -4.580  -7.637  0.00  0.00     0.249 C 
HETATM    4  N           1     -22.134  -4.852  -8.874  0.00  0.00    -0.344 N 
ENDROOT
BRANCH   3   5
HETATM    5  C           1     -21.098  -5.704  -6.772  0.00  0.00     0.283 C 
BRANCH   5   6
HETATM    6  C           1     -20.727  -5.159  -5.398  0.00  0.00     0.113 C 
BRANCH   6   7
HETATM    7  S           1     -21.380  -6.263  -4.114  0.00  0.00    -0.180 SA
HETATM    8  H           1     -22.084  -7.047  -4.948  0.00  0.00     0.101 HD
ENDBRANCH   6   7
ENDBRANCH   5   6
BRANCH   5   9
HETATM    9  N           1     -19.885  -6.309  -7.413  0.00  0.00    -0.066 N 
HETATM   10  H           1     -19.847  -6.033  -8.420  0.00  0.00     0.275 HD
HETATM   11  H           1     -19.026  -5.966  -6.926  0.00  0.00     0.275 HD
HETATM   12  H           1     -19.935  -7.351  -7.339  0.00  0.00     0.275 HD
ENDBRANCH   5   9
ENDBRANCH   3   5
BRANCH   4  13
HETATM   13  C           1     -22.631  -3.773  -9.705  0.00  0.00     0.189 C 
BRANCH  13  14
HETATM   14  C           1     -22.069  -3.917 -11.113  0.00  0.00     0.010 C 
HETATM   15  C           1     -22.494  -2.719 -11.953  0.00  0.00     0.012 C 
HETATM   16  C           1     -20.548  -3.979 -11.048  0.00  0.00     0.012 C 
ENDBRANCH  13  14
BRANCH  13  17
HETATM   17  C           1     -24.137  -3.831  -9.755  0.00  0.00     0.197 C 
HETATM   18  O           1     -24.712  -4.894 -10.074  0.00  0.00    -0.646 OA
HETATM   19  O           1     -24.812  -2.815  -9.479  0.00  0.00    -0.646 OA
ENDBRANCH  13  17
ENDBRANCH   4  13
TORSDOF 7
ENDMDL
MODEL 2
REMARK VINA RESULT:      -5.0      3.274      5.274
REMARK  7 active torsions:
REMARK  status: ('A' for Active; 'I' for Inactive)
REMARK    1  A    between atoms: C_2  and  C_14 
REMARK    2  A    between atoms: C_2  and  S_3 
REMARK    3  A    between atoms: N_4  and  C_14 
REMARK    4  A    between atoms: C_7  and  C_12 
REMARK    5  A    between atoms: C_12  and  C_19 
REMARK    6  A    between atoms: C_12  and  N_16 
REMARK    7  A    between atoms: C_14  and  C_15 
REMARK       I    between atoms: C_15  and  N_16 
ROOT
HETATM    1  H           1     -20.417  -3.733  -9.637  0.00  0.00     0.163 HD
HETATM    2  O           1     -23.396  -4.566 -10.159  0.00  0.00    -0.271 OA
HETATM    3  C           1     -22.338  -4.016 -10.354  0.00  0.00     0.249 C 
HETATM    4  N           1     -21.303  -4.193  -9.475  0.00  0.00    -0.344 N 
ENDROOT
BRANCH   3   5
HETATM    5  C           1     -22.157  -3.134 -11.565  0.00  0.00     0.283 C 
BRANCH   5   6
HETATM    6  C           1     -23.517  -2.825 -12.177  0.00  0.00     0.113 C 
BRANCH   6   7
HETATM    7  S           1     -23.350  -2.677 -13.978  0.00  0.00    -0.180 SA
HETATM    8  H           1     -23.179  -1.344 -13.993  0.00  0.00     0.101 HD
ENDBRANCH   6   7
ENDBRANCH   5   6
BRANCH   5   9
HETATM    9  N           1     -21.303  -3.842 -12.575  0.00  0.00    -0.066 N 
HETATM   10  H           1     -20.879  -4.692 -12.140  0.00  0.00     0.275 HD
HETATM   11  H           1     -21.893  -4.126 -13.390  0.00  0.00     0.275 HD
HETATM   12  H           1     -20.544  -3.201 -12.900  0.00  0.00     0.275 HD
ENDBRANCH   5   9
ENDBRANCH   3   5
BRANCH   4  13
HETATM   13  C           1     -21.477  -5.041  -8.311  0.00  0.00     0.189 C 
BRANCH  13  14
HETATM   14  C           1     -20.121  -5.567  -7.860  0.00  0.00     0.010 C 
HETATM   15  C           1     -19.135  -4.410  -7.765  0.00  0.00     0.012 C 
HETATM   16  C           1     -20.263  -6.227  -6.494  0.00  0.00     0.012 C 
ENDBRANCH  13  14
BRANCH  13  17
HETATM   17  C           1     -22.103  -4.240  -7.196  0.00  0.00     0.197 C 
HETATM   18  O           1     -21.611  -3.141  -6.863  0.00  0.00    -0.646 OA
HETATM   19  O           1     -23.115  -4.677  -6.605  0.00  0.00    -0.646 OA
ENDBRANCH  13  17
ENDBRANCH   4  13
TORSDOF 7
ENDMDL
MODEL 3
REMARK VINA RESULT:      -4.9      3.562      5.318
REMARK  7 active torsions:
REMARK  status: ('A' for Active; 'I' for Inactive)
REMARK    1  A    between atoms: C_2  and  C_14 
REMARK    2  A    between atoms: C_2  and  S_3 
REMARK    3  A    between atoms: N_4  and  C_14 
REMARK    4  A    between atoms: C_7  and  C_12 
REMARK    5  A    between atoms: C_12  and  C_19 
REMARK    6  A    between atoms: C_12  and  N_16 
REMARK    7  A    between atoms: C_14  and  C_15 
REMARK       I    between atoms: C_15  and  N_16 
ROOT
HETATM    1  H           1     -21.819  -3.181 -10.600  0.00  0.00     0.163 HD
HETATM    2  O           1     -23.832  -5.587 -10.596  0.00  0.00    -0.271 OA
HETATM    3  C           1     -23.302  -4.573 -10.983  0.00  0.00     0.249 C 
HETATM    4  N           1     -22.263  -4.030 -10.276  0.00  0.00    -0.344 N 
ENDROOT
BRANCH   3   5
HETATM    5  C           1     -23.785  -3.903 -12.246  0.00  0.00     0.283 C 
BRANCH   5   6
HETATM    6  C           1     -22.702  -2.972 -12.775  0.00  0.00     0.113 C 
BRANCH   6   7
HETATM    7  S           1     -23.024  -2.599 -14.521  0.00  0.00    -0.180 SA
HETATM    8  H           1     -23.891  -3.607 -14.722  0.00  0.00     0.101 HD
ENDBRANCH   6   7
ENDBRANCH   5   6
BRANCH   5   9
HETATM    9  N           1     -25.024  -3.111 -11.949  0.00  0.00    -0.066 N 
HETATM   10  H           1     -25.177  -2.406 -12.704  0.00  0.00     0.275 HD
HETATM   11  H           1     -25.846  -3.755 -11.903  0.00  0.00     0.275 HD
HETATM   12  H           1     -24.912  -2.622 -11.032  0.00  0.00     0.275 HD
ENDBRANCH   5   9
ENDBRANCH   3   5
BRANCH   4  13
HETATM   13  C           1     -21.798  -4.673  -9.062  0.00  0.00     0.189 C 
BRANCH  13  14
HETATM   14  C           1     -20.280  -4.586  -8.991  0.00  0.00     0.010 C 
HETATM   15  C           1     -19.760  -5.601  -7.982  0.00  0.00     0.012 C 
HETATM   16  C           1     -19.690  -4.885 -10.364  0.00  0.00     0.012 C 
ENDBRANCH  13  14
BRANCH  13  17
HETATM   17  C           1     -22.399  -3.979  -7.865  0.00  0.00     0.197 C 
HETATM   18  O           1     -23.517  -4.332  -7.434  0.00  0.00    -0.646 OA
HETATM   19  O           1     -21.777  -3.051  -7.303  0.00  0.00    -0.646 OA
ENDBRANCH  13  17
ENDBRANCH   4  13
TORSDOF 7
ENDMDL
MODEL 4
REMARK VINA RESULT:      -4.6     17.770     19.097
REMARK  7 active torsions:
REMARK  status: ('A' for Active; 'I' for Inactive)
REMARK    1  A    between atoms: C_2  and  C_14 
REMARK    2  A    between atoms: C_2  and  S_3 
REMARK    3  A    between atoms: N_4  and  C_14 
REMARK    4  A    between atoms: C_7  and  C_12 
REMARK    5  A    between atoms: C_12  and  C_19 
REMARK    6  A    between atoms: C_12  and  N_16 
REMARK    7  A    between atoms: C_14  and  C_15 
REMARK       I    between atoms: C_15  and  N_16 
ROOT
HETATM    1  H           1     -12.260   5.899 -19.125  0.00  0.00     0.163 HD
HETATM    2  O           1     -12.327   7.417 -21.870  0.00  0.00    -0.271 OA
HETATM    3  C           1     -12.072   7.223 -20.706  0.00  0.00     0.249 C 
HETATM    4  N           1     -12.473   6.061 -20.101  0.00  0.00    -0.344 N 
ENDROOT
BRANCH   3   5
HETATM    5  C           1     -11.313   8.261 -19.916  0.00  0.00     0.283 C 
BRANCH   5   6
HETATM    6  C           1     -10.845   9.369 -20.851  0.00  0.00     0.113 C 
BRANCH   6   7
HETATM    7  S           1      -9.103   9.099 -21.284  0.00  0.00    -0.180 SA
HETATM    8  H           1      -8.593   9.731 -20.212  0.00  0.00     0.101 HD
ENDBRANCH   6   7
ENDBRANCH   5   6
BRANCH   5   9
HETATM    9  N           1     -10.124   7.622 -19.264  0.00  0.00    -0.066 N 
HETATM   10  H           1      -9.255   7.896 -19.776  0.00  0.00     0.275 HD
HETATM   11  H           1     -10.057   7.941 -18.271  0.00  0.00     0.275 HD
HETATM   12  H           1     -10.229   6.582 -19.289  0.00  0.00     0.275 HD
ENDBRANCH   5   9
ENDBRANCH   3   5
BRANCH   4  13
HETATM   13  C           1     -13.202   5.064 -20.860  0.00  0.00     0.189 C 
BRANCH  13  14
HETATM   14  C           1     -12.769   3.673 -20.415  0.00  0.00     0.010 C 
HETATM   15  C           1     -13.297   2.639 -21.401  0.00  0.00     0.012 C 
HETATM   16  C           1     -11.248   3.604 -20.373  0.00  0.00     0.012 C 
ENDBRANCH  13  14
BRANCH  13  17
HETATM   17  C           1     -14.682   5.232 -20.619  0.00  0.00     0.197 C 
HETATM   18  O           1     -15.460   5.375 -21.585  0.00  0.00    -0.646 OA
HETATM   19  O           1     -15.129   5.228 -19.451  0.00  0.00    -0.646 OA
ENDBRANCH  13  17
ENDBRANCH   4  13
TORSDOF 7
ENDMDL
MODEL 5
REMARK VINA RESULT:      -4.5      3.882      6.698
REMARK  7 active torsions:
REMARK  status: ('A' for Active; 'I' for Inactive)
REMARK    1  A    between atoms: C_2  and  C_14 
REMARK    2  A    between atoms: C_2  and  S_3 
REMARK    3  A    between atoms: N_4  and  C_14 
REMARK    4  A    between atoms: C_7  and  C_12 
REMARK    5  A    between atoms: C_12  and  C_19 
REMARK    6  A    between atoms: C_12  and  N_16 
REMARK    7  A    between atoms: C_14  and  C_15 
REMARK       I    between atoms: C_15  and  N_16 
ROOT
HETATM    1  H           1     -19.766  -6.758  -4.634  0.00  0.00     0.163 HD
HETATM    2  O           1     -22.618  -5.837  -5.560  0.00  0.00    -0.271 OA
HETATM    3  C           1     -21.411  -5.883  -5.535  0.00  0.00     0.249 C 
HETATM    4  N           1     -20.777  -6.720  -4.656  0.00  0.00    -0.344 N 
ENDROOT
BRANCH   3   5
HETATM    5  C           1     -20.603  -5.019  -6.471  0.00  0.00     0.283 C 
BRANCH   5   6
HETATM    6  C           1     -21.512  -3.983  -7.119  0.00  0.00     0.113 C 
BRANCH   6   7
HETATM    7  S           1     -21.753  -4.399  -8.869  0.00  0.00    -0.180 SA
HETATM    8  H           1     -21.832  -5.729  -8.686  0.00  0.00     0.101 HD
ENDBRANCH   6   7
ENDBRANCH   5   6
BRANCH   5   9
HETATM    9  N           1     -19.985  -5.876  -7.535  0.00  0.00    -0.066 N 
HETATM   10  H           1     -19.018  -6.148  -7.247  0.00  0.00     0.275 HD
HETATM   11  H           1     -20.562  -6.738  -7.667  0.00  0.00     0.275 HD
HETATM   12  H           1     -19.945  -5.343  -8.432  0.00  0.00     0.275 HD
ENDBRANCH   5   9
ENDBRANCH   3   5
BRANCH   4  13
HETATM   13  C           1     -21.554  -7.550  -3.756  0.00  0.00     0.189 C 
BRANCH  13  14
HETATM   14  C           1     -20.898  -8.919  -3.637  0.00  0.00     0.010 C 
HETATM   15  C           1     -21.934 -10.003  -3.903  0.00  0.00     0.012 C 
HETATM   16  C           1     -19.771  -9.033  -4.656  0.00  0.00     0.012 C 
ENDBRANCH  13  14
BRANCH  13  17
HETATM   17  C           1     -21.612  -6.900  -2.396  0.00  0.00     0.197 C 
HETATM   18  O           1     -22.307  -5.876  -2.222  0.00  0.00    -0.646 OA
HETATM   19  O           1     -20.965  -7.386  -1.443  0.00  0.00    -0.646 OA
ENDBRANCH  13  17
ENDBRANCH   4  13
TORSDOF 7
ENDMDL
MODEL 6
REMARK VINA RESULT:      -4.4      2.175      2.732
REMARK  7 active torsions:
REMARK  status: ('A' for Active; 'I' for Inactive)
REMARK    1  A    between atoms: C_2  and  C_14 
REMARK    2  A    between atoms: C_2  and  S_3 
REMARK    3  A    between atoms: N_4  and  C_14 
REMARK    4  A    between atoms: C_7  and  C_12 
REMARK    5  A    between atoms: C_12  and  C_19 
REMARK    6  A    between atoms: C_12  and  N_16 
REMARK    7  A    between atoms: C_14  and  C_15 
REMARK       I    between atoms: C_15  and  N_16 
ROOT
HETATM    1  H           1     -22.562  -2.949  -8.644  0.00  0.00     0.163 HD
HETATM    2  O           1     -21.153  -5.752  -8.589  0.00  0.00    -0.271 OA
HETATM    3  C           1     -21.620  -4.726  -8.154  0.00  0.00     0.249 C 
HETATM    4  N           1     -22.171  -3.809  -9.008  0.00  0.00    -0.344 N 
ENDROOT
BRANCH   3   5
HETATM    5  C           1     -21.594  -4.455  -6.670  0.00  0.00     0.283 C 
BRANCH   5   6
HETATM    6  C           1     -20.295  -4.988  -6.078  0.00  0.00     0.113 C 
BRANCH   6   7
HETATM    7  S           1     -20.625  -6.536  -5.190  0.00  0.00    -0.180 SA
HETATM    8  H           1     -20.970  -5.959  -4.026  0.00  0.00     0.101 HD
ENDBRANCH   6   7
ENDBRANCH   5   6
BRANCH   5   9
HETATM    9  N           1     -22.758  -5.139  -6.017  0.00  0.00    -0.066 N 
HETATM   10  H           1     -22.516  -6.138  -5.829  0.00  0.00     0.275 HD
HETATM   11  H           1     -22.982  -4.660  -5.115  0.00  0.00     0.275 HD
HETATM   12  H           1     -23.588  -5.094  -6.650  0.00  0.00     0.275 HD
ENDBRANCH   5   9
ENDBRANCH   3   5
BRANCH   4  13
HETATM   13  C           1     -22.196  -4.069 -10.434  0.00  0.00     0.189 C 
BRANCH  13  14
HETATM   14  C           1     -23.395  -3.367 -11.057  0.00  0.00     0.010 C 
HETATM   15  C           1     -23.765  -4.059 -12.362  0.00  0.00     0.012 C 
HETATM   16  C           1     -24.575  -3.431 -10.096  0.00  0.00     0.012 C 
ENDBRANCH  13  14
BRANCH  13  17
HETATM   17  C           1     -20.927  -3.549 -11.062  0.00  0.00     0.197 C 
HETATM   18  O           1     -19.969  -4.324 -11.271  0.00  0.00    -0.646 OA
HETATM   19  O           1     -20.832  -2.341 -11.373  0.00  0.00    -0.646 OA
ENDBRANCH  13  17
ENDBRANCH   4  13
TORSDOF 7
ENDMDL
MODEL 7
REMARK VINA RESULT:      -4.4      6.477      8.891
REMARK  7 active torsions:
REMARK  status: ('A' for Active; 'I' for Inactive)
REMARK    1  A    between atoms: C_2  and  C_14 
REMARK    2  A    between atoms: C_2  and  S_3 
REMARK    3  A    between atoms: N_4  and  C_14 
REMARK    4  A    between atoms: C_7  and  C_12 
REMARK    5  A    between atoms: C_12  and  C_19 
REMARK    6  A    between atoms: C_12  and  N_16 
REMARK    7  A    between atoms: C_14  and  C_15 
REMARK       I    between atoms: C_15  and  N_16 
ROOT
HETATM    1  H           1     -22.359  -8.457  -3.152  0.00  0.00     0.163 HD
HETATM    2  O           1     -19.285  -8.984  -2.812  0.00  0.00    -0.271 OA
HETATM    3  C           1     -20.316  -8.700  -3.375  0.00  0.00     0.249 C 
HETATM    4  N           1     -21.496  -8.695  -2.681  0.00  0.00    -0.344 N 
ENDROOT
BRANCH   3   5
HETATM    5  C           1     -20.303  -8.351  -4.843  0.00  0.00     0.283 C 
BRANCH   5   6
HETATM    6  C           1     -21.486  -7.447  -5.162  0.00  0.00     0.113 C 
BRANCH   6   7
HETATM    7  S           1     -20.926  -5.723  -5.242  0.00  0.00    -0.180 SA
HETATM    8  H           1     -22.116  -5.205  -5.593  0.00  0.00     0.101 HD
ENDBRANCH   6   7
ENDBRANCH   5   6
BRANCH   5   9
HETATM    9  N           1     -20.402  -9.608  -5.655  0.00  0.00    -0.066 N 
HETATM   10  H           1     -19.882 -10.377  -5.175  0.00  0.00     0.275 HD
HETATM   11  H           1     -21.406  -9.879  -5.757  0.00  0.00     0.275 HD
HETATM   12  H           1     -19.987  -9.445  -6.601  0.00  0.00     0.275 HD
ENDBRANCH   5   9
ENDBRANCH   3   5
BRANCH   4  13
HETATM   13  C           1     -21.509  -9.030  -1.270  0.00  0.00     0.189 C 
BRANCH  13  14
HETATM   14  C           1     -22.414  -8.057  -0.526  0.00  0.00     0.010 C 
HETATM   15  C           1     -22.012  -8.011   0.942  0.00  0.00     0.012 C 
HETATM   16  C           1     -22.275  -6.668  -1.135  0.00  0.00     0.012 C 
ENDBRANCH  13  14
BRANCH  13  17
HETATM   17  C           1     -22.027 -10.436  -1.092  0.00  0.00     0.197 C 
HETATM   18  O           1     -21.251 -11.347  -0.733  0.00  0.00    -0.646 OA
HETATM   19  O           1     -23.233 -10.689  -1.304  0.00  0.00    -0.646 OA
ENDBRANCH  13  17
ENDBRANCH   4  13
TORSDOF 7
ENDMDL
MODEL 8
REMARK VINA RESULT:      -4.3      3.910      6.332
REMARK  7 active torsions:
REMARK  status: ('A' for Active; 'I' for Inactive)
REMARK    1  A    between atoms: C_2  and  C_14 
REMARK    2  A    between atoms: C_2  and  S_3 
REMARK    3  A    between atoms: N_4  and  C_14 
REMARK    4  A    between atoms: C_7  and  C_12 
REMARK    5  A    between atoms: C_12  and  C_19 
REMARK    6  A    between atoms: C_12  and  N_16 
REMARK    7  A    between atoms: C_14  and  C_15 
REMARK       I    between atoms: C_15  and  N_16 
ROOT
HETATM    1  H           1     -22.368  -6.167  -5.734  0.00  0.00     0.163 HD
HETATM    2  O           1     -19.557  -4.779  -5.853  0.00  0.00    -0.271 OA
HETATM    3  C           1     -20.729  -4.955  -6.089  0.00  0.00     0.249 C 
HETATM    4  N           1     -21.388  -6.020  -5.535  0.00  0.00    -0.344 N 
ENDROOT
BRANCH   3   5
HETATM    5  C           1     -21.467  -4.002  -6.997  0.00  0.00     0.283 C 
BRANCH   5   6
HETATM    6  C           1     -22.872  -4.530  -7.257  0.00  0.00     0.113 C 
BRANCH   6   7
HETATM    7  S           1     -23.388  -4.078  -8.937  0.00  0.00    -0.180 SA
HETATM    8  H           1     -23.023  -2.787  -8.852  0.00  0.00     0.101 HD
ENDBRANCH   6   7
ENDBRANCH   5   6
BRANCH   5   9
HETATM    9  N           1     -20.730  -3.880  -8.298  0.00  0.00    -0.066 N 
HETATM   10  H           1     -20.241  -4.780  -8.508  0.00  0.00     0.275 HD
HETATM   11  H           1     -21.409  -3.667  -9.064  0.00  0.00     0.275 HD
HETATM   12  H           1     -20.028  -3.109  -8.230  0.00  0.00     0.275 HD
ENDBRANCH   5   9
ENDBRANCH   3   5
BRANCH   4  13
HETATM   13  C           1     -20.679  -6.936  -4.663  0.00  0.00     0.189 C 
BRANCH  13  14
HETATM   14  C           1     -21.558  -7.281  -3.469  0.00  0.00     0.010 C 
HETATM   15  C           1     -20.864  -8.336  -2.617  0.00  0.00     0.012 C 
HETATM   16  C           1     -21.793  -6.029  -2.634  0.00  0.00     0.012 C 
ENDBRANCH  13  14
BRANCH  13  17
HETATM   17  C           1     -20.345  -8.196  -5.423  0.00  0.00     0.197 C 
HETATM   18  O           1     -19.152  -8.528  -5.591  0.00  0.00    -0.646 OA
HETATM   19  O           1     -21.263  -8.909  -5.885  0.00  0.00    -0.646 OA
ENDBRANCH  13  17
ENDBRANCH   4  13
TORSDOF 7
ENDMDL
MODEL 9
REMARK VINA RESULT:      -4.3      3.082      5.423
REMARK  7 active torsions:
REMARK  status: ('A' for Active; 'I' for Inactive)
REMARK    1  A    between atoms: C_2  and  C_14 
REMARK    2  A    between atoms: C_2  and  S_3 
REMARK    3  A    between atoms: N_4  and  C_14 
REMARK    4  A    between atoms: C_7  and  C_12 
REMARK    5  A    between atoms: C_12  and  C_19 
REMARK    6  A    between atoms: C_12  and  N_16 
REMARK    7  A    between atoms: C_14  and  C_15 
REMARK       I    between atoms: C_15  and  N_16 
ROOT
HETATM    1  H           1     -22.507  -6.133  -8.837  0.00  0.00     0.163 HD
HETATM    2  O           1     -23.039  -3.041  -8.844  0.00  0.00    -0.271 OA
HETATM    3  C           1     -23.199  -4.204  -9.129  0.00  0.00     0.249 C 
HETATM    4  N           1     -22.374  -5.159  -8.597  0.00  0.00    -0.344 N 
ENDROOT
BRANCH   3   5
HETATM    5  C           1     -24.307  -4.604 -10.071  0.00  0.00     0.283 C 
BRANCH   5   6
HETATM    6  C           1     -23.779  -4.618 -11.500  0.00  0.00     0.113 C 
BRANCH   6   7
HETATM    7  S           1     -24.269  -3.087 -12.341  0.00  0.00    -0.180 SA
HETATM    8  H           1     -24.689  -2.448 -11.235  0.00  0.00     0.101 HD
ENDBRANCH   6   7
ENDBRANCH   5   6
BRANCH   5   9
HETATM    9  N           1     -25.433  -3.620  -9.965  0.00  0.00    -0.066 N 
HETATM   10  H           1     -25.774  -3.585  -8.978  0.00  0.00     0.275 HD
HETATM   11  H           1     -25.096  -2.673 -10.250  0.00  0.00     0.275 HD
HETATM   12  H           1     -26.214  -3.916 -10.593  0.00  0.00     0.275 HD
ENDBRANCH   5   9
ENDBRANCH   3   5
BRANCH   4  13
HETATM   13  C           1     -21.309  -4.774  -7.691  0.00  0.00     0.189 C 
BRANCH  13  14
HETATM   14  C           1     -21.014  -5.925  -6.739  0.00  0.00     0.010 C 
HETATM   15  C           1     -19.696  -5.663  -6.021  0.00  0.00     0.012 C 
HETATM   16  C           1     -22.136  -6.036  -5.715  0.00  0.00     0.012 C 
ENDBRANCH  13  14
BRANCH  13  17
HETATM   17  C           1     -20.068  -4.447  -8.485  0.00  0.00     0.197 C 
HETATM   18  O           1     -19.325  -3.509  -8.125  0.00  0.00    -0.646 OA
HETATM   19  O           1     -19.783  -5.114  -9.503  0.00  0.00    -0.646 OA
ENDBRANCH  13  17
ENDBRANCH   4  13
TORSDOF 7
ENDMDL
