MODEL 1
REMARK VINA RESULT:      -6.7      0.000      0.000
REMARK  9 active torsions:
REMARK  status: ('A' for Active; 'I' for Inactive)
REMARK    1  A    between atoms: C_1  and  Se_10 
REMARK    2  A    between atoms: C_1  and  C_21 
REMARK    3  A    between atoms: C_4  and  O_20 
REMARK    4  A    between atoms: C_7  and  C_24 
REMARK    5  A    between atoms: N_9  and  C_21 
REMARK       I    between atoms: N_9  and  C_25 
REMARK    6  A    between atoms: N_12  and  C_23 
REMARK    7  A    between atoms: C_14  and  C_21 
REMARK    8  A    between atoms: C_23  and  C_25 
REMARK    9  A    between atoms: C_23  and  C_24 
ROOT
HETATM    1  C           1     -22.211  -5.130  -6.950  0.00  0.00     0.278 C 
ENDROOT
BRANCH   1   2
HETATM    2  N           1     -23.590  -4.884  -6.413  0.00  0.00    -0.066 N 
HETATM    3  H           1     -24.270  -4.839  -7.205  0.00  0.00     0.275 HD
HETATM    4  H           1     -23.857  -5.664  -5.770  0.00  0.00     0.275 HD
HETATM    5  H           1     -23.604  -3.980  -5.889  0.00  0.00     0.275 HD
ENDBRANCH   1   2
BRANCH   1   6
HETATM    6  C           1     -21.337  -5.689  -5.853  0.00  0.00     0.249 C 
HETATM    7  O           1     -20.501  -4.991  -5.333  0.00  0.00    -0.271 OA
HETATM    8  N           1     -21.494  -6.987  -5.449  0.00  0.00    -0.345 N 
HETATM    9  H           1     -22.196  -7.572  -5.886  0.00  0.00     0.163 HD
BRANCH   8  10
HETATM   10  C           1     -20.655  -7.525  -4.396  0.00  0.00     0.185 C 
BRANCH  10  11
HETATM   11  C           1     -21.521  -7.919  -3.207  0.00  0.00     0.039 C 
BRANCH  11  12
HETATM   12 Se           1     -21.940  -6.334  -2.153  0.00  0.00     0.000 Se
HETATM   13  H           1     -22.476  -7.092  -1.012  0.00  0.00     0.000 HD
ENDBRANCH  11  12
ENDBRANCH  10  11
BRANCH  10  14
HETATM   14  C           1     -19.922  -8.741  -4.909  0.00  0.00     0.196 C 
HETATM   15  O           1     -18.747  -8.962  -4.545  0.00  0.00    -0.646 OA
HETATM   16  O           1     -20.490  -9.525  -5.700  0.00  0.00    -0.646 OA
ENDBRANCH  10  14
ENDBRANCH   8  10
ENDBRANCH   1   6
BRANCH   1  17
HETATM   17  C           1     -21.621  -3.818  -7.451  0.00  0.00     0.081 C 
BRANCH  17  18
HETATM   18  C           1     -21.660  -3.791  -8.946  0.00  0.00    -0.056 A 
HETATM   19  C           1     -20.500  -4.039  -9.680  0.00  0.00     0.010 A 
HETATM   20  C           1     -20.537  -4.014 -11.073  0.00  0.00     0.037 A 
HETATM   21  C           1     -21.734  -3.741 -11.734  0.00  0.00     0.065 A 
HETATM   22  C           1     -22.895  -3.492 -11.002  0.00  0.00     0.037 A 
HETATM   23  C           1     -22.857  -3.518  -9.608  0.00  0.00     0.010 A 
BRANCH  21  24
HETATM   24  O           1     -21.770  -3.716 -13.089  0.00  0.00    -0.361 OA
HETATM   25  H           1     -22.188  -4.538 -13.395  0.00  0.00     0.217 HD
ENDBRANCH  21  24
ENDBRANCH  17  18
ENDBRANCH   1  17
TORSDOF 9
ENDMDL
MODEL 2
REMARK VINA RESULT:      -6.6     14.053     17.035
REMARK  9 active torsions:
REMARK  status: ('A' for Active; 'I' for Inactive)
REMARK    1  A    between atoms: C_1  and  Se_10 
REMARK    2  A    between atoms: C_1  and  C_21 
REMARK    3  A    between atoms: C_4  and  O_20 
REMARK    4  A    between atoms: C_7  and  C_24 
REMARK    5  A    between atoms: N_9  and  C_21 
REMARK       I    between atoms: N_9  and  C_25 
REMARK    6  A    between atoms: N_12  and  C_23 
REMARK    7  A    between atoms: C_14  and  C_21 
REMARK    8  A    between atoms: C_23  and  C_25 
REMARK    9  A    between atoms: C_23  and  C_24 
ROOT
HETATM    1  C           1     -36.022  -0.440 -11.344  0.00  0.00     0.278 C 
ENDROOT
BRANCH   1   2
HETATM    2  N           1     -36.426   0.758 -10.536  0.00  0.00    -0.066 N 
HETATM    3  H           1     -37.245   0.512  -9.935  0.00  0.00     0.275 HD
HETATM    4  H           1     -35.628   1.054  -9.930  0.00  0.00     0.275 HD
HETATM    5  H           1     -36.686   1.540 -11.178  0.00  0.00     0.275 HD
ENDBRANCH   1   2
BRANCH   1   6
HETATM    6  C           1     -36.829  -0.482 -12.618  0.00  0.00     0.249 C 
HETATM    7  O           1     -38.028  -0.613 -12.569  0.00  0.00    -0.271 OA
HETATM    8  N           1     -36.202  -0.370 -13.829  0.00  0.00    -0.345 N 
HETATM    9  H           1     -35.196  -0.260 -13.870  0.00  0.00     0.163 HD
BRANCH   8  10
HETATM   10  C           1     -36.977  -0.411 -15.054  0.00  0.00     0.185 C 
BRANCH  10  11
HETATM   11  C           1     -37.337   1.007 -15.475  0.00  0.00     0.039 C 
BRANCH  11  12
HETATM   12 Se           1     -35.708   2.059 -15.677  0.00  0.00     0.000 Se
HETATM   13  H           1     -35.798   2.669 -14.341  0.00  0.00     0.000 HD
ENDBRANCH  11  12
ENDBRANCH  10  11
BRANCH  10  14
HETATM   14  C           1     -36.163  -1.067 -16.142  0.00  0.00     0.196 C 
HETATM   15  O           1     -36.502  -0.941 -17.339  0.00  0.00    -0.646 OA
HETATM   16  O           1     -35.151  -1.738 -15.847  0.00  0.00    -0.646 OA
ENDBRANCH  10  14
ENDBRANCH   8  10
ENDBRANCH   1   6
BRANCH   1  17
HETATM   17  C           1     -36.279  -1.706 -10.537  0.00  0.00     0.081 C 
BRANCH  17  18
HETATM   18  C           1     -35.228  -2.723 -10.855  0.00  0.00    -0.056 A 
HETATM   19  C           1     -35.551  -4.080 -10.867  0.00  0.00     0.010 A 
HETATM   20  C           1     -34.573  -5.028 -11.163  0.00  0.00     0.037 A 
HETATM   21  C           1     -33.270  -4.619 -11.449  0.00  0.00     0.065 A 
HETATM   22  C           1     -32.946  -3.263 -11.437  0.00  0.00     0.037 A 
HETATM   23  C           1     -33.925  -2.315 -11.140  0.00  0.00     0.010 A 
BRANCH  21  24
HETATM   24  O           1     -32.319  -5.540 -11.736  0.00  0.00    -0.361 OA
HETATM   25  H           1     -31.449  -5.127 -11.601  0.00  0.00     0.217 HD
ENDBRANCH  21  24
ENDBRANCH  17  18
ENDBRANCH   1  17
TORSDOF 9
ENDMDL
MODEL 3
REMARK VINA RESULT:      -6.5      3.116      7.380
REMARK  9 active torsions:
REMARK  status: ('A' for Active; 'I' for Inactive)
REMARK    1  A    between atoms: C_1  and  Se_10 
REMARK    2  A    between atoms: C_1  and  C_21 
REMARK    3  A    between atoms: C_4  and  O_20 
REMARK    4  A    between atoms: C_7  and  C_24 
REMARK    5  A    between atoms: N_9  and  C_21 
REMARK       I    between atoms: N_9  and  C_25 
REMARK    6  A    between atoms: N_12  and  C_23 
REMARK    7  A    between atoms: C_14  and  C_21 
REMARK    8  A    between atoms: C_23  and  C_25 
REMARK    9  A    between atoms: C_23  and  C_24 
ROOT
HETATM    1  C           1     -21.142  -5.700  -6.860  0.00  0.00     0.278 C 
ENDROOT
BRANCH   1   2
HETATM    2  N           1     -19.869  -6.167  -7.502  0.00  0.00    -0.066 N 
HETATM    3  H           1     -19.293  -6.684  -6.799  0.00  0.00     0.275 HD
HETATM    4  H           1     -20.094  -6.803  -8.301  0.00  0.00     0.275 HD
HETATM    5  H           1     -19.333  -5.342  -7.854  0.00  0.00     0.275 HD
ENDBRANCH   1   2
BRANCH   1   6
HETATM    6  C           1     -21.709  -4.547  -7.651  0.00  0.00     0.249 C 
HETATM    7  O           1     -21.639  -3.423  -7.215  0.00  0.00    -0.271 OA
HETATM    8  N           1     -22.303  -4.775  -8.863  0.00  0.00    -0.345 N 
HETATM    9  H           1     -22.363  -5.717  -9.228  0.00  0.00     0.163 HD
BRANCH   8  10
HETATM   10  C           1     -22.849  -3.666  -9.623  0.00  0.00     0.185 C 
BRANCH  10  11
HETATM   11  C           1     -22.291  -3.698 -11.039  0.00  0.00     0.039 C 
BRANCH  11  12
HETATM   12 Se           1     -20.384  -4.099 -10.977  0.00  0.00     0.000 Se
HETATM   13  H           1     -20.573  -5.559 -10.977  0.00  0.00     0.000 HD
ENDBRANCH  11  12
ENDBRANCH  10  11
BRANCH  10  14
HETATM   14  C           1     -24.353  -3.784  -9.673  0.00  0.00     0.196 C 
HETATM   15  O           1     -25.065  -2.770  -9.511  0.00  0.00    -0.646 OA
HETATM   16  O           1     -24.886  -4.896  -9.873  0.00  0.00    -0.646 OA
ENDBRANCH  10  14
ENDBRANCH   8  10
ENDBRANCH   1   6
BRANCH   1  17
HETATM   17  C           1     -20.854  -5.247  -5.435  0.00  0.00     0.081 C 
BRANCH  17  18
HETATM   18  C           1     -21.131  -6.372  -4.488  0.00  0.00    -0.056 A 
HETATM   19  C           1     -21.204  -7.682  -4.961  0.00  0.00     0.010 A 
HETATM   20  C           1     -21.462  -8.730  -4.079  0.00  0.00     0.037 A 
HETATM   21  C           1     -21.647  -8.468  -2.721  0.00  0.00     0.065 A 
HETATM   22  C           1     -21.575  -7.159  -2.247  0.00  0.00     0.037 A 
HETATM   23  C           1     -21.317  -6.111  -3.130  0.00  0.00     0.010 A 
BRANCH  21  24
HETATM   24  O           1     -21.899  -9.487  -1.864  0.00  0.00    -0.361 OA
HETATM   25  H           1     -21.926  -9.122  -0.963  0.00  0.00     0.217 HD
ENDBRANCH  21  24
ENDBRANCH  17  18
ENDBRANCH   1  17
TORSDOF 9
ENDMDL
MODEL 4
REMARK VINA RESULT:      -6.5      2.170      2.731
REMARK  9 active torsions:
REMARK  status: ('A' for Active; 'I' for Inactive)
REMARK    1  A    between atoms: C_1  and  Se_10 
REMARK    2  A    between atoms: C_1  and  C_21 
REMARK    3  A    between atoms: C_4  and  O_20 
REMARK    4  A    between atoms: C_7  and  C_24 
REMARK    5  A    between atoms: N_9  and  C_21 
REMARK       I    between atoms: N_9  and  C_25 
REMARK    6  A    between atoms: N_12  and  C_23 
REMARK    7  A    between atoms: C_14  and  C_21 
REMARK    8  A    between atoms: C_23  and  C_25 
REMARK    9  A    between atoms: C_23  and  C_24 
ROOT
HETATM    1  C           1     -20.820  -4.822  -6.657  0.00  0.00     0.278 C 
ENDROOT
BRANCH   1   2
HETATM    2  N           1     -19.484  -4.533  -6.039  0.00  0.00    -0.066 N 
HETATM    3  H           1     -19.397  -5.053  -5.136  0.00  0.00     0.275 HD
HETATM    4  H           1     -18.725  -4.840  -6.690  0.00  0.00     0.275 HD
HETATM    5  H           1     -19.397  -3.507  -5.861  0.00  0.00     0.275 HD
ENDBRANCH   1   2
BRANCH   1   6
HETATM    6  C           1     -21.622  -5.701  -5.729  0.00  0.00     0.249 C 
HETATM    7  O           1     -22.828  -5.633  -5.725  0.00  0.00    -0.271 OA
HETATM    8  N           1     -20.983  -6.576  -4.893  0.00  0.00    -0.345 N 
HETATM    9  H           1     -19.972  -6.633  -4.896  0.00  0.00     0.163 HD
BRANCH   8  10
HETATM   10  C           1     -21.754  -7.421  -4.000  0.00  0.00     0.185 C 
BRANCH  10  11
HETATM   11  C           1     -21.203  -8.840  -4.043  0.00  0.00     0.039 C 
BRANCH  11  12
HETATM   12 Se           1     -19.448  -8.831  -4.892  0.00  0.00     0.000 Se
HETATM   13  H           1     -19.790  -9.873  -5.874  0.00  0.00     0.000 HD
ENDBRANCH  11  12
ENDBRANCH  10  11
BRANCH  10  14
HETATM   14  C           1     -21.656  -6.885  -2.593  0.00  0.00     0.196 C 
HETATM   15  O           1     -22.379  -5.931  -2.236  0.00  0.00    -0.646 OA
HETATM   16  O           1     -20.850  -7.395  -1.785  0.00  0.00    -0.646 OA
ENDBRANCH  10  14
ENDBRANCH   8  10
ENDBRANCH   1   6
BRANCH   1  17
HETATM   17  C           1     -20.619  -5.537  -7.987  0.00  0.00     0.081 C 
BRANCH  17  18
HETATM   18  C           1     -21.203  -4.712  -9.090  0.00  0.00    -0.056 A 
HETATM   19  C           1     -22.546  -4.337  -9.046  0.00  0.00     0.010 A 
HETATM   20  C           1     -23.091  -3.569 -10.075  0.00  0.00     0.037 A 
HETATM   21  C           1     -22.292  -3.175 -11.148  0.00  0.00     0.065 A 
HETATM   22  C           1     -20.950  -3.550 -11.194  0.00  0.00     0.037 A 
HETATM   23  C           1     -20.406  -4.319 -10.165  0.00  0.00     0.010 A 
BRANCH  21  24
HETATM   24  O           1     -22.822  -2.430 -12.148  0.00  0.00    -0.361 OA
HETATM   25  H           1     -23.779  -2.355 -11.994  0.00  0.00     0.217 HD
ENDBRANCH  21  24
ENDBRANCH  17  18
ENDBRANCH   1  17
TORSDOF 9
ENDMDL
MODEL 5
REMARK VINA RESULT:      -5.9      1.879      2.761
REMARK  9 active torsions:
REMARK  status: ('A' for Active; 'I' for Inactive)
REMARK    1  A    between atoms: C_1  and  Se_10 
REMARK    2  A    between atoms: C_1  and  C_21 
REMARK    3  A    between atoms: C_4  and  O_20 
REMARK    4  A    between atoms: C_7  and  C_24 
REMARK    5  A    between atoms: N_9  and  C_21 
REMARK       I    between atoms: N_9  and  C_25 
REMARK    6  A    between atoms: N_12  and  C_23 
REMARK    7  A    between atoms: C_14  and  C_21 
REMARK    8  A    between atoms: C_23  and  C_25 
REMARK    9  A    between atoms: C_23  and  C_24 
ROOT
HETATM    1  C           1     -21.587  -6.385  -5.323  0.00  0.00     0.278 C 
ENDROOT
BRANCH   1   2
HETATM    2  N           1     -22.162  -6.134  -3.961  0.00  0.00    -0.066 N 
HETATM    3  H           1     -21.414  -6.250  -3.240  0.00  0.00     0.275 HD
HETATM    4  H           1     -22.539  -5.160  -3.916  0.00  0.00     0.275 HD
HETATM    5  H           1     -22.933  -6.815  -3.777  0.00  0.00     0.275 HD
ENDBRANCH   1   2
BRANCH   1   6
HETATM    6  C           1     -20.789  -7.666  -5.303  0.00  0.00     0.249 C 
HETATM    7  O           1     -19.749  -7.740  -5.911  0.00  0.00    -0.271 OA
HETATM    8  N           1     -21.246  -8.745  -4.595  0.00  0.00    -0.345 N 
HETATM    9  H           1     -22.119  -8.683  -4.086  0.00  0.00     0.163 HD
BRANCH   8  10
HETATM   10  C           1     -20.481  -9.977  -4.576  0.00  0.00     0.185 C 
BRANCH  10  11
HETATM   11  C           1     -20.387 -10.494  -3.147  0.00  0.00     0.039 C 
BRANCH  11  12
HETATM   12 Se           1     -21.618  -9.495  -2.011  0.00  0.00     0.000 Se
HETATM   13  H           1     -21.146  -8.176  -2.461  0.00  0.00     0.000 HD
ENDBRANCH  11  12
ENDBRANCH  10  11
BRANCH  10  14
HETATM   14  C           1     -21.166 -11.007  -5.439  0.00  0.00     0.196 C 
HETATM   15  O           1     -22.117 -11.676  -4.979  0.00  0.00    -0.646 OA
HETATM   16  O           1     -20.783 -11.193  -6.614  0.00  0.00    -0.646 OA
ENDBRANCH  10  14
ENDBRANCH   8  10
ENDBRANCH   1   6
BRANCH   1  17
HETATM   17  C           1     -20.677  -5.226  -5.710  0.00  0.00     0.081 C 
BRANCH  17  18
HETATM   18  C           1     -21.014  -4.767  -7.094  0.00  0.00    -0.056 A 
HETATM   19  C           1     -22.307  -4.337  -7.391  0.00  0.00     0.010 A 
HETATM   20  C           1     -22.621  -3.909  -8.680  0.00  0.00     0.037 A 
HETATM   21  C           1     -21.642  -3.911  -9.674  0.00  0.00     0.065 A 
HETATM   22  C           1     -20.349  -4.343  -9.378  0.00  0.00     0.037 A 
HETATM   23  C           1     -20.035  -4.770  -8.088  0.00  0.00     0.010 A 
BRANCH  21  24
HETATM   24  O           1     -21.948  -3.497 -10.927  0.00  0.00    -0.361 OA
HETATM   25  H           1     -21.115  -3.350 -11.407  0.00  0.00     0.217 HD
ENDBRANCH  21  24
ENDBRANCH  17  18
ENDBRANCH   1  17
TORSDOF 9
ENDMDL
MODEL 6
REMARK VINA RESULT:      -5.7      2.503      3.153
REMARK  9 active torsions:
REMARK  status: ('A' for Active; 'I' for Inactive)
REMARK    1  A    between atoms: C_1  and  Se_10 
REMARK    2  A    between atoms: C_1  and  C_21 
REMARK    3  A    between atoms: C_4  and  O_20 
REMARK    4  A    between atoms: C_7  and  C_24 
REMARK    5  A    between atoms: N_9  and  C_21 
REMARK       I    between atoms: N_9  and  C_25 
REMARK    6  A    between atoms: N_12  and  C_23 
REMARK    7  A    between atoms: C_14  and  C_21 
REMARK    8  A    between atoms: C_23  and  C_25 
REMARK    9  A    between atoms: C_23  and  C_24 
ROOT
HETATM    1  C           1     -21.620  -6.320  -4.937  0.00  0.00     0.278 C 
ENDROOT
BRANCH   1   2
HETATM    2  N           1     -22.009  -6.061  -3.512  0.00  0.00    -0.066 N 
HETATM    3  H           1     -21.148  -5.942  -2.931  0.00  0.00     0.275 HD
HETATM    4  H           1     -22.584  -5.189  -3.461  0.00  0.00     0.275 HD
HETATM    5  H           1     -22.565  -6.868  -3.150  0.00  0.00     0.275 HD
ENDBRANCH   1   2
BRANCH   1   6
HETATM    6  C           1     -21.019  -7.700  -5.051  0.00  0.00     0.249 C 
HETATM    7  O           1     -21.152  -8.333  -6.070  0.00  0.00    -0.271 OA
HETATM    8  N           1     -20.324  -8.232  -3.999  0.00  0.00    -0.345 N 
HETATM    9  H           1     -20.214  -7.700  -3.144  0.00  0.00     0.163 HD
BRANCH   8  10
HETATM   10  C           1     -19.747  -9.558  -4.108  0.00  0.00     0.185 C 
BRANCH  10  11
HETATM   11  C           1     -18.245  -9.442  -4.326  0.00  0.00     0.039 C 
BRANCH  11  12
HETATM   12 Se           1     -17.751 -10.373  -5.965  0.00  0.00     0.000 Se
HETATM   13  H           1     -18.862 -11.335  -5.891  0.00  0.00     0.000 HD
ENDBRANCH  11  12
ENDBRANCH  10  11
BRANCH  10  14
HETATM   14  C           1     -20.013 -10.327  -2.836  0.00  0.00     0.196 C 
HETATM   15  O           1     -20.709  -9.817  -1.932  0.00  0.00    -0.646 OA
HETATM   16  O           1     -19.535 -11.472  -2.687  0.00  0.00    -0.646 OA
ENDBRANCH  10  14
ENDBRANCH   8  10
ENDBRANCH   1   6
BRANCH   1  17
HETATM   17  C           1     -20.596  -5.282  -5.379  0.00  0.00     0.081 C 
BRANCH  17  18
HETATM   18  C           1     -20.888  -4.860  -6.785  0.00  0.00    -0.056 A 
HETATM   19  C           1     -19.860  -4.811  -7.727  0.00  0.00     0.010 A 
HETATM   20  C           1     -20.132  -4.417  -9.036  0.00  0.00     0.037 A 
HETATM   21  C           1     -21.432  -4.072  -9.405  0.00  0.00     0.065 A 
HETATM   22  C           1     -22.460  -4.119  -8.464  0.00  0.00     0.037 A 
HETATM   23  C           1     -22.187  -4.513  -7.154  0.00  0.00     0.010 A 
BRANCH  21  24
HETATM   24  O           1     -21.696  -3.688 -10.677  0.00  0.00    -0.361 OA
HETATM   25  H           1     -22.514  -3.163 -10.670  0.00  0.00     0.217 HD
ENDBRANCH  21  24
ENDBRANCH  17  18
ENDBRANCH   1  17
TORSDOF 9
ENDMDL
MODEL 7
REMARK VINA RESULT:      -5.6      2.146      2.803
REMARK  9 active torsions:
REMARK  status: ('A' for Active; 'I' for Inactive)
REMARK    1  A    between atoms: C_1  and  Se_10 
REMARK    2  A    between atoms: C_1  and  C_21 
REMARK    3  A    between atoms: C_4  and  O_20 
REMARK    4  A    between atoms: C_7  and  C_24 
REMARK    5  A    between atoms: N_9  and  C_21 
REMARK       I    between atoms: N_9  and  C_25 
REMARK    6  A    between atoms: N_12  and  C_23 
REMARK    7  A    between atoms: C_14  and  C_21 
REMARK    8  A    between atoms: C_23  and  C_25 
REMARK    9  A    between atoms: C_23  and  C_24 
ROOT
HETATM    1  C           1     -21.572  -6.661  -5.375  0.00  0.00     0.278 C 
ENDROOT
BRANCH   1   2
HETATM    2  N           1     -22.577  -6.199  -4.362  0.00  0.00    -0.066 N 
HETATM    3  H           1     -22.515  -6.801  -3.510  0.00  0.00     0.275 HD
HETATM    4  H           1     -22.378  -5.207  -4.100  0.00  0.00     0.275 HD
HETATM    5  H           1     -23.538  -6.267  -4.767  0.00  0.00     0.275 HD
ENDBRANCH   1   2
BRANCH   1   6
HETATM    6  C           1     -20.809  -7.841  -4.825  0.00  0.00     0.249 C 
HETATM    7  O           1     -20.454  -7.845  -3.671  0.00  0.00    -0.271 OA
HETATM    8  N           1     -20.522  -8.907  -5.634  0.00  0.00    -0.345 N 
HETATM    9  H           1     -20.820  -8.903  -6.601  0.00  0.00     0.163 HD
BRANCH   8  10
HETATM   10  C           1     -19.788 -10.041  -5.105  0.00  0.00     0.185 C 
BRANCH  10  11
HETATM   11  C           1     -20.600 -11.312  -5.314  0.00  0.00     0.039 C 
BRANCH  11  12
HETATM   12 Se           1     -22.076 -11.358  -4.041  0.00  0.00     0.000 Se
HETATM   13  H           1     -22.930 -10.449  -4.822  0.00  0.00     0.000 HD
ENDBRANCH  11  12
ENDBRANCH  10  11
BRANCH  10  14
HETATM   14  C           1     -18.468 -10.164  -5.825  0.00  0.00     0.196 C 
HETATM   15  O           1     -18.006  -9.189  -6.456  0.00  0.00    -0.646 OA
HETATM   16  O           1     -17.836 -11.242  -5.792  0.00  0.00    -0.646 OA
ENDBRANCH  10  14
ENDBRANCH   8  10
ENDBRANCH   1   6
BRANCH   1  17
HETATM   17  C           1     -20.603  -5.526  -5.680  0.00  0.00     0.081 C 
BRANCH  17  18
HETATM   18  C           1     -20.881  -4.985  -7.047  0.00  0.00    -0.056 A 
HETATM   19  C           1     -19.939  -5.138  -8.064  0.00  0.00     0.010 A 
HETATM   20  C           1     -20.199  -4.633  -9.338  0.00  0.00     0.037 A 
HETATM   21  C           1     -21.401  -3.975  -9.595  0.00  0.00     0.065 A 
HETATM   22  C           1     -22.344  -3.820  -8.578  0.00  0.00     0.037 A 
HETATM   23  C           1     -22.083  -4.325  -7.304  0.00  0.00     0.010 A 
BRANCH  21  24
HETATM   24  O           1     -21.653  -3.483 -10.832  0.00  0.00    -0.361 OA
HETATM   25  H           1     -21.177  -2.641 -10.924  0.00  0.00     0.217 HD
ENDBRANCH  21  24
ENDBRANCH  17  18
ENDBRANCH   1  17
TORSDOF 9
ENDMDL
MODEL 8
REMARK VINA RESULT:      -5.6     19.269     21.203
REMARK  9 active torsions:
REMARK  status: ('A' for Active; 'I' for Inactive)
REMARK    1  A    between atoms: C_1  and  Se_10 
REMARK    2  A    between atoms: C_1  and  C_21 
REMARK    3  A    between atoms: C_4  and  O_20 
REMARK    4  A    between atoms: C_7  and  C_24 
REMARK    5  A    between atoms: N_9  and  C_21 
REMARK       I    between atoms: N_9  and  C_25 
REMARK    6  A    between atoms: N_12  and  C_23 
REMARK    7  A    between atoms: C_14  and  C_21 
REMARK    8  A    between atoms: C_23  and  C_25 
REMARK    9  A    between atoms: C_23  and  C_24 
ROOT
HETATM    1  C           1     -10.322   6.963 -20.456  0.00  0.00     0.278 C 
ENDROOT
BRANCH   1   2
HETATM    2  N           1      -8.843   6.922 -20.701  0.00  0.00    -0.066 N 
HETATM    3  H           1      -8.586   6.004 -21.129  0.00  0.00     0.275 HD
HETATM    4  H           1      -8.577   7.695 -21.353  0.00  0.00     0.275 HD
HETATM    5  H           1      -8.336   7.040 -19.795  0.00  0.00     0.275 HD
ENDBRANCH   1   2
BRANCH   1   6
HETATM    6  C           1     -10.717   8.344 -19.992  0.00  0.00     0.249 C 
HETATM    7  O           1      -9.978   8.974 -19.274  0.00  0.00    -0.271 OA
HETATM    8  N           1     -11.912   8.882 -20.386  0.00  0.00    -0.345 N 
HETATM    9  H           1     -12.532   8.353 -20.987  0.00  0.00     0.163 HD
BRANCH   8  10
HETATM   10  C           1     -12.292  10.208 -19.940  0.00  0.00     0.185 C 
BRANCH  10  11
HETATM   11  C           1     -12.781  11.023 -21.130  0.00  0.00     0.039 C 
BRANCH  11  12
HETATM   12 Se           1     -13.179   9.828 -22.617  0.00  0.00     0.000 Se
HETATM   13  H           1     -12.723  10.772 -23.650  0.00  0.00     0.000 HD
ENDBRANCH  11  12
ENDBRANCH  10  11
BRANCH  10  14
HETATM   14  C           1     -13.398  10.098 -18.919  0.00  0.00     0.196 C 
HETATM   15  O           1     -13.198   9.490 -17.845  0.00  0.00    -0.646 OA
HETATM   16  O           1     -14.514  10.612 -19.147  0.00  0.00    -0.646 OA
ENDBRANCH  10  14
ENDBRANCH   8  10
ENDBRANCH   1   6
BRANCH   1  17
HETATM   17  C           1     -10.686   5.943 -19.384  0.00  0.00     0.081 C 
BRANCH  17  18
HETATM   18  C           1     -11.545   4.874 -19.982  0.00  0.00    -0.056 A 
HETATM   19  C           1     -10.990   3.639 -20.318  0.00  0.00     0.010 A 
HETATM   20  C           1     -11.791   2.643 -20.876  0.00  0.00     0.037 A 
HETATM   21  C           1     -13.147   2.881 -21.098  0.00  0.00     0.065 A 
HETATM   22  C           1     -13.702   4.116 -20.763  0.00  0.00     0.037 A 
HETATM   23  C           1     -12.901   5.112 -20.206  0.00  0.00     0.010 A 
BRANCH  21  24
HETATM   24  O           1     -13.924   1.914 -21.641  0.00  0.00    -0.361 OA
HETATM   25  H           1     -13.392   1.103 -21.710  0.00  0.00     0.217 HD
ENDBRANCH  21  24
ENDBRANCH  17  18
ENDBRANCH   1  17
TORSDOF 9
ENDMDL
MODEL 9
REMARK VINA RESULT:      -5.6      3.012      4.374
REMARK  9 active torsions:
REMARK  status: ('A' for Active; 'I' for Inactive)
REMARK    1  A    between atoms: C_1  and  Se_10 
REMARK    2  A    between atoms: C_1  and  C_21 
REMARK    3  A    between atoms: C_4  and  O_20 
REMARK    4  A    between atoms: C_7  and  C_24 
REMARK    5  A    between atoms: N_9  and  C_21 
REMARK       I    between atoms: N_9  and  C_25 
REMARK    6  A    between atoms: N_12  and  C_23 
REMARK    7  A    between atoms: C_14  and  C_21 
REMARK    8  A    between atoms: C_23  and  C_25 
REMARK    9  A    between atoms: C_23  and  C_24 
ROOT
HETATM    1  C           1     -20.719  -7.578  -4.795  0.00  0.00     0.278 C 
ENDROOT
BRANCH   1   2
HETATM    2  N           1     -21.160  -8.152  -6.108  0.00  0.00    -0.066 N 
HETATM    3  H           1     -21.643  -7.412  -6.667  0.00  0.00     0.275 HD
HETATM    4  H           1     -20.326  -8.496  -6.636  0.00  0.00     0.275 HD
HETATM    5  H           1     -21.818  -8.946  -5.938  0.00  0.00     0.275 HD
ENDBRANCH   1   2
BRANCH   1   6
HETATM    6  C           1     -21.328  -8.376  -3.668  0.00  0.00     0.249 C 
HETATM    7  O           1     -21.970  -9.369  -3.909  0.00  0.00    -0.271 OA
HETATM    8  N           1     -21.152  -7.973  -2.372  0.00  0.00    -0.345 N 
HETATM    9  H           1     -20.613  -7.140  -2.169  0.00  0.00     0.163 HD
BRANCH   8  10
HETATM   10  C           1     -21.737  -8.739  -1.288  0.00  0.00     0.185 C 
BRANCH  10  11
HETATM   11  C           1     -20.671  -9.627  -0.660  0.00  0.00     0.039 C 
BRANCH  11  12
HETATM   12 Se           1     -21.380 -11.427  -0.423  0.00  0.00     0.000 Se
HETATM   13  H           1     -22.228 -11.067   0.725  0.00  0.00     0.000 HD
ENDBRANCH  11  12
ENDBRANCH  10  11
BRANCH  10  14
HETATM   14  C           1     -22.285  -7.796  -0.245  0.00  0.00     0.196 C 
HETATM   15  O           1     -22.827  -6.725  -0.594  0.00  0.00    -0.646 OA
HETATM   16  O           1     -22.196  -8.085   0.967  0.00  0.00    -0.646 OA
ENDBRANCH  10  14
ENDBRANCH   8  10
ENDBRANCH   1   6
BRANCH   1  17
HETATM   17  C           1     -21.176  -6.128  -4.696  0.00  0.00     0.081 C 
BRANCH  17  18
HETATM   18  C           1     -20.955  -5.444  -6.008  0.00  0.00    -0.056 A 
HETATM   19  C           1     -22.046  -5.038  -6.776  0.00  0.00     0.010 A 
HETATM   20  C           1     -21.841  -4.401  -8.000  0.00  0.00     0.037 A 
HETATM   21  C           1     -20.543  -4.170  -8.455  0.00  0.00     0.065 A 
HETATM   22  C           1     -19.451  -4.576  -7.689  0.00  0.00     0.037 A 
HETATM   23  C           1     -19.658  -5.214  -6.465  0.00  0.00     0.010 A 
BRANCH  21  24
HETATM   24  O           1     -20.344  -3.552  -9.645  0.00  0.00    -0.361 OA
HETATM   25  H           1     -20.587  -4.173 -10.352  0.00  0.00     0.217 HD
ENDBRANCH  21  24
ENDBRANCH  17  18
ENDBRANCH   1  17
TORSDOF 9
ENDMDL
