MODEL 1
REMARK VINA RESULT:      -6.7      0.000      0.000
REMARK  5 active torsions:
REMARK  status: ('A' for Active; 'I' for Inactive)
REMARK       I    between atoms: C_1  and  N_8 
REMARK    1  A    between atoms: C_1  and  C_9 
REMARK    2  A    between atoms: C_9  and  C_10 
REMARK    3  A    between atoms: C_10  and  C_11 
REMARK    4  A    between atoms: C_10  and  N_13 
REMARK       I    between atoms: N_13  and  C_16 
REMARK    5  A    between atoms: C_16  and  C_17 
ROOT
HETATM    1  C           1     -35.789  -0.840 -13.264  0.00  0.00     0.194 C 
ENDROOT
BRANCH   1   2
HETATM    2  C           1     -36.965  -0.172 -12.563  0.00  0.00     0.138 C 
BRANCH   2   3
HETATM    3  C           1     -36.880  -0.431 -11.079  0.00  0.00     0.217 C 
HETATM    4  O           1     -37.157  -1.522 -10.640  0.00  0.00    -0.274 OA
HETATM    5  N           1     -36.489   0.569 -10.231  0.00  0.00    -0.370 N 
HETATM    6  H           1     -36.256   1.483 -10.599  0.00  0.00     0.159 HD
HETATM    7  H           1     -36.432   0.395  -9.235  0.00  0.00     0.159 HD
ENDBRANCH   2   3
ENDBRANCH   1   2
BRANCH   1   8
HETATM    8  C           1     -35.070   0.175 -14.117  0.00  0.00     0.197 C 
HETATM    9  O           1     -34.843  -0.069 -15.322  0.00  0.00    -0.646 OA
HETATM   10  O           1     -34.701   1.261 -13.620  0.00  0.00    -0.646 OA
ENDBRANCH   1   8
BRANCH   1  11
HETATM   11  N           1     -34.874  -1.373 -12.273  0.00  0.00    -0.344 N 
HETATM   12  H           1     -34.722  -0.874 -11.405  0.00  0.00     0.163 HD
HETATM   13  C           1     -34.217  -2.550 -12.509  0.00  0.00     0.251 C 
HETATM   14  O           1     -34.400  -3.145 -13.545  0.00  0.00    -0.271 OA
BRANCH  13  15
HETATM   15  C           1     -33.266  -3.105 -11.478  0.00  0.00     0.311 C 
HETATM   16  C           1     -32.653  -4.410 -11.955  0.00  0.00     0.047 C 
HETATM   17  C           1     -33.533  -5.503 -11.360  0.00  0.00     0.033 C 
HETATM   18  C           1     -34.598  -4.765 -10.567  0.00  0.00     0.271 C 
HETATM   19  N           1     -33.979  -3.479 -10.260  0.00  0.00     0.097 N 
HETATM   20  H           1     -33.330  -3.592  -9.481  0.00  0.00     0.317 HD
ENDBRANCH  13  15
ENDBRANCH   1  11
TORSDOF 5
ENDMDL
MODEL 2
REMARK VINA RESULT:      -6.0      2.160      5.036
REMARK  5 active torsions:
REMARK  status: ('A' for Active; 'I' for Inactive)
REMARK       I    between atoms: C_1  and  N_8 
REMARK    1  A    between atoms: C_1  and  C_9 
REMARK    2  A    between atoms: C_9  and  C_10 
REMARK    3  A    between atoms: C_10  and  C_11 
REMARK    4  A    between atoms: C_10  and  N_13 
REMARK       I    between atoms: N_13  and  C_16 
REMARK    5  A    between atoms: C_16  and  C_17 
ROOT
HETATM    1  C           1     -36.383  -0.988 -11.188  0.00  0.00     0.194 C 
ENDROOT
BRANCH   1   2
HETATM    2  C           1     -35.249  -1.864 -10.671  0.00  0.00     0.138 C 
BRANCH   2   3
HETATM    3  C           1     -35.141  -3.104 -11.525  0.00  0.00     0.217 C 
HETATM    4  O           1     -34.917  -3.004 -12.708  0.00  0.00    -0.274 OA
HETATM    5  N           1     -35.296  -4.340 -10.959  0.00  0.00    -0.370 N 
HETATM    6  H           1     -35.484  -4.424  -9.968  0.00  0.00     0.159 HD
HETATM    7  H           1     -35.224  -5.171 -11.532  0.00  0.00     0.159 HD
ENDBRANCH   2   3
ENDBRANCH   1   2
BRANCH   1   8
HETATM    8  C           1     -36.794  -0.013 -10.112  0.00  0.00     0.197 C 
HETATM    9  O           1     -36.203  -0.011  -9.011  0.00  0.00    -0.646 OA
HETATM   10  O           1     -37.727   0.792 -10.321  0.00  0.00    -0.646 OA
ENDBRANCH   1   8
BRANCH   1  11
HETATM   11  N           1     -35.936  -0.256 -12.357  0.00  0.00    -0.344 N 
HETATM   12  H           1     -35.038   0.211 -12.349  0.00  0.00     0.163 HD
HETATM   13  C           1     -36.726  -0.198 -13.473  0.00  0.00     0.251 C 
HETATM   14  O           1     -37.798  -0.757 -13.483  0.00  0.00    -0.271 OA
BRANCH  13  15
HETATM   15  C           1     -36.261   0.563 -14.690  0.00  0.00     0.311 C 
HETATM   16  C           1     -37.208   0.347 -15.857  0.00  0.00     0.047 C 
HETATM   17  C           1     -36.599  -0.800 -16.656  0.00  0.00     0.033 C 
HETATM   18  C           1     -35.331  -1.174 -15.907  0.00  0.00     0.271 C 
HETATM   19  N           1     -34.986   0.041 -15.175  0.00  0.00     0.097 N 
HETATM   20  H           1     -34.541   0.705 -15.808  0.00  0.00     0.317 HD
ENDBRANCH  13  15
ENDBRANCH   1  11
TORSDOF 5
ENDMDL
MODEL 3
REMARK VINA RESULT:      -5.9      2.054      4.717
REMARK  5 active torsions:
REMARK  status: ('A' for Active; 'I' for Inactive)
REMARK       I    between atoms: C_1  and  N_8 
REMARK    1  A    between atoms: C_1  and  C_9 
REMARK    2  A    between atoms: C_9  and  C_10 
REMARK    3  A    between atoms: C_10  and  C_11 
REMARK    4  A    between atoms: C_10  and  N_13 
REMARK       I    between atoms: N_13  and  C_16 
REMARK    5  A    between atoms: C_16  and  C_17 
ROOT
HETATM    1  C           1     -35.181  -1.487 -12.173  0.00  0.00     0.194 C 
ENDROOT
BRANCH   1   2
HETATM    2  C           1     -35.899  -1.680 -10.844  0.00  0.00     0.138 C 
BRANCH   2   3
HETATM    3  C           1     -36.947  -0.606 -10.676  0.00  0.00     0.217 C 
HETATM    4  O           1     -38.071  -0.793 -11.075  0.00  0.00    -0.274 OA
HETATM    5  N           1     -36.621   0.578 -10.073  0.00  0.00    -0.370 N 
HETATM    6  H           1     -35.678   0.734  -9.738  0.00  0.00     0.159 HD
HETATM    7  H           1     -37.323   1.298  -9.960  0.00  0.00     0.159 HD
ENDBRANCH   2   3
ENDBRANCH   1   2
BRANCH   1   8
HETATM    8  C           1     -34.726  -2.826 -12.698  0.00  0.00     0.197 C 
HETATM    9  O           1     -34.518  -2.981 -13.921  0.00  0.00    -0.646 OA
HETATM   10  O           1     -34.557  -3.782 -11.910  0.00  0.00    -0.646 OA
ENDBRANCH   1   8
BRANCH   1  11
HETATM   11  N           1     -36.086  -0.876 -13.128  0.00  0.00    -0.344 N 
HETATM   12  H           1     -37.059  -1.154 -13.151  0.00  0.00     0.163 HD
HETATM   13  C           1     -35.625   0.075 -13.998  0.00  0.00     0.251 C 
HETATM   14  O           1     -34.463   0.406 -13.969  0.00  0.00    -0.271 OA
BRANCH  13  15
HETATM   15  C           1     -36.566   0.711 -14.991  0.00  0.00     0.311 C 
HETATM   16  C           1     -37.906  -0.005 -15.000  0.00  0.00     0.047 C 
HETATM   17  C           1     -37.805  -1.022 -16.131  0.00  0.00     0.033 C 
HETATM   18  C           1     -36.416  -0.829 -16.714  0.00  0.00     0.271 C 
HETATM   19  N           1     -36.073   0.544 -16.355  0.00  0.00     0.097 N 
HETATM   20  H           1     -36.543   1.189 -16.991  0.00  0.00     0.317 HD
ENDBRANCH  13  15
ENDBRANCH   1  11
TORSDOF 5
ENDMDL
MODEL 4
REMARK VINA RESULT:      -5.7      9.890     11.948
REMARK  5 active torsions:
REMARK  status: ('A' for Active; 'I' for Inactive)
REMARK       I    between atoms: C_1  and  N_8 
REMARK    1  A    between atoms: C_1  and  C_9 
REMARK    2  A    between atoms: C_9  and  C_10 
REMARK    3  A    between atoms: C_10  and  C_11 
REMARK    4  A    between atoms: C_10  and  N_13 
REMARK       I    between atoms: N_13  and  C_16 
REMARK    5  A    between atoms: C_16  and  C_17 
ROOT
HETATM    1  C           1     -25.801  -6.626 -19.541  0.00  0.00     0.194 C 
ENDROOT
BRANCH   1   2
HETATM    2  C           1     -24.620  -7.010 -18.658  0.00  0.00     0.138 C 
BRANCH   2   3
HETATM    3  C           1     -24.983  -6.794 -17.209  0.00  0.00     0.217 C 
HETATM    4  O           1     -25.695  -5.870 -16.897  0.00  0.00    -0.274 OA
HETATM    5  N           1     -24.506  -7.646 -16.250  0.00  0.00    -0.370 N 
HETATM    6  H           1     -23.910  -8.421 -16.512  0.00  0.00     0.159 HD
HETATM    7  H           1     -24.749  -7.501 -15.279  0.00  0.00     0.159 HD
ENDBRANCH   2   3
ENDBRANCH   1   2
BRANCH   1   8
HETATM    8  C           1     -25.559  -7.119 -20.946  0.00  0.00     0.197 C 
HETATM    9  O           1     -26.015  -8.225 -21.308  0.00  0.00    -0.646 OA
HETATM   10  O           1     -24.901  -6.422 -21.749  0.00  0.00    -0.646 OA
ENDBRANCH   1   8
BRANCH   1  11
HETATM   11  N           1     -27.012  -7.230 -19.019  0.00  0.00    -0.344 N 
HETATM   12  H           1     -27.021  -8.211 -18.771  0.00  0.00     0.163 HD
HETATM   13  C           1     -28.142  -6.474 -18.862  0.00  0.00     0.251 C 
HETATM   14  O           1     -28.130  -5.302 -19.159  0.00  0.00    -0.271 OA
BRANCH  13  15
HETATM   15  C           1     -29.402  -7.102 -18.319  0.00  0.00     0.311 C 
HETATM   16  C           1     -30.289  -6.056 -17.667  0.00  0.00     0.047 C 
HETATM   17  C           1     -29.932  -6.100 -16.185  0.00  0.00     0.033 C 
HETATM   18  C           1     -28.865  -7.175 -16.068  0.00  0.00     0.271 C 
HETATM   19  N           1     -29.095  -8.026 -17.231  0.00  0.00     0.097 N 
HETATM   20  H           1     -29.885  -8.645 -17.048  0.00  0.00     0.317 HD
ENDBRANCH  13  15
ENDBRANCH   1  11
TORSDOF 5
ENDMDL
MODEL 5
REMARK VINA RESULT:      -5.6      1.956      5.421
REMARK  5 active torsions:
REMARK  status: ('A' for Active; 'I' for Inactive)
REMARK       I    between atoms: C_1  and  N_8 
REMARK    1  A    between atoms: C_1  and  C_9 
REMARK    2  A    between atoms: C_9  and  C_10 
REMARK    3  A    between atoms: C_10  and  C_11 
REMARK    4  A    between atoms: C_10  and  N_13 
REMARK       I    between atoms: N_13  and  C_16 
REMARK    5  A    between atoms: C_16  and  C_17 
ROOT
HETATM    1  C           1     -34.038  -3.320 -12.431  0.00  0.00     0.194 C 
ENDROOT
BRANCH   1   2
HETATM    2  C           1     -32.821  -3.568 -11.549  0.00  0.00     0.138 C 
BRANCH   2   3
HETATM    3  C           1     -32.274  -4.948 -11.822  0.00  0.00     0.217 C 
HETATM    4  O           1     -31.267  -5.079 -12.476  0.00  0.00    -0.274 OA
HETATM    5  N           1     -32.919  -6.049 -11.329  0.00  0.00    -0.370 N 
HETATM    6  H           1     -33.763  -5.939 -10.780  0.00  0.00     0.159 HD
HETATM    7  H           1     -32.553  -6.974 -11.512  0.00  0.00     0.159 HD
ENDBRANCH   2   3
ENDBRANCH   1   2
BRANCH   1   8
HETATM    8  C           1     -35.085  -4.369 -12.148  0.00  0.00     0.197 C 
HETATM    9  O           1     -35.284  -5.290 -12.969  0.00  0.00    -0.646 OA
HETATM   10  O           1     -35.754  -4.317 -11.094  0.00  0.00    -0.646 OA
ENDBRANCH   1   8
BRANCH   1  11
HETATM   11  N           1     -34.582  -2.006 -12.147  0.00  0.00    -0.344 N 
HETATM   12  H           1     -34.574  -1.649 -11.199  0.00  0.00     0.163 HD
HETATM   13  C           1     -35.105  -1.247 -13.159  0.00  0.00     0.251 C 
HETATM   14  O           1     -35.114  -1.674 -14.290  0.00  0.00    -0.271 OA
BRANCH  13  15
HETATM   15  C           1     -35.671   0.120 -12.864  0.00  0.00     0.311 C 
HETATM   16  C           1     -36.442   0.115 -11.555  0.00  0.00     0.047 C 
HETATM   17  C           1     -37.895  -0.121 -11.952  0.00  0.00     0.033 C 
HETATM   18  C           1     -37.879  -0.231 -13.467  0.00  0.00     0.271 C 
HETATM   19  N           1     -36.674   0.494 -13.857  0.00  0.00     0.097 N 
HETATM   20  H           1     -36.855   1.497 -13.828  0.00  0.00     0.317 HD
ENDBRANCH  13  15
ENDBRANCH   1  11
TORSDOF 5
ENDMDL
MODEL 6
REMARK VINA RESULT:      -5.5     15.234     17.148
REMARK  5 active torsions:
REMARK  status: ('A' for Active; 'I' for Inactive)
REMARK       I    between atoms: C_1  and  N_8 
REMARK    1  A    between atoms: C_1  and  C_9 
REMARK    2  A    between atoms: C_9  and  C_10 
REMARK    3  A    between atoms: C_10  and  C_11 
REMARK    4  A    between atoms: C_10  and  N_13 
REMARK       I    between atoms: N_13  and  C_16 
REMARK    5  A    between atoms: C_16  and  C_17 
ROOT
HETATM    1  C           1     -21.380  -7.328  -3.817  0.00  0.00     0.194 C 
ENDROOT
BRANCH   1   2
HETATM    2  C           1     -20.525  -8.588  -3.788  0.00  0.00     0.138 C 
BRANCH   2   3
HETATM    3  C           1     -20.211  -9.016  -5.201  0.00  0.00     0.217 C 
HETATM    4  O           1     -19.328  -8.466  -5.815  0.00  0.00    -0.274 OA
HETATM    5  N           1     -20.925 -10.026  -5.785  0.00  0.00    -0.370 N 
HETATM    6  H           1     -21.665 -10.487  -5.270  0.00  0.00     0.159 HD
HETATM    7  H           1     -20.714 -10.312  -6.733  0.00  0.00     0.159 HD
ENDBRANCH   2   3
ENDBRANCH   1   2
BRANCH   1   8
HETATM    8  C           1     -21.669  -6.885  -2.404  0.00  0.00     0.197 C 
HETATM    9  O           1     -21.137  -7.479  -1.441  0.00  0.00    -0.646 OA
HETATM   10  O           1     -22.440  -5.924  -2.194  0.00  0.00    -0.646 OA
ENDBRANCH   1   8
BRANCH   1  11
HETATM   11  N           1     -20.669  -6.276  -4.517  0.00  0.00    -0.344 N 
HETATM   12  H           1     -19.685  -6.123  -4.335  0.00  0.00     0.163 HD
HETATM   13  C           1     -21.327  -5.491  -5.425  0.00  0.00     0.251 C 
HETATM   14  O           1     -22.502  -5.674  -5.641  0.00  0.00    -0.271 OA
BRANCH  13  15
HETATM   15  C           1     -20.587  -4.396  -6.154  0.00  0.00     0.311 C 
HETATM   16  C           1     -21.474  -3.753  -7.205  0.00  0.00     0.047 C 
HETATM   17  C           1     -21.149  -4.486  -8.502  0.00  0.00     0.033 C 
HETATM   18  C           1     -20.088  -5.506  -8.124  0.00  0.00     0.271 C 
HETATM   19  N           1     -19.475  -4.944  -6.924  0.00  0.00     0.097 N 
HETATM   20  H           1     -18.821  -4.208  -7.189  0.00  0.00     0.317 HD
ENDBRANCH  13  15
ENDBRANCH   1  11
TORSDOF 5
ENDMDL
MODEL 7
REMARK VINA RESULT:      -5.3      2.080      5.096
REMARK  5 active torsions:
REMARK  status: ('A' for Active; 'I' for Inactive)
REMARK       I    between atoms: C_1  and  N_8 
REMARK    1  A    between atoms: C_1  and  C_9 
REMARK    2  A    between atoms: C_9  and  C_10 
REMARK    3  A    between atoms: C_10  and  C_11 
REMARK    4  A    between atoms: C_10  and  N_13 
REMARK       I    between atoms: N_13  and  C_16 
REMARK    5  A    between atoms: C_16  and  C_17 
ROOT
HETATM    1  C           1     -33.881  -3.756 -13.368  0.00  0.00     0.194 C 
ENDROOT
BRANCH   1   2
HETATM    2  C           1     -32.848  -4.014 -12.279  0.00  0.00     0.138 C 
BRANCH   2   3
HETATM    3  C           1     -33.338  -3.436 -10.973  0.00  0.00     0.217 C 
HETATM    4  O           1     -33.120  -2.278 -10.707  0.00  0.00    -0.274 OA
HETATM    5  N           1     -34.029  -4.223 -10.092  0.00  0.00    -0.370 N 
HETATM    6  H           1     -34.211  -5.194 -10.315  0.00  0.00     0.159 HD
HETATM    7  H           1     -34.357  -3.835  -9.217  0.00  0.00     0.159 HD
ENDBRANCH   2   3
ENDBRANCH   1   2
BRANCH   1   8
HETATM    8  C           1     -34.758  -4.973 -13.528  0.00  0.00     0.197 C 
HETATM    9  O           1     -35.112  -5.343 -14.669  0.00  0.00    -0.646 OA
HETATM   10  O           1     -35.131  -5.612 -12.521  0.00  0.00    -0.646 OA
ENDBRANCH   1   8
BRANCH   1  11
HETATM   11  N           1     -34.699  -2.616 -13.000  0.00  0.00    -0.344 N 
HETATM   12  H           1     -34.886  -2.422 -12.024  0.00  0.00     0.163 HD
HETATM   13  C           1     -35.218  -1.803 -13.970  0.00  0.00     0.251 C 
HETATM   14  O           1     -34.994  -2.035 -15.135  0.00  0.00    -0.271 OA
BRANCH  13  15
HETATM   15  C           1     -36.069  -0.617 -13.587  0.00  0.00     0.311 C 
HETATM   16  C           1     -36.428   0.208 -14.810  0.00  0.00     0.047 C 
HETATM   17  C           1     -35.374   1.308 -14.872  0.00  0.00     0.033 C 
HETATM   18  C           1     -34.471   1.057 -13.676  0.00  0.00     0.271 C 
HETATM   19  N           1     -35.318   0.313 -12.748  0.00  0.00     0.097 N 
HETATM   20  H           1     -35.947   0.958 -12.270  0.00  0.00     0.317 HD
ENDBRANCH  13  15
ENDBRANCH   1  11
TORSDOF 5
ENDMDL
MODEL 8
REMARK VINA RESULT:      -5.2     16.908     18.504
REMARK  5 active torsions:
REMARK  status: ('A' for Active; 'I' for Inactive)
REMARK       I    between atoms: C_1  and  N_8 
REMARK    1  A    between atoms: C_1  and  C_9 
REMARK    2  A    between atoms: C_9  and  C_10 
REMARK    3  A    between atoms: C_10  and  C_11 
REMARK    4  A    between atoms: C_10  and  N_13 
REMARK       I    between atoms: N_13  and  C_16 
REMARK    5  A    between atoms: C_16  and  C_17 
ROOT
HETATM    1  C           1     -21.009  -7.818  -3.492  0.00  0.00     0.194 C 
ENDROOT
BRANCH   1   2
HETATM    2  C           1     -21.318  -8.593  -4.767  0.00  0.00     0.138 C 
BRANCH   2   3
HETATM    3  C           1     -20.120  -9.426  -5.153  0.00  0.00     0.217 C 
HETATM    4  O           1     -20.245 -10.334  -5.939  0.00  0.00    -0.274 OA
HETATM    5  N           1     -18.893  -9.150  -4.614  0.00  0.00    -0.370 N 
HETATM    6  H           1     -18.788  -8.388  -3.955  0.00  0.00     0.159 HD
HETATM    7  H           1     -18.089  -9.708  -4.872  0.00  0.00     0.159 HD
ENDBRANCH   2   3
ENDBRANCH   1   2
BRANCH   1   8
HETATM    8  C           1     -21.515  -6.403  -3.630  0.00  0.00     0.197 C 
HETATM    9  O           1     -22.318  -5.942  -2.790  0.00  0.00    -0.646 OA
HETATM   10  O           1     -21.132  -5.692  -4.583  0.00  0.00    -0.646 OA
ENDBRANCH   1   8
BRANCH   1  11
HETATM   11  N           1     -21.663  -8.457  -2.366  0.00  0.00    -0.344 N 
HETATM   12  H           1     -22.658  -8.338  -2.225  0.00  0.00     0.163 HD
HETATM   13  C           1     -20.935  -9.222  -1.496  0.00  0.00     0.251 C 
HETATM   14  O           1     -19.747  -9.364  -1.665  0.00  0.00    -0.271 OA
BRANCH  13  15
HETATM   15  C           1     -21.615  -9.887  -0.324  0.00  0.00     0.311 C 
HETATM   16  C           1     -23.085  -9.512  -0.269  0.00  0.00     0.047 C 
HETATM   17  C           1     -23.157  -8.328   0.689  0.00  0.00     0.033 C 
HETATM   18  C           1     -21.725  -8.094   1.136  0.00  0.00     0.271 C 
HETATM   19  N           1     -21.080  -9.389   0.940  0.00  0.00     0.097 N 
HETATM   20  H           1     -21.328 -10.012   1.708  0.00  0.00     0.317 HD
ENDBRANCH  13  15
ENDBRANCH   1  11
TORSDOF 5
ENDMDL
MODEL 9
REMARK VINA RESULT:      -4.9     16.929     18.396
REMARK  5 active torsions:
REMARK  status: ('A' for Active; 'I' for Inactive)
REMARK       I    between atoms: C_1  and  N_8 
REMARK    1  A    between atoms: C_1  and  C_9 
REMARK    2  A    between atoms: C_9  and  C_10 
REMARK    3  A    between atoms: C_10  and  C_11 
REMARK    4  A    between atoms: C_10  and  N_13 
REMARK       I    between atoms: N_13  and  C_16 
REMARK    5  A    between atoms: C_16  and  C_17 
ROOT
HETATM    1  C           1     -21.253  -7.761  -2.816  0.00  0.00     0.194 C 
ENDROOT
BRANCH   1   2
HETATM    2  C           1     -21.456  -7.254  -4.238  0.00  0.00     0.138 C 
BRANCH   2   3
HETATM    3  C           1     -20.252  -7.608  -5.076  0.00  0.00     0.217 C 
HETATM    4  O           1     -19.468  -8.439  -4.684  0.00  0.00    -0.274 OA
HETATM    5  N           1     -20.049  -6.989  -6.280  0.00  0.00    -0.370 N 
HETATM    6  H           1     -20.707  -6.293  -6.609  0.00  0.00     0.159 HD
HETATM    7  H           1     -19.242  -7.227  -6.841  0.00  0.00     0.159 HD
ENDBRANCH   2   3
ENDBRANCH   1   2
BRANCH   1   8
HETATM    8  C           1     -21.935  -6.827  -1.848  0.00  0.00     0.197 C 
HETATM    9  O           1     -22.141  -5.636  -2.168  0.00  0.00    -0.646 OA
HETATM   10  O           1     -22.294  -7.242  -0.725  0.00  0.00    -0.646 OA
ENDBRANCH   1   8
BRANCH   1  11
HETATM   11  N           1     -21.824  -9.088  -2.690  0.00  0.00    -0.344 N 
HETATM   12  H           1     -22.757  -9.273  -3.035  0.00  0.00     0.163 HD
HETATM   13  C           1     -21.100 -10.092  -2.105  0.00  0.00     0.251 C 
HETATM   14  O           1     -19.986  -9.871  -1.693  0.00  0.00    -0.271 OA
BRANCH  13  15
HETATM   15  C           1     -21.694 -11.473  -1.973  0.00  0.00     0.311 C 
HETATM   16  C           1     -23.205 -11.428  -2.115  0.00  0.00     0.047 C 
HETATM   17  C           1     -23.735 -11.341  -0.688  0.00  0.00     0.033 C 
HETATM   18  C           1     -22.499 -11.350   0.195  0.00  0.00     0.271 C 
HETATM   19  N           1     -21.485 -12.003  -0.629  0.00  0.00     0.097 N 
HETATM   20  H           1     -21.632 -13.012  -0.611  0.00  0.00     0.317 HD
ENDBRANCH  13  15
ENDBRANCH   1  11
TORSDOF 5
ENDMDL
