MODEL 1
REMARK VINA RESULT:      -6.4      0.000      0.000
REMARK  6 active torsions:
REMARK  status: ('A' for Active; 'I' for Inactive)
REMARK    1  A    between atoms: C_2  and  C_16 
REMARK    2  A    between atoms: N_5  and  C_16 
REMARK       I    between atoms: N_5  and  C_6 
REMARK    3  A    between atoms: C_6  and  C_7 
REMARK    4  A    between atoms: C_7  and  C_8 
REMARK    5  A    between atoms: C_7  and  N_12 
REMARK    6  A    between atoms: C_8  and  C_9 
REMARK       I    between atoms: C_9  and  N_10 
ROOT
HETATM    1  C           1     -34.261  -2.642 -11.768  0.00  0.00     0.283 C 
ENDROOT
BRANCH   1   2
HETATM    2  C           1     -35.201  -1.804 -12.600  0.00  0.00     0.249 C 
HETATM    3  N           1     -34.765  -1.246 -13.772  0.00  0.00    -0.345 N 
HETATM    4  H           1     -33.812  -1.395 -14.080  0.00  0.00     0.163 HD
HETATM    5  O           1     -36.338  -1.627 -12.234  0.00  0.00    -0.271 OA
BRANCH   3   6
HETATM    6  C           1     -35.668  -0.442 -14.573  0.00  0.00     0.181 C 
HETATM    7  C           1     -35.180   1.001 -14.592  0.00  0.00     0.043 C 
BRANCH   6   8
HETATM    8  C           1     -35.705  -0.980 -15.981  0.00  0.00     0.196 C 
HETATM    9  O           1     -35.092  -2.031 -16.265  0.00  0.00    -0.646 OA
HETATM   10  O           1     -36.350  -0.374 -16.865  0.00  0.00    -0.646 OA
ENDBRANCH   6   8
ENDBRANCH   3   6
ENDBRANCH   1   2
BRANCH   1  11
HETATM   11  C           1     -35.018  -3.829 -11.188  0.00  0.00     0.145 C 
BRANCH  11  12
HETATM   12  C           1     -34.652  -5.081 -11.946  0.00  0.00     0.217 C 
HETATM   13  N           1     -33.733  -5.952 -11.427  0.00  0.00    -0.370 N 
HETATM   14  H           1     -33.487  -6.791 -11.936  0.00  0.00     0.159 HD
HETATM   15  H           1     -33.297  -5.757 -10.535  0.00  0.00     0.159 HD
HETATM   16  O           1     -35.172  -5.316 -13.012  0.00  0.00    -0.274 OA
ENDBRANCH  11  12
ENDBRANCH   1  11
BRANCH   1  17
HETATM   17  N           1     -33.706  -1.809 -10.651  0.00  0.00    -0.066 N 
HETATM   18  H           1     -34.345  -1.002 -10.466  0.00  0.00     0.275 HD
HETATM   19  H           1     -33.624  -2.393  -9.789  0.00  0.00     0.275 HD
HETATM   20  H           1     -32.762  -1.450 -10.920  0.00  0.00     0.275 HD
ENDBRANCH   1  17
TORSDOF 6
ENDMDL
MODEL 2
REMARK VINA RESULT:      -6.2     12.410     13.981
REMARK  6 active torsions:
REMARK  status: ('A' for Active; 'I' for Inactive)
REMARK    1  A    between atoms: C_2  and  C_16 
REMARK    2  A    between atoms: N_5  and  C_16 
REMARK       I    between atoms: N_5  and  C_6 
REMARK    3  A    between atoms: C_6  and  C_7 
REMARK    4  A    between atoms: C_7  and  C_8 
REMARK    5  A    between atoms: C_7  and  N_12 
REMARK    6  A    between atoms: C_8  and  C_9 
REMARK       I    between atoms: C_9  and  N_10 
ROOT
HETATM    1  C           1     -22.546  -3.060 -11.866  0.00  0.00     0.283 C 
ENDROOT
BRANCH   1   2
HETATM    2  C           1     -22.548  -3.999 -10.685  0.00  0.00     0.249 C 
HETATM    3  N           1     -21.518  -3.967  -9.783  0.00  0.00    -0.345 N 
HETATM    4  H           1     -20.755  -3.314  -9.909  0.00  0.00     0.163 HD
HETATM    5  O           1     -23.458  -4.778 -10.534  0.00  0.00    -0.271 OA
BRANCH   3   6
HETATM    6  C           1     -21.520  -4.870  -8.648  0.00  0.00     0.181 C 
HETATM    7  C           1     -20.089  -5.280  -8.324  0.00  0.00     0.043 C 
BRANCH   6   8
HETATM    8  C           1     -22.127  -4.174  -7.455  0.00  0.00     0.196 C 
HETATM    9  O           1     -23.294  -4.447  -7.098  0.00  0.00    -0.646 OA
HETATM   10  O           1     -21.464  -3.323  -6.822  0.00  0.00    -0.646 OA
ENDBRANCH   6   8
ENDBRANCH   3   6
ENDBRANCH   1   2
BRANCH   1  11
HETATM   11  C           1     -23.966  -2.902 -12.392  0.00  0.00     0.145 C 
BRANCH  11  12
HETATM   12  C           1     -23.924  -2.486 -13.842  0.00  0.00     0.217 C 
HETATM   13  N           1     -23.993  -1.161 -14.176  0.00  0.00    -0.370 N 
HETATM   14  H           1     -23.965  -0.883 -15.149  0.00  0.00     0.159 HD
HETATM   15  H           1     -24.072  -0.459 -13.452  0.00  0.00     0.159 HD
HETATM   16  O           1     -23.829  -3.324 -14.708  0.00  0.00    -0.274 OA
ENDBRANCH  11  12
ENDBRANCH   1  11
BRANCH   1  17
HETATM   17  N           1     -21.672  -3.620 -12.948  0.00  0.00    -0.066 N 
HETATM   18  H           1     -20.968  -4.269 -12.528  0.00  0.00     0.275 HD
HETATM   19  H           1     -22.261  -4.142 -13.636  0.00  0.00     0.275 HD
HETATM   20  H           1     -21.177  -2.840 -13.436  0.00  0.00     0.275 HD
ENDBRANCH   1  17
TORSDOF 6
ENDMDL
MODEL 3
REMARK VINA RESULT:      -6.1     13.334     14.990
REMARK  6 active torsions:
REMARK  status: ('A' for Active; 'I' for Inactive)
REMARK    1  A    between atoms: C_2  and  C_16 
REMARK    2  A    between atoms: N_5  and  C_16 
REMARK       I    between atoms: N_5  and  C_6 
REMARK    3  A    between atoms: C_6  and  C_7 
REMARK    4  A    between atoms: C_7  and  C_8 
REMARK    5  A    between atoms: C_7  and  N_12 
REMARK    6  A    between atoms: C_8  and  C_9 
REMARK       I    between atoms: C_9  and  N_10 
ROOT
HETATM    1  C           1     -22.037  -3.801 -11.026  0.00  0.00     0.283 C 
ENDROOT
BRANCH   1   2
HETATM    2  C           1     -20.966  -4.465 -10.196  0.00  0.00     0.249 C 
HETATM    3  N           1     -21.161  -4.658  -8.855  0.00  0.00    -0.345 N 
HETATM    4  H           1     -22.023  -4.355  -8.420  0.00  0.00     0.163 HD
HETATM    5  O           1     -19.938  -4.828 -10.715  0.00  0.00    -0.271 OA
BRANCH   3   6
HETATM    6  C           1     -20.132  -5.297  -8.057  0.00  0.00     0.181 C 
HETATM    7  C           1     -19.162  -4.242  -7.542  0.00  0.00     0.043 C 
BRANCH   6   8
HETATM    8  C           1     -20.771  -6.007  -6.889  0.00  0.00     0.196 C 
HETATM    9  O           1     -21.809  -5.546  -6.369  0.00  0.00    -0.646 OA
HETATM   10  O           1     -20.261  -7.058  -6.442  0.00  0.00    -0.646 OA
ENDBRANCH   6   8
ENDBRANCH   3   6
ENDBRANCH   1   2
BRANCH   1  11
HETATM   11  C           1     -23.347  -4.562 -10.868  0.00  0.00     0.145 C 
BRANCH  11  12
HETATM   12  C           1     -24.411  -3.632 -10.341  0.00  0.00     0.217 C 
HETATM   13  N           1     -24.500  -3.384  -8.998  0.00  0.00    -0.370 N 
HETATM   14  H           1     -25.214  -2.760  -8.645  0.00  0.00     0.159 HD
HETATM   15  H           1     -23.852  -3.825  -8.358  0.00  0.00     0.159 HD
HETATM   16  O           1     -25.185  -3.104 -11.105  0.00  0.00    -0.274 OA
ENDBRANCH  11  12
ENDBRANCH   1  11
BRANCH   1  17
HETATM   17  N           1     -21.627  -3.807 -12.469  0.00  0.00    -0.066 N 
HETATM   18  H           1     -20.740  -4.350 -12.577  0.00  0.00     0.275 HD
HETATM   19  H           1     -22.379  -4.251 -13.043  0.00  0.00     0.275 HD
HETATM   20  H           1     -21.475  -2.825 -12.792  0.00  0.00     0.275 HD
ENDBRANCH   1  17
TORSDOF 6
ENDMDL
MODEL 4
REMARK VINA RESULT:      -6.1     12.590     14.269
REMARK  6 active torsions:
REMARK  status: ('A' for Active; 'I' for Inactive)
REMARK    1  A    between atoms: C_2  and  C_16 
REMARK    2  A    between atoms: N_5  and  C_16 
REMARK       I    between atoms: N_5  and  C_6 
REMARK    3  A    between atoms: C_6  and  C_7 
REMARK    4  A    between atoms: C_7  and  C_8 
REMARK    5  A    between atoms: C_7  and  N_12 
REMARK    6  A    between atoms: C_8  and  C_9 
REMARK       I    between atoms: C_9  and  N_10 
ROOT
HETATM    1  C           1     -23.757  -4.408 -10.650  0.00  0.00     0.283 C 
ENDROOT
BRANCH   1   2
HETATM    2  C           1     -22.486  -4.552  -9.849  0.00  0.00     0.249 C 
HETATM    3  N           1     -22.547  -4.705  -8.490  0.00  0.00    -0.345 N 
HETATM    4  H           1     -23.444  -4.720  -8.023  0.00  0.00     0.163 HD
HETATM    5  O           1     -21.415  -4.534 -10.407  0.00  0.00    -0.271 OA
BRANCH   3   6
HETATM    6  C           1     -21.326  -4.844  -7.720  0.00  0.00     0.181 C 
HETATM    7  C           1     -20.973  -3.506  -7.083  0.00  0.00     0.043 C 
BRANCH   6   8
HETATM    8  C           1     -21.528  -5.878  -6.641  0.00  0.00     0.196 C 
HETATM    9  O           1     -20.908  -6.963  -6.690  0.00  0.00    -0.646 OA
HETATM   10  O           1     -22.316  -5.651  -5.697  0.00  0.00    -0.646 OA
ENDBRANCH   6   8
ENDBRANCH   3   6
ENDBRANCH   1   2
BRANCH   1  11
HETATM   11  C           1     -23.759  -3.061 -11.362  0.00  0.00     0.145 C 
BRANCH  11  12
HETATM   12  C           1     -23.467  -3.265 -12.828  0.00  0.00     0.217 C 
HETATM   13  N           1     -22.181  -3.472 -13.248  0.00  0.00    -0.370 N 
HETATM   14  H           1     -21.985  -3.608 -14.232  0.00  0.00     0.159 HD
HETATM   15  H           1     -21.425  -3.487 -12.576  0.00  0.00     0.159 HD
HETATM   16  O           1     -24.369  -3.247 -13.632  0.00  0.00    -0.274 OA
ENDBRANCH  11  12
ENDBRANCH   1  11
BRANCH   1  17
HETATM   17  N           1     -24.938  -4.487  -9.730  0.00  0.00    -0.066 N 
HETATM   18  H           1     -25.313  -3.527  -9.558  0.00  0.00     0.275 HD
HETATM   19  H           1     -25.681  -5.079 -10.167  0.00  0.00     0.275 HD
HETATM   20  H           1     -24.644  -4.913  -8.821  0.00  0.00     0.275 HD
ENDBRANCH   1  17
TORSDOF 6
ENDMDL
MODEL 5
REMARK VINA RESULT:      -6.0      1.978      2.163
REMARK  6 active torsions:
REMARK  status: ('A' for Active; 'I' for Inactive)
REMARK    1  A    between atoms: C_2  and  C_16 
REMARK    2  A    between atoms: N_5  and  C_16 
REMARK       I    between atoms: N_5  and  C_6 
REMARK    3  A    between atoms: C_6  and  C_7 
REMARK    4  A    between atoms: C_7  and  C_8 
REMARK    5  A    between atoms: C_7  and  N_12 
REMARK    6  A    between atoms: C_8  and  C_9 
REMARK       I    between atoms: C_9  and  N_10 
ROOT
HETATM    1  C           1     -34.437  -3.473 -12.645  0.00  0.00     0.283 C 
ENDROOT
BRANCH   1   2
HETATM    2  C           1     -34.995  -2.071 -12.660  0.00  0.00     0.249 C 
HETATM    3  N           1     -35.143  -1.406 -13.847  0.00  0.00    -0.345 N 
HETATM    4  H           1     -34.877  -1.854 -14.715  0.00  0.00     0.163 HD
HETATM    5  O           1     -35.312  -1.536 -11.624  0.00  0.00    -0.271 OA
BRANCH   3   6
HETATM    6  C           1     -35.680  -0.058 -13.862  0.00  0.00     0.181 C 
HETATM    7  C           1     -34.658   0.888 -14.478  0.00  0.00     0.043 C 
BRANCH   6   8
HETATM    8  C           1     -36.948  -0.032 -14.679  0.00  0.00     0.196 C 
HETATM    9  O           1     -37.010   0.666 -15.714  0.00  0.00    -0.646 OA
HETATM   10  O           1     -37.936  -0.708 -14.321  0.00  0.00    -0.646 OA
ENDBRANCH   6   8
ENDBRANCH   3   6
ENDBRANCH   1   2
BRANCH   1  11
HETATM   11  C           1     -33.321  -3.564 -11.613  0.00  0.00     0.145 C 
BRANCH  11  12
HETATM   12  C           1     -32.608  -4.887 -11.757  0.00  0.00     0.217 C 
HETATM   13  N           1     -33.182  -6.030 -11.270  0.00  0.00    -0.370 N 
HETATM   14  H           1     -32.703  -6.916 -11.366  0.00  0.00     0.159 HD
HETATM   15  H           1     -34.083  -5.989 -10.813  0.00  0.00     0.159 HD
HETATM   16  O           1     -31.531  -4.936 -12.303  0.00  0.00    -0.274 OA
ENDBRANCH  11  12
ENDBRANCH   1  11
BRANCH   1  17
HETATM   17  N           1     -33.891  -3.807 -14.001  0.00  0.00    -0.066 N 
HETATM   18  H           1     -33.321  -3.006 -14.356  0.00  0.00     0.275 HD
HETATM   19  H           1     -33.291  -4.660 -13.935  0.00  0.00     0.275 HD
HETATM   20  H           1     -34.682  -3.988 -14.660  0.00  0.00     0.275 HD
ENDBRANCH   1  17
TORSDOF 6
ENDMDL
MODEL 6
REMARK VINA RESULT:      -5.9      7.832      8.776
REMARK  6 active torsions:
REMARK  status: ('A' for Active; 'I' for Inactive)
REMARK    1  A    between atoms: C_2  and  C_16 
REMARK    2  A    between atoms: N_5  and  C_16 
REMARK       I    between atoms: N_5  and  C_6 
REMARK    3  A    between atoms: C_6  and  C_7 
REMARK    4  A    between atoms: C_7  and  C_8 
REMARK    5  A    between atoms: C_7  and  N_12 
REMARK    6  A    between atoms: C_8  and  C_9 
REMARK       I    between atoms: C_9  and  N_10 
ROOT
HETATM    1  C           1     -27.647  -6.479 -16.176  0.00  0.00     0.283 C 
ENDROOT
BRANCH   1   2
HETATM    2  C           1     -28.801  -6.121 -17.079  0.00  0.00     0.249 C 
HETATM    3  N           1     -30.057  -5.964 -16.556  0.00  0.00    -0.345 N 
HETATM    4  H           1     -30.211  -6.089 -15.564  0.00  0.00     0.163 HD
HETATM    5  O           1     -28.618  -5.971 -18.264  0.00  0.00    -0.271 OA
BRANCH   3   6
HETATM    6  C           1     -31.167  -5.620 -17.424  0.00  0.00     0.181 C 
HETATM    7  C           1     -32.236  -6.700 -17.333  0.00  0.00     0.043 C 
BRANCH   6   8
HETATM    8  C           1     -31.749  -4.296 -16.994  0.00  0.00     0.196 C 
HETATM    9  O           1     -32.722  -4.267 -16.209  0.00  0.00    -0.646 OA
HETATM   10  O           1     -31.258  -3.229 -17.421  0.00  0.00    -0.646 OA
ENDBRANCH   6   8
ENDBRANCH   3   6
ENDBRANCH   1   2
BRANCH   1  11
HETATM   11  C           1     -26.343  -6.383 -16.956  0.00  0.00     0.145 C 
BRANCH  11  12
HETATM   12  C           1     -25.246  -7.087 -16.194  0.00  0.00     0.217 C 
HETATM   13  N           1     -24.277  -7.776 -16.871  0.00  0.00    -0.370 N 
HETATM   14  H           1     -23.542  -8.248 -16.359  0.00  0.00     0.159 HD
HETATM   15  H           1     -24.295  -7.816 -17.881  0.00  0.00     0.159 HD
HETATM   16  O           1     -25.224  -7.040 -14.987  0.00  0.00    -0.274 OA
ENDBRANCH  11  12
ENDBRANCH   1  11
BRANCH   1  17
HETATM   17  N           1     -27.825  -7.880 -15.670  0.00  0.00    -0.066 N 
HETATM   18  H           1     -28.807  -8.010 -15.337  0.00  0.00     0.275 HD
HETATM   19  H           1     -27.626  -8.556 -16.442  0.00  0.00     0.275 HD
HETATM   20  H           1     -27.164  -8.051 -14.879  0.00  0.00     0.275 HD
ENDBRANCH   1  17
TORSDOF 6
ENDMDL
MODEL 7
REMARK VINA RESULT:      -5.9      3.181      4.305
REMARK  6 active torsions:
REMARK  status: ('A' for Active; 'I' for Inactive)
REMARK    1  A    between atoms: C_2  and  C_16 
REMARK    2  A    between atoms: N_5  and  C_16 
REMARK       I    between atoms: N_5  and  C_6 
REMARK    3  A    between atoms: C_6  and  C_7 
REMARK    4  A    between atoms: C_7  and  C_8 
REMARK    5  A    between atoms: C_7  and  N_12 
REMARK    6  A    between atoms: C_8  and  C_9 
REMARK       I    between atoms: C_9  and  N_10 
ROOT
HETATM    1  C           1     -34.802  -5.564 -11.318  0.00  0.00     0.283 C 
ENDROOT
BRANCH   1   2
HETATM    2  C           1     -34.513  -4.110 -11.040  0.00  0.00     0.249 C 
HETATM    3  N           1     -35.477  -3.165 -11.269  0.00  0.00    -0.345 N 
HETATM    4  H           1     -36.382  -3.441 -11.626  0.00  0.00     0.163 HD
HETATM    5  O           1     -33.433  -3.779 -10.613  0.00  0.00    -0.271 OA
BRANCH   3   6
HETATM    6  C           1     -35.199  -1.766 -11.002  0.00  0.00     0.181 C 
HETATM    7  C           1     -34.881  -1.053 -12.309  0.00  0.00     0.043 C 
BRANCH   6   8
HETATM    8  C           1     -36.407  -1.129 -10.361  0.00  0.00     0.196 C 
HETATM    9  O           1     -37.543  -1.306 -10.853  0.00  0.00    -0.646 OA
HETATM   10  O           1     -36.272  -0.423  -9.337  0.00  0.00    -0.646 OA
ENDBRANCH   6   8
ENDBRANCH   3   6
ENDBRANCH   1   2
BRANCH   1  11
HETATM   11  C           1     -33.700  -6.426 -10.715  0.00  0.00     0.145 C 
BRANCH  11  12
HETATM   12  C           1     -34.287  -7.725 -10.222  0.00  0.00     0.217 C 
HETATM   13  N           1     -33.576  -8.888 -10.345  0.00  0.00    -0.370 N 
HETATM   14  H           1     -33.971  -9.759 -10.014  0.00  0.00     0.159 HD
HETATM   15  H           1     -32.657  -8.878 -10.768  0.00  0.00     0.159 HD
HETATM   16  O           1     -35.385  -7.738  -9.716  0.00  0.00    -0.274 OA
ENDBRANCH  11  12
ENDBRANCH   1  11
BRANCH   1  17
HETATM   17  N           1     -34.857  -5.788 -12.800  0.00  0.00    -0.066 N 
HETATM   18  H           1     -35.650  -5.242 -13.207  0.00  0.00     0.275 HD
HETATM   19  H           1     -33.959  -5.474 -13.233  0.00  0.00     0.275 HD
HETATM   20  H           1     -35.000  -6.805 -12.993  0.00  0.00     0.275 HD
ENDBRANCH   1  17
TORSDOF 6
ENDMDL
MODEL 8
REMARK VINA RESULT:      -5.8     13.517     14.623
REMARK  6 active torsions:
REMARK  status: ('A' for Active; 'I' for Inactive)
REMARK    1  A    between atoms: C_2  and  C_16 
REMARK    2  A    between atoms: N_5  and  C_16 
REMARK       I    between atoms: N_5  and  C_6 
REMARK    3  A    between atoms: C_6  and  C_7 
REMARK    4  A    between atoms: C_7  and  C_8 
REMARK    5  A    between atoms: C_7  and  N_12 
REMARK    6  A    between atoms: C_8  and  C_9 
REMARK       I    between atoms: C_9  and  N_10 
ROOT
HETATM    1  C           1     -21.132  -5.761  -6.653  0.00  0.00     0.283 C 
ENDROOT
BRANCH   1   2
HETATM    2  C           1     -21.615  -4.574  -7.449  0.00  0.00     0.249 C 
HETATM    3  N           1     -22.295  -4.767  -8.621  0.00  0.00    -0.345 N 
HETATM    4  H           1     -22.472  -5.706  -8.954  0.00  0.00     0.163 HD
HETATM    5  O           1     -21.404  -3.453  -7.051  0.00  0.00    -0.271 OA
BRANCH   3   6
HETATM    6  C           1     -22.760  -3.626  -9.387  0.00  0.00     0.181 C 
HETATM    7  C           1     -21.995  -3.551 -10.701  0.00  0.00     0.043 C 
BRANCH   6   8
HETATM    8  C           1     -24.234  -3.780  -9.670  0.00  0.00     0.196 C 
HETATM    9  O           1     -24.689  -4.885 -10.035  0.00  0.00    -0.646 OA
HETATM   10  O           1     -25.001  -2.801  -9.540  0.00  0.00    -0.646 OA
ENDBRANCH   6   8
ENDBRANCH   3   6
ENDBRANCH   1   2
BRANCH   1  11
HETATM   11  C           1     -20.845  -5.329  -5.220  0.00  0.00     0.145 C 
BRANCH  11  12
HETATM   12  C           1     -21.309  -6.403  -4.267  0.00  0.00     0.217 C 
HETATM   13  N           1     -21.935  -6.058  -3.100  0.00  0.00    -0.370 N 
HETATM   14  H           1     -22.246  -6.778  -2.461  0.00  0.00     0.159 HD
HETATM   15  H           1     -22.086  -5.083  -2.875  0.00  0.00     0.159 HD
HETATM   16  O           1     -21.130  -7.567  -4.535  0.00  0.00    -0.274 OA
ENDBRANCH  11  12
ENDBRANCH   1  11
BRANCH   1  17
HETATM   17  N           1     -19.877  -6.300  -7.272  0.00  0.00    -0.066 N 
HETATM   18  H           1     -19.400  -5.542  -7.812  0.00  0.00     0.275 HD
HETATM   19  H           1     -19.239  -6.647  -6.521  0.00  0.00     0.275 HD
HETATM   20  H           1     -20.116  -7.087  -7.917  0.00  0.00     0.275 HD
ENDBRANCH   1  17
TORSDOF 6
ENDMDL
MODEL 9
REMARK VINA RESULT:      -5.8      1.940      2.409
REMARK  6 active torsions:
REMARK  status: ('A' for Active; 'I' for Inactive)
REMARK    1  A    between atoms: C_2  and  C_16 
REMARK    2  A    between atoms: N_5  and  C_16 
REMARK       I    between atoms: N_5  and  C_6 
REMARK    3  A    between atoms: C_6  and  C_7 
REMARK    4  A    between atoms: C_7  and  C_8 
REMARK    5  A    between atoms: C_7  and  N_12 
REMARK    6  A    between atoms: C_8  and  C_9 
REMARK       I    between atoms: C_9  and  N_10 
ROOT
HETATM    1  C           1     -34.004  -4.789 -11.880  0.00  0.00     0.283 C 
ENDROOT
BRANCH   1   2
HETATM    2  C           1     -34.836  -3.539 -12.028  0.00  0.00     0.249 C 
HETATM    3  N           1     -34.491  -2.593 -12.956  0.00  0.00    -0.345 N 
HETATM    4  H           1     -33.677  -2.732 -13.541  0.00  0.00     0.163 HD
HETATM    5  O           1     -35.807  -3.374 -11.329  0.00  0.00    -0.271 OA
BRANCH   3   6
HETATM    6  C           1     -35.291  -1.392 -13.098  0.00  0.00     0.181 C 
HETATM    7  C           1     -34.818  -0.346 -12.097  0.00  0.00     0.043 C 
BRANCH   6   8
HETATM    8  C           1     -35.140  -0.852 -14.499  0.00  0.00     0.196 C 
HETATM    9  O           1     -34.716   0.310 -14.680  0.00  0.00    -0.646 OA
HETATM   10  O           1     -35.439  -1.568 -15.480  0.00  0.00    -0.646 OA
ENDBRANCH   6   8
ENDBRANCH   3   6
ENDBRANCH   1   2
BRANCH   1  11
HETATM   11  C           1     -34.063  -5.271 -10.436  0.00  0.00     0.145 C 
BRANCH  11  12
HETATM   12  C           1     -34.676  -6.649 -10.389  0.00  0.00     0.217 C 
HETATM   13  N           1     -35.031  -7.281 -11.550  0.00  0.00    -0.370 N 
HETATM   14  H           1     -35.443  -8.204 -11.518  0.00  0.00     0.159 HD
HETATM   15  H           1     -34.882  -6.824 -12.441  0.00  0.00     0.159 HD
HETATM   16  O           1     -34.854  -7.195  -9.326  0.00  0.00    -0.274 OA
ENDBRANCH  11  12
ENDBRANCH   1  11
BRANCH   1  17
HETATM   17  N           1     -32.581  -4.488 -12.248  0.00  0.00    -0.066 N 
HETATM   18  H           1     -31.937  -5.034 -11.631  0.00  0.00     0.275 HD
HETATM   19  H           1     -32.416  -4.753 -13.245  0.00  0.00     0.275 HD
HETATM   20  H           1     -32.398  -3.467 -12.123  0.00  0.00     0.275 HD
ENDBRANCH   1  17
TORSDOF 6
ENDMDL
