MODEL 1
REMARK VINA RESULT:      -6.7      0.000      0.000
REMARK  8 active torsions:
REMARK  status: ('A' for Active; 'I' for Inactive)
REMARK    1  A    between atoms: C_1  and  C_2 
REMARK    2  A    between atoms: C_1  and  C_14 
REMARK    3  A    between atoms: C_1  and  N_9 
REMARK       I    between atoms: C_2  and  N_3 
REMARK    4  A    between atoms: N_3  and  C_7 
REMARK    5  A    between atoms: C_6  and  C_7 
REMARK    6  A    between atoms: C_7  and  C_20 
REMARK    7  A    between atoms: C_11  and  C_14 
REMARK    8  A    between atoms: C_11  and  C_12 
ROOT
HETATM    1  C           1     -21.642  -4.722  -7.686  0.00  0.00     0.249 C 
HETATM    2  N           1     -22.141  -4.919  -8.946  0.00  0.00    -0.344 N 
HETATM    3  O           1     -21.608  -3.609  -7.216  0.00  0.00    -0.271 OA
HETATM    4  H           1     -22.170  -5.851  -9.338  0.00  0.00     0.163 HD
ENDROOT
BRANCH   1   5
HETATM    5  C           1     -21.136  -5.895  -6.883  0.00  0.00     0.275 C 
BRANCH   5   6
HETATM    6  C           1     -21.186  -5.556  -5.399  0.00  0.00     0.053 C 
BRANCH   6   7
HETATM    7  C           1     -22.146  -6.504  -4.693  0.00  0.00     0.115 C 
BRANCH   7   8
HETATM    8  C           1     -21.786  -6.589  -3.230  0.00  0.00     0.172 C 
HETATM    9  O           1     -22.418  -5.911  -2.390  0.00  0.00    -0.648 OA
HETATM   10  O           1     -20.856  -7.337  -2.859  0.00  0.00    -0.648 OA
ENDBRANCH   7   8
ENDBRANCH   6   7
ENDBRANCH   5   6
BRANCH   5  11
HETATM   11  N           1     -19.721  -6.198  -7.279  0.00  0.00    -0.066 N 
HETATM   12  H           1     -19.296  -6.849  -6.581  0.00  0.00     0.275 HD
HETATM   13  H           1     -19.713  -6.645  -8.223  0.00  0.00     0.275 HD
HETATM   14  H           1     -19.171  -5.310  -7.307  0.00  0.00     0.275 HD
ENDBRANCH   5  11
ENDBRANCH   1   5
BRANCH   2  15
HETATM   15  C           1     -22.627  -3.791  -9.717  0.00  0.00     0.189 C 
BRANCH  15  16
HETATM   16  C           1     -24.136  -3.822  -9.756  0.00  0.00     0.197 C 
HETATM   17  O           1     -24.730  -4.873 -10.077  0.00  0.00    -0.646 OA
HETATM   18  O           1     -24.789  -2.797  -9.467  0.00  0.00    -0.646 OA
ENDBRANCH  15  16
BRANCH  15  19
HETATM   19  C           1     -22.080  -3.874 -11.135  0.00  0.00     0.010 C 
HETATM   20  C           1     -22.579  -2.682 -11.941  0.00  0.00     0.012 C 
HETATM   21  C           1     -20.557  -3.857 -11.093  0.00  0.00     0.012 C 
ENDBRANCH  15  19
ENDBRANCH   2  15
TORSDOF 8
ENDMDL
MODEL 2
REMARK VINA RESULT:      -6.4     13.026     14.626
REMARK  8 active torsions:
REMARK  status: ('A' for Active; 'I' for Inactive)
REMARK    1  A    between atoms: C_1  and  C_2 
REMARK    2  A    between atoms: C_1  and  C_14 
REMARK    3  A    between atoms: C_1  and  N_9 
REMARK       I    between atoms: C_2  and  N_3 
REMARK    4  A    between atoms: N_3  and  C_7 
REMARK    5  A    between atoms: C_6  and  C_7 
REMARK    6  A    between atoms: C_7  and  C_20 
REMARK    7  A    between atoms: C_11  and  C_14 
REMARK    8  A    between atoms: C_11  and  C_12 
ROOT
HETATM    1  C           1     -35.243  -1.758 -12.645  0.00  0.00     0.249 C 
HETATM    2  N           1     -34.784  -1.292 -13.848  0.00  0.00    -0.344 N 
HETATM    3  O           1     -36.375  -1.520 -12.297  0.00  0.00    -0.271 OA
HETATM    4  H           1     -33.836  -1.492 -14.139  0.00  0.00     0.163 HD
ENDROOT
BRANCH   1   5
HETATM    5  C           1     -34.335  -2.570 -11.754  0.00  0.00     0.275 C 
BRANCH   5   6
HETATM    6  C           1     -35.145  -3.654 -11.055  0.00  0.00     0.053 C 
BRANCH   6   7
HETATM    7  C           1     -34.204  -4.722 -10.515  0.00  0.00     0.115 C 
BRANCH   7   8
HETATM    8  C           1     -34.597  -6.069 -11.074  0.00  0.00     0.172 C 
HETATM    9  O           1     -35.013  -6.161 -12.249  0.00  0.00    -0.648 OA
HETATM   10  O           1     -34.505  -7.091 -10.360  0.00  0.00    -0.648 OA
ENDBRANCH   7   8
ENDBRANCH   6   7
ENDBRANCH   5   6
BRANCH   5  11
HETATM   11  N           1     -33.710  -1.673 -10.727  0.00  0.00    -0.066 N 
HETATM   12  H           1     -32.747  -1.410 -11.034  0.00  0.00     0.275 HD
HETATM   13  H           1     -34.290  -0.811 -10.620  0.00  0.00     0.275 HD
HETATM   14  H           1     -33.658  -2.176  -9.812  0.00  0.00     0.275 HD
ENDBRANCH   5  11
ENDBRANCH   1   5
BRANCH   2  15
HETATM   15  C           1     -35.656  -0.511 -14.703  0.00  0.00     0.189 C 
BRANCH  15  16
HETATM   16  C           1     -35.848  -1.231 -16.016  0.00  0.00     0.197 C 
HETATM   17  O           1     -36.997  -1.377 -16.486  0.00  0.00    -0.646 OA
HETATM   18  O           1     -34.858  -1.679 -16.634  0.00  0.00    -0.646 OA
ENDBRANCH  15  16
BRANCH  15  19
HETATM   19  C           1     -35.029   0.852 -14.958  0.00  0.00     0.010 C 
HETATM   20  C           1     -36.035   1.749 -15.667  0.00  0.00     0.012 C 
HETATM   21  C           1     -34.631   1.484 -13.631  0.00  0.00     0.012 C 
ENDBRANCH  15  19
ENDBRANCH   2  15
TORSDOF 8
ENDMDL
MODEL 3
REMARK VINA RESULT:      -6.2     12.221     13.641
REMARK  8 active torsions:
REMARK  status: ('A' for Active; 'I' for Inactive)
REMARK    1  A    between atoms: C_1  and  C_2 
REMARK    2  A    between atoms: C_1  and  C_14 
REMARK    3  A    between atoms: C_1  and  N_9 
REMARK       I    between atoms: C_2  and  N_3 
REMARK    4  A    between atoms: N_3  and  C_7 
REMARK    5  A    between atoms: C_6  and  C_7 
REMARK    6  A    between atoms: C_7  and  C_20 
REMARK    7  A    between atoms: C_11  and  C_14 
REMARK    8  A    between atoms: C_11  and  C_12 
ROOT
HETATM    1  C           1     -33.830  -2.981 -11.803  0.00  0.00     0.249 C 
HETATM    2  N           1     -34.777  -2.319 -12.536  0.00  0.00    -0.344 N 
HETATM    3  O           1     -33.165  -2.382 -10.991  0.00  0.00    -0.271 OA
HETATM    4  H           1     -35.334  -2.821 -13.214  0.00  0.00     0.163 HD
ENDROOT
BRANCH   1   5
HETATM    5  C           1     -33.617  -4.461 -12.007  0.00  0.00     0.275 C 
BRANCH   5   6
HETATM    6  C           1     -34.022  -5.212 -10.745  0.00  0.00     0.053 C 
BRANCH   6   7
HETATM    7  C           1     -33.501  -6.641 -10.815  0.00  0.00     0.115 C 
BRANCH   7   8
HETATM    8  C           1     -34.403  -7.547 -10.012  0.00  0.00     0.172 C 
HETATM    9  O           1     -34.090  -8.744  -9.837  0.00  0.00    -0.648 OA
HETATM   10  O           1     -35.462  -7.099  -9.523  0.00  0.00    -0.648 OA
ENDBRANCH   7   8
ENDBRANCH   6   7
ENDBRANCH   5   6
BRANCH   5  11
HETATM   11  N           1     -32.169  -4.722 -12.299  0.00  0.00    -0.066 N 
HETATM   12  H           1     -31.580  -4.021 -11.797  0.00  0.00     0.275 HD
HETATM   13  H           1     -31.917  -5.683 -11.978  0.00  0.00     0.275 HD
HETATM   14  H           1     -32.002  -4.642 -13.329  0.00  0.00     0.275 HD
ENDBRANCH   5  11
ENDBRANCH   1   5
BRANCH   2  15
HETATM   15  C           1     -34.982  -0.897 -12.339  0.00  0.00     0.189 C 
BRANCH  15  16
HETATM   16  C           1     -36.121  -0.681 -11.373  0.00  0.00     0.197 C 
HETATM   17  O           1     -36.207   0.391 -10.737  0.00  0.00    -0.646 OA
HETATM   18  O           1     -36.980  -1.575 -11.210  0.00  0.00    -0.646 OA
ENDBRANCH  15  16
BRANCH  15  19
HETATM   19  C           1     -35.317  -0.244 -13.673  0.00  0.00     0.010 C 
HETATM   20  C           1     -36.828  -0.105 -13.805  0.00  0.00     0.012 C 
HETATM   21  C           1     -34.672   1.135 -13.739  0.00  0.00     0.012 C 
ENDBRANCH  15  19
ENDBRANCH   2  15
TORSDOF 8
ENDMDL
MODEL 4
REMARK VINA RESULT:      -6.1     12.661     14.240
REMARK  8 active torsions:
REMARK  status: ('A' for Active; 'I' for Inactive)
REMARK    1  A    between atoms: C_1  and  C_2 
REMARK    2  A    between atoms: C_1  and  C_14 
REMARK    3  A    between atoms: C_1  and  N_9 
REMARK       I    between atoms: C_2  and  N_3 
REMARK    4  A    between atoms: N_3  and  C_7 
REMARK    5  A    between atoms: C_6  and  C_7 
REMARK    6  A    between atoms: C_7  and  C_20 
REMARK    7  A    between atoms: C_11  and  C_14 
REMARK    8  A    between atoms: C_11  and  C_12 
ROOT
HETATM    1  C           1     -34.276  -2.672 -12.706  0.00  0.00     0.249 C 
HETATM    2  N           1     -34.866  -1.444 -12.566  0.00  0.00    -0.344 N 
HETATM    3  O           1     -34.517  -3.352 -13.675  0.00  0.00    -0.271 OA
HETATM    4  H           1     -34.663  -0.875 -11.755  0.00  0.00     0.163 HD
ENDROOT
BRANCH   1   5
HETATM    5  C           1     -33.321  -3.174 -11.650  0.00  0.00     0.275 C 
BRANCH   5   6
HETATM    6  C           1     -33.412  -4.692 -11.564  0.00  0.00     0.053 C 
BRANCH   6   7
HETATM    7  C           1     -34.139  -5.085 -10.285  0.00  0.00     0.115 C 
BRANCH   7   8
HETATM    8  C           1     -34.687  -6.485 -10.426  0.00  0.00     0.172 C 
HETATM    9  O           1     -34.824  -7.208  -9.415  0.00  0.00    -0.648 OA
HETATM   10  O           1     -35.003  -6.921 -11.554  0.00  0.00    -0.648 OA
ENDBRANCH   7   8
ENDBRANCH   6   7
ENDBRANCH   5   6
BRANCH   5  11
HETATM   11  N           1     -33.684  -2.576 -10.323  0.00  0.00    -0.066 N 
HETATM   12  H           1     -34.040  -1.605 -10.465  0.00  0.00     0.275 HD
HETATM   13  H           1     -34.425  -3.157  -9.871  0.00  0.00     0.275 HD
HETATM   14  H           1     -32.837  -2.550  -9.710  0.00  0.00     0.275 HD
ENDBRANCH   5  11
ENDBRANCH   1   5
BRANCH   2  15
HETATM   15  C           1     -35.783  -0.961 -13.580  0.00  0.00     0.189 C 
BRANCH  15  16
HETATM   16  C           1     -35.003  -0.283 -14.680  0.00  0.00     0.197 C 
HETATM   17  O           1     -34.987  -0.776 -15.829  0.00  0.00    -0.646 OA
HETATM   18  O           1     -34.376   0.771 -14.443  0.00  0.00    -0.646 OA
ENDBRANCH  15  16
BRANCH  15  19
HETATM   19  C           1     -36.751   0.034 -12.955  0.00  0.00     0.010 C 
HETATM   20  C           1     -38.072  -0.001 -13.712  0.00  0.00     0.012 C 
HETATM   21  C           1     -36.991  -0.338 -11.498  0.00  0.00     0.012 C 
ENDBRANCH  15  19
ENDBRANCH   2  15
TORSDOF 8
ENDMDL
MODEL 5
REMARK VINA RESULT:      -6.0      2.245      6.815
REMARK  8 active torsions:
REMARK  status: ('A' for Active; 'I' for Inactive)
REMARK    1  A    between atoms: C_1  and  C_2 
REMARK    2  A    between atoms: C_1  and  C_14 
REMARK    3  A    between atoms: C_1  and  N_9 
REMARK       I    between atoms: C_2  and  N_3 
REMARK    4  A    between atoms: N_3  and  C_7 
REMARK    5  A    between atoms: C_6  and  C_7 
REMARK    6  A    between atoms: C_7  and  C_20 
REMARK    7  A    between atoms: C_11  and  C_14 
REMARK    8  A    between atoms: C_11  and  C_12 
ROOT
HETATM    1  C           1     -22.321  -4.177  -8.077  0.00  0.00     0.249 C 
HETATM    2  N           1     -22.053  -5.331  -7.390  0.00  0.00    -0.344 N 
HETATM    3  O           1     -21.774  -3.146  -7.764  0.00  0.00    -0.271 OA
HETATM    4  H           1     -22.510  -6.194  -7.652  0.00  0.00     0.163 HD
ENDROOT
BRANCH   1   5
HETATM    5  C           1     -23.298  -4.194  -9.227  0.00  0.00     0.275 C 
BRANCH   5   6
HETATM    6  C           1     -22.670  -3.516 -10.438  0.00  0.00     0.053 C 
BRANCH   6   7
HETATM    7  C           1     -23.001  -4.312 -11.693  0.00  0.00     0.115 C 
BRANCH   7   8
HETATM    8  C           1     -24.094  -3.611 -12.461  0.00  0.00     0.172 C 
HETATM    9  O           1     -24.093  -3.633 -13.711  0.00  0.00    -0.648 OA
HETATM   10  O           1     -25.000  -3.007 -11.847  0.00  0.00    -0.648 OA
ENDBRANCH   7   8
ENDBRANCH   6   7
ENDBRANCH   5   6
BRANCH   5  11
HETATM   11  N           1     -24.544  -3.458  -8.834  0.00  0.00    -0.066 N 
HETATM   12  H           1     -24.885  -3.817  -7.914  0.00  0.00     0.275 HD
HETATM   13  H           1     -24.335  -2.438  -8.754  0.00  0.00     0.275 HD
HETATM   14  H           1     -25.280  -3.608  -9.561  0.00  0.00     0.275 HD
ENDBRANCH   5  11
ENDBRANCH   1   5
BRANCH   2  15
HETATM   15  C           1     -21.114  -5.315  -6.285  0.00  0.00     0.189 C 
BRANCH  15  16
HETATM   16  C           1     -19.740  -5.685  -6.788  0.00  0.00     0.197 C 
HETATM   17  O           1     -19.418  -6.888  -6.896  0.00  0.00    -0.646 OA
HETATM   18  O           1     -18.925  -4.789  -7.097  0.00  0.00    -0.646 OA
ENDBRANCH  15  16
BRANCH  15  19
HETATM   19  C           1     -21.557  -6.318  -5.229  0.00  0.00     0.010 C 
HETATM   20  C           1     -21.043  -5.877  -3.864  0.00  0.00     0.012 C 
HETATM   21  C           1     -23.078  -6.387  -5.201  0.00  0.00     0.012 C 
ENDBRANCH  15  19
ENDBRANCH   2  15
TORSDOF 8
ENDMDL
MODEL 6
REMARK VINA RESULT:      -5.7      2.768      6.675
REMARK  8 active torsions:
REMARK  status: ('A' for Active; 'I' for Inactive)
REMARK    1  A    between atoms: C_1  and  C_2 
REMARK    2  A    between atoms: C_1  and  C_14 
REMARK    3  A    between atoms: C_1  and  N_9 
REMARK       I    between atoms: C_2  and  N_3 
REMARK    4  A    between atoms: N_3  and  C_7 
REMARK    5  A    between atoms: C_6  and  C_7 
REMARK    6  A    between atoms: C_7  and  C_20 
REMARK    7  A    between atoms: C_11  and  C_14 
REMARK    8  A    between atoms: C_11  and  C_12 
ROOT
HETATM    1  C           1     -22.931  -4.233  -8.868  0.00  0.00     0.249 C 
HETATM    2  N           1     -22.065  -5.088  -8.240  0.00  0.00    -0.344 N 
HETATM    3  O           1     -22.819  -3.040  -8.716  0.00  0.00    -0.271 OA
HETATM    4  H           1     -22.158  -6.087  -8.368  0.00  0.00     0.163 HD
ENDROOT
BRANCH   1   5
HETATM    5  C           1     -24.024  -4.782  -9.752  0.00  0.00     0.275 C 
BRANCH   5   6
HETATM    6  C           1     -23.523  -4.865 -11.188  0.00  0.00     0.053 C 
BRANCH   6   7
HETATM    7  C           1     -23.270  -3.461 -11.719  0.00  0.00     0.115 C 
BRANCH   7   8
HETATM    8  C           1     -24.205  -3.182 -12.871  0.00  0.00     0.172 C 
HETATM    9  O           1     -25.398  -2.880 -12.649  0.00  0.00    -0.648 OA
HETATM   10  O           1     -23.786  -3.253 -14.047  0.00  0.00    -0.648 OA
ENDBRANCH   7   8
ENDBRANCH   6   7
ENDBRANCH   5   6
BRANCH   5  11
HETATM   11  N           1     -25.218  -3.876  -9.691  0.00  0.00    -0.066 N 
HETATM   12  H           1     -25.247  -3.400  -8.762  0.00  0.00     0.275 HD
HETATM   13  H           1     -25.150  -3.160 -10.448  0.00  0.00     0.275 HD
HETATM   14  H           1     -26.089  -4.440  -9.820  0.00  0.00     0.275 HD
ENDBRANCH   5  11
ENDBRANCH   1   5
BRANCH   2  15
HETATM   15  C           1     -21.015  -4.560  -7.391  0.00  0.00     0.189 C 
BRANCH  15  16
HETATM   16  C           1     -19.720  -4.510  -8.165  0.00  0.00     0.197 C 
HETATM   17  O           1     -19.700  -4.836  -9.371  0.00  0.00    -0.646 OA
HETATM   18  O           1     -18.668  -4.140  -7.599  0.00  0.00    -0.646 OA
ENDBRANCH  15  16
BRANCH  15  19
HETATM   19  C           1     -20.845  -5.461  -6.175  0.00  0.00     0.010 C 
HETATM   20  C           1     -22.216  -5.882  -5.661  0.00  0.00     0.012 C 
HETATM   21  C           1     -20.047  -6.698  -6.567  0.00  0.00     0.012 C 
ENDBRANCH  15  19
ENDBRANCH   2  15
TORSDOF 8
ENDMDL
MODEL 7
REMARK VINA RESULT:      -5.6      1.916      6.687
REMARK  8 active torsions:
REMARK  status: ('A' for Active; 'I' for Inactive)
REMARK    1  A    between atoms: C_1  and  C_2 
REMARK    2  A    between atoms: C_1  and  C_14 
REMARK    3  A    between atoms: C_1  and  N_9 
REMARK       I    between atoms: C_2  and  N_3 
REMARK    4  A    between atoms: N_3  and  C_7 
REMARK    5  A    between atoms: C_6  and  C_7 
REMARK    6  A    between atoms: C_7  and  C_20 
REMARK    7  A    between atoms: C_11  and  C_14 
REMARK    8  A    between atoms: C_11  and  C_12 
ROOT
HETATM    1  C           1     -21.291  -5.573  -5.570  0.00  0.00     0.249 C 
HETATM    2  N           1     -20.669  -6.424  -4.696  0.00  0.00    -0.344 N 
HETATM    3  O           1     -22.490  -5.618  -5.706  0.00  0.00    -0.271 OA
HETATM    4  H           1     -19.664  -6.385  -4.581  0.00  0.00     0.163 HD
ENDROOT
BRANCH   1   5
HETATM    5  C           1     -20.478  -4.578  -6.361  0.00  0.00     0.275 C 
BRANCH   5   6
HETATM    6  C           1     -21.412  -3.694  -7.178  0.00  0.00     0.053 C 
BRANCH   6   7
HETATM    7  C           1     -21.342  -4.100  -8.644  0.00  0.00     0.115 C 
BRANCH   7   8
HETATM    8  C           1     -22.672  -3.829  -9.305  0.00  0.00     0.172 C 
HETATM    9  O           1     -23.735  -4.037  -8.681  0.00  0.00    -0.648 OA
HETATM   10  O           1     -22.709  -3.397 -10.478  0.00  0.00    -0.648 OA
ENDBRANCH   7   8
ENDBRANCH   6   7
ENDBRANCH   5   6
BRANCH   5  11
HETATM   11  N           1     -19.551  -5.312  -7.284  0.00  0.00    -0.066 N 
HETATM   12  H           1     -20.104  -5.946  -7.902  0.00  0.00     0.275 HD
HETATM   13  H           1     -19.027  -4.623  -7.870  0.00  0.00     0.275 HD
HETATM   14  H           1     -18.875  -5.877  -6.720  0.00  0.00     0.275 HD
ENDBRANCH   5  11
ENDBRANCH   1   5
BRANCH   2  15
HETATM   15  C           1     -21.449  -7.380  -3.935  0.00  0.00     0.189 C 
BRANCH  15  16
HETATM   16  C           1     -21.649  -6.863  -2.531  0.00  0.00     0.197 C 
HETATM   17  O           1     -21.018  -7.375  -1.582  0.00  0.00    -0.646 OA
HETATM   18  O           1     -22.442  -5.921  -2.319  0.00  0.00    -0.646 OA
ENDBRANCH  15  16
BRANCH  15  19
HETATM   19  C           1     -20.713  -8.711  -3.887  0.00  0.00     0.010 C 
HETATM   20  C           1     -21.683  -9.840  -4.212  0.00  0.00     0.012 C 
HETATM   21  C           1     -19.582  -8.703  -4.907  0.00  0.00     0.012 C 
ENDBRANCH  15  19
ENDBRANCH   2  15
TORSDOF 8
ENDMDL
MODEL 8
REMARK VINA RESULT:      -5.6      2.119      6.814
REMARK  8 active torsions:
REMARK  status: ('A' for Active; 'I' for Inactive)
REMARK    1  A    between atoms: C_1  and  C_2 
REMARK    2  A    between atoms: C_1  and  C_14 
REMARK    3  A    between atoms: C_1  and  N_9 
REMARK       I    between atoms: C_2  and  N_3 
REMARK    4  A    between atoms: N_3  and  C_7 
REMARK    5  A    between atoms: C_6  and  C_7 
REMARK    6  A    between atoms: C_7  and  C_20 
REMARK    7  A    between atoms: C_11  and  C_14 
REMARK    8  A    between atoms: C_11  and  C_12 
ROOT
HETATM    1  C           1     -21.144  -5.268  -6.313  0.00  0.00     0.249 C 
HETATM    2  N           1     -21.650  -6.162  -5.407  0.00  0.00    -0.344 N 
HETATM    3  O           1     -19.949  -5.160  -6.452  0.00  0.00    -0.271 OA
HETATM    4  H           1     -22.651  -6.252  -5.291  0.00  0.00     0.163 HD
ENDROOT
BRANCH   1   5
HETATM    5  C           1     -22.080  -4.419  -7.138  0.00  0.00     0.275 C 
BRANCH   5   6
HETATM    6  C           1     -22.044  -4.885  -8.588  0.00  0.00     0.053 C 
BRANCH   6   7
HETATM    7  C           1     -22.396  -3.721  -9.504  0.00  0.00     0.115 C 
BRANCH   7   8
HETATM    8  C           1     -23.718  -3.992 -10.180  0.00  0.00     0.172 C 
HETATM    9  O           1     -24.398  -3.044 -10.626  0.00  0.00    -0.648 OA
HETATM   10  O           1     -24.132  -5.167 -10.292  0.00  0.00    -0.648 OA
ENDBRANCH   7   8
ENDBRANCH   6   7
ENDBRANCH   5   6
BRANCH   5  11
HETATM   11  N           1     -21.649  -2.984  -7.063  0.00  0.00    -0.066 N 
HETATM   12  H           1     -21.272  -2.685  -7.990  0.00  0.00     0.275 HD
HETATM   13  H           1     -22.469  -2.388  -6.811  0.00  0.00     0.275 HD
HETATM   14  H           1     -20.905  -2.882  -6.335  0.00  0.00     0.275 HD
ENDBRANCH   5  11
ENDBRANCH   1   5
BRANCH   2  15
HETATM   15  C           1     -20.751  -6.978  -4.614  0.00  0.00     0.189 C 
BRANCH  15  16
HETATM   16  C           1     -20.392  -8.225  -5.385  0.00  0.00     0.197 C 
HETATM   17  O           1     -19.199  -8.458  -5.674  0.00  0.00    -0.646 OA
HETATM   18  O           1     -21.288  -9.024  -5.731  0.00  0.00    -0.646 OA
ENDBRANCH  15  16
BRANCH  15  19
HETATM   19  C           1     -21.435  -7.365  -3.310  0.00  0.00     0.010 C 
HETATM   20  C           1     -20.463  -8.155  -2.443  0.00  0.00     0.012 C 
HETATM   21  C           1     -21.868  -6.106  -2.571  0.00  0.00     0.012 C 
ENDBRANCH  15  19
ENDBRANCH   2  15
TORSDOF 8
ENDMDL
MODEL 9
REMARK VINA RESULT:      -5.5      3.440      8.046
REMARK  8 active torsions:
REMARK  status: ('A' for Active; 'I' for Inactive)
REMARK    1  A    between atoms: C_1  and  C_2 
REMARK    2  A    between atoms: C_1  and  C_14 
REMARK    3  A    between atoms: C_1  and  N_9 
REMARK       I    between atoms: C_2  and  N_3 
REMARK    4  A    between atoms: N_3  and  C_7 
REMARK    5  A    between atoms: C_6  and  C_7 
REMARK    6  A    between atoms: C_7  and  C_20 
REMARK    7  A    between atoms: C_11  and  C_14 
REMARK    8  A    between atoms: C_11  and  C_12 
ROOT
HETATM    1  C           1     -20.390  -8.241  -3.664  0.00  0.00     0.249 C 
HETATM    2  N           1     -21.528  -8.313  -2.905  0.00  0.00    -0.344 N 
HETATM    3  O           1     -19.379  -8.785  -3.289  0.00  0.00    -0.271 OA
HETATM    4  H           1     -22.375  -7.858  -3.220  0.00  0.00     0.163 HD
ENDROOT
BRANCH   1   5
HETATM    5  C           1     -20.400  -7.484  -4.969  0.00  0.00     0.275 C 
BRANCH   5   6
HETATM    6  C           1     -21.075  -6.133  -4.768  0.00  0.00     0.053 C 
BRANCH   6   7
HETATM    7  C           1     -20.291  -5.059  -5.510  0.00  0.00     0.115 C 
BRANCH   7   8
HETATM    8  C           1     -21.019  -4.690  -6.780  0.00  0.00     0.172 C 
HETATM    9  O           1     -21.322  -3.498  -7.003  0.00  0.00    -0.648 OA
HETATM   10  O           1     -21.318  -5.577  -7.608  0.00  0.00    -0.648 OA
ENDBRANCH   7   8
ENDBRANCH   6   7
ENDBRANCH   5   6
BRANCH   5  11
HETATM   11  N           1     -21.156  -8.272  -5.998  0.00  0.00    -0.066 N 
HETATM   12  H           1     -20.910  -9.283  -5.912  0.00  0.00     0.275 HD
HETATM   13  H           1     -22.182  -8.148  -5.845  0.00  0.00     0.275 HD
HETATM   14  H           1     -20.902  -7.930  -6.953  0.00  0.00     0.275 HD
ENDBRANCH   5  11
ENDBRANCH   1   5
BRANCH   2  15
HETATM   15  C           1     -21.518  -9.040  -1.651  0.00  0.00     0.189 C 
BRANCH  15  16
HETATM   16  C           1     -22.187 -10.380  -1.842  0.00  0.00     0.197 C 
HETATM   17  O           1     -23.317 -10.589  -1.351  0.00  0.00    -0.646 OA
HETATM   18  O           1     -21.611 -11.279  -2.492  0.00  0.00    -0.646 OA
ENDBRANCH  15  16
BRANCH  15  19
HETATM   19  C           1     -22.271  -8.242  -0.596  0.00  0.00     0.010 C 
HETATM   20  C           1     -21.544  -8.352   0.738  0.00  0.00     0.012 C 
HETATM   21  C           1     -22.338  -6.780  -1.019  0.00  0.00     0.012 C 
ENDBRANCH  15  19
ENDBRANCH   2  15
TORSDOF 8
ENDMDL
