MODEL 1
REMARK VINA RESULT:      -6.3      0.000      0.000
REMARK  10 active torsions:
REMARK  status: ('A' for Active; 'I' for Inactive)
REMARK    1  A    between atoms: P_2  and  O_3 
REMARK    2  A    between atoms: P_2  and  O_13 
REMARK    3  A    between atoms: O_3  and  C_20 
REMARK    4  A    between atoms: N_4  and  C_17 
REMARK    5  A    between atoms: C_9  and  C_21 
REMARK    6  A    between atoms: N_15  and  C_21 
REMARK       I    between atoms: N_15  and  C_16 
REMARK    7  A    between atoms: C_16  and  C_17 
REMARK    8  A    between atoms: C_17  and  C_18 
REMARK    9  A    between atoms: C_18  and  S_19 
REMARK   10  A    between atoms: C_20  and  C_21 
ROOT
HETATM    1  O           1     -33.536  -2.305 -11.149  0.00  0.00    -0.271 OA
HETATM    2  N           1     -35.007  -1.800 -12.752  0.00  0.00    -0.343 N 
HETATM    3  C           1     -34.200  -2.683 -12.084  0.00  0.00     0.249 C 
HETATM    4  H           1     -35.563  -2.118 -13.536  0.00  0.00     0.163 HD
ENDROOT
BRANCH   2   5
HETATM    5  C           1     -35.064  -0.413 -12.337  0.00  0.00     0.210 C 
BRANCH   5   6
HETATM    6  C           1     -36.310  -0.184 -11.517  0.00  0.00     0.198 C 
HETATM    7  O           1     -36.275   0.575 -10.524  0.00  0.00    -0.646 OA
HETATM    8  O           1     -37.377  -0.754 -11.830  0.00  0.00    -0.646 OA
ENDBRANCH   5   6
BRANCH   5   9
HETATM    9  C           1     -35.094   0.483 -13.568  0.00  0.00     0.217 C 
BRANCH   9  10
HETATM   10  O           1     -35.128  -0.309 -14.723  0.00  0.00    -0.287 OA
BRANCH  10  11
HETATM   11  P           1     -36.404  -0.097 -15.690  0.00  0.00     0.406 P 
HETATM   12  O           1     -37.601  -0.712 -15.074  0.00  0.00    -0.624 OA
HETATM   13  O           1     -36.141  -0.737 -17.000  0.00  0.00    -0.624 OA
BRANCH  11  14
HETATM   14  O           1     -36.661   1.482 -15.904  0.00  0.00    -0.300 OA
HETATM   15  H           1     -37.340   1.534 -16.554  0.00  0.00     0.223 HD
ENDBRANCH  11  14
ENDBRANCH  10  11
ENDBRANCH   9  10
ENDBRANCH   5   9
ENDBRANCH   2   5
BRANCH   3  16
HETATM   16  C           1     -34.142  -4.127 -12.517  0.00  0.00     0.283 C 
BRANCH  16  17
HETATM   17  N           1     -33.569  -4.211 -13.900  0.00  0.00    -0.066 N 
HETATM   18  H           1     -34.338  -4.389 -14.585  0.00  0.00     0.275 HD
HETATM   19  H           1     -33.095  -3.310 -14.136  0.00  0.00     0.275 HD
HETATM   20  H           1     -32.876  -4.992 -13.944  0.00  0.00     0.275 HD
ENDBRANCH  16  17
BRANCH  16  21
HETATM   21  C           1     -33.259  -4.911 -11.554  0.00  0.00     0.113 C 
BRANCH  21  22
HETATM   22  S           1     -34.259  -6.159 -10.697  0.00  0.00    -0.180 SA
HETATM   23  H           1     -35.411  -5.466 -10.733  0.00  0.00     0.101 HD
ENDBRANCH  21  22
ENDBRANCH  16  21
ENDBRANCH   3  16
TORSDOF 10
ENDMDL
MODEL 2
REMARK VINA RESULT:      -6.2     10.322     12.278
REMARK  10 active torsions:
REMARK  status: ('A' for Active; 'I' for Inactive)
REMARK    1  A    between atoms: P_2  and  O_3 
REMARK    2  A    between atoms: P_2  and  O_13 
REMARK    3  A    between atoms: O_3  and  C_20 
REMARK    4  A    between atoms: N_4  and  C_17 
REMARK    5  A    between atoms: C_9  and  C_21 
REMARK    6  A    between atoms: N_15  and  C_21 
REMARK       I    between atoms: N_15  and  C_16 
REMARK    7  A    between atoms: C_16  and  C_17 
REMARK    8  A    between atoms: C_17  and  C_18 
REMARK    9  A    between atoms: C_18  and  S_19 
REMARK   10  A    between atoms: C_20  and  C_21 
ROOT
HETATM    1  O           1     -28.358  -5.195 -19.001  0.00  0.00    -0.271 OA
HETATM    2  N           1     -27.546  -7.262 -19.239  0.00  0.00    -0.343 N 
HETATM    3  C           1     -28.540  -6.384 -18.896  0.00  0.00     0.249 C 
HETATM    4  H           1     -27.700  -8.259 -19.151  0.00  0.00     0.163 HD
ENDROOT
BRANCH   2   5
HETATM    5  C           1     -26.275  -6.764 -19.727  0.00  0.00     0.210 C 
BRANCH   5   6
HETATM    6  C           1     -25.799  -7.631 -20.866  0.00  0.00     0.198 C 
HETATM    7  O           1     -24.652  -7.472 -21.336  0.00  0.00    -0.646 OA
HETATM    8  O           1     -26.552  -8.509 -21.340  0.00  0.00    -0.646 OA
ENDBRANCH   5   6
BRANCH   5   9
HETATM    9  C           1     -25.252  -6.799 -18.600  0.00  0.00     0.217 C 
BRANCH   9  10
HETATM   10  O           1     -25.766  -6.131 -17.479  0.00  0.00    -0.287 OA
BRANCH  10  11
HETATM   11  P           1     -25.368  -6.750 -16.041  0.00  0.00     0.406 P 
HETATM   12  O           1     -26.548  -7.416 -15.445  0.00  0.00    -0.624 OA
HETATM   13  O           1     -24.912  -5.663 -15.146  0.00  0.00    -0.624 OA
BRANCH  11  14
HETATM   14  O           1     -24.181  -7.828 -16.230  0.00  0.00    -0.300 OA
HETATM   15  H           1     -23.676  -7.777 -15.436  0.00  0.00     0.223 HD
ENDBRANCH  11  14
ENDBRANCH  10  11
ENDBRANCH   9  10
ENDBRANCH   5   9
ENDBRANCH   2   5
BRANCH   3  16
HETATM   16  C           1     -29.863  -6.904 -18.389  0.00  0.00     0.283 C 
BRANCH  16  17
HETATM   17  N           1     -29.859  -8.403 -18.430  0.00  0.00    -0.066 N 
HETATM   18  H           1     -29.064  -8.765 -17.856  0.00  0.00     0.275 HD
HETATM   19  H           1     -30.760  -8.763 -18.042  0.00  0.00     0.275 HD
HETATM   20  H           1     -29.751  -8.724 -19.418  0.00  0.00     0.275 HD
ENDBRANCH  16  17
BRANCH  16  21
HETATM   21  C           1     -30.076  -6.436 -16.954  0.00  0.00     0.113 C 
BRANCH  21  22
HETATM   22  S           1     -31.375  -5.170 -16.918  0.00  0.00    -0.180 SA
HETATM   23  H           1     -32.281  -5.878 -17.617  0.00  0.00     0.101 HD
ENDBRANCH  21  22
ENDBRANCH  16  21
ENDBRANCH   3  16
TORSDOF 10
ENDMDL
MODEL 3
REMARK VINA RESULT:      -6.2      3.393      4.891
REMARK  10 active torsions:
REMARK  status: ('A' for Active; 'I' for Inactive)
REMARK    1  A    between atoms: P_2  and  O_3 
REMARK    2  A    between atoms: P_2  and  O_13 
REMARK    3  A    between atoms: O_3  and  C_20 
REMARK    4  A    between atoms: N_4  and  C_17 
REMARK    5  A    between atoms: C_9  and  C_21 
REMARK    6  A    between atoms: N_15  and  C_21 
REMARK       I    between atoms: N_15  and  C_16 
REMARK    7  A    between atoms: C_16  and  C_17 
REMARK    8  A    between atoms: C_17  and  C_18 
REMARK    9  A    between atoms: C_18  and  S_19 
REMARK   10  A    between atoms: C_20  and  C_21 
ROOT
HETATM    1  O           1     -37.667  -0.751 -13.503  0.00  0.00    -0.271 OA
HETATM    2  N           1     -35.996  -0.141 -12.153  0.00  0.00    -0.343 N 
HETATM    3  C           1     -36.631  -0.145 -13.366  0.00  0.00     0.249 C 
HETATM    4  H           1     -35.128   0.367 -12.039  0.00  0.00     0.163 HD
ENDROOT
BRANCH   2   5
HETATM    5  C           1     -36.565  -0.864 -11.034  0.00  0.00     0.210 C 
BRANCH   5   6
HETATM    6  C           1     -36.859   0.100  -9.910  0.00  0.00     0.198 C 
HETATM    7  O           1     -36.218   0.026  -8.839  0.00  0.00    -0.646 OA
HETATM    8  O           1     -37.742   0.973 -10.050  0.00  0.00    -0.646 OA
ENDBRANCH   5   6
BRANCH   5   9
HETATM    9  C           1     -35.575  -1.917 -10.554  0.00  0.00     0.217 C 
BRANCH   9  10
HETATM   10  O           1     -35.707  -3.074 -11.335  0.00  0.00    -0.287 OA
BRANCH  10  11
HETATM   11  P           1     -34.445  -3.444 -12.271  0.00  0.00     0.406 P 
HETATM   12  O           1     -33.190  -3.079 -11.578  0.00  0.00    -0.624 OA
HETATM   13  O           1     -34.540  -2.695 -13.545  0.00  0.00    -0.624 OA
BRANCH  11  14
HETATM   14  O           1     -34.449  -5.030 -12.576  0.00  0.00    -0.300 OA
HETATM   15  H           1     -33.644  -5.192 -13.038  0.00  0.00     0.223 HD
ENDBRANCH  11  14
ENDBRANCH  10  11
ENDBRANCH   9  10
ENDBRANCH   5   9
ENDBRANCH   2   5
BRANCH   3  16
HETATM   16  C           1     -36.038   0.608 -14.531  0.00  0.00     0.283 C 
BRANCH  16  17
HETATM   17  N           1     -34.581   0.275 -14.651  0.00  0.00    -0.066 N 
HETATM   18  H           1     -34.125   0.365 -13.715  0.00  0.00     0.275 HD
HETATM   19  H           1     -34.475  -0.706 -14.995  0.00  0.00     0.275 HD
HETATM   20  H           1     -34.127   0.933 -15.324  0.00  0.00     0.275 HD
ENDBRANCH  16  17
BRANCH  16  21
HETATM   21  C           1     -36.756   0.207 -15.814  0.00  0.00     0.113 C 
BRANCH  21  22
HETATM   22  S           1     -35.817  -1.101 -16.651  0.00  0.00    -0.180 SA
HETATM   23  H           1     -35.902  -0.569 -17.883  0.00  0.00     0.101 HD
ENDBRANCH  21  22
ENDBRANCH  16  21
ENDBRANCH   3  16
TORSDOF 10
ENDMDL
MODEL 4
REMARK VINA RESULT:      -6.2     12.034     13.475
REMARK  10 active torsions:
REMARK  status: ('A' for Active; 'I' for Inactive)
REMARK    1  A    between atoms: P_2  and  O_3 
REMARK    2  A    between atoms: P_2  and  O_13 
REMARK    3  A    between atoms: O_3  and  C_20 
REMARK    4  A    between atoms: N_4  and  C_17 
REMARK    5  A    between atoms: C_9  and  C_21 
REMARK    6  A    between atoms: N_15  and  C_21 
REMARK       I    between atoms: N_15  and  C_16 
REMARK    7  A    between atoms: C_16  and  C_17 
REMARK    8  A    between atoms: C_17  and  C_18 
REMARK    9  A    between atoms: C_18  and  S_19 
REMARK   10  A    between atoms: C_20  and  C_21 
ROOT
HETATM    1  O           1     -21.677  -3.314  -7.716  0.00  0.00    -0.271 OA
HETATM    2  N           1     -21.920  -4.616  -9.514  0.00  0.00    -0.343 N 
HETATM    3  C           1     -21.461  -4.377  -8.246  0.00  0.00     0.249 C 
HETATM    4  H           1     -21.739  -5.508  -9.957  0.00  0.00     0.163 HD
ENDROOT
BRANCH   2   5
HETATM    5  C           1     -22.665  -3.593 -10.220  0.00  0.00     0.210 C 
BRANCH   5   6
HETATM    6  C           1     -24.143  -3.804  -9.999  0.00  0.00     0.198 C 
HETATM    7  O           1     -24.640  -4.942 -10.142  0.00  0.00    -0.646 OA
HETATM    8  O           1     -24.870  -2.841  -9.674  0.00  0.00    -0.646 OA
ENDBRANCH   5   6
BRANCH   5   9
HETATM    9  C           1     -22.356  -3.679 -11.709  0.00  0.00     0.217 C 
BRANCH   9  10
HETATM   10  O           1     -22.793  -2.509 -12.346  0.00  0.00    -0.287 OA
BRANCH  10  11
HETATM   11  P           1     -23.602  -2.715 -13.729  0.00  0.00     0.406 P 
HETATM   12  O           1     -24.430  -3.939 -13.641  0.00  0.00    -0.624 OA
HETATM   13  O           1     -22.640  -2.851 -14.846  0.00  0.00    -0.624 OA
BRANCH  11  14
HETATM   14  O           1     -24.555  -1.438 -13.989  0.00  0.00    -0.300 OA
HETATM   15  H           1     -25.369  -1.651 -13.567  0.00  0.00     0.223 HD
ENDBRANCH  11  14
ENDBRANCH  10  11
ENDBRANCH   9  10
ENDBRANCH   5   9
ENDBRANCH   2   5
BRANCH   3  16
HETATM   16  C           1     -20.686  -5.443  -7.511  0.00  0.00     0.283 C 
BRANCH  16  17
HETATM   17  N           1     -19.329  -4.916  -7.152  0.00  0.00    -0.066 N 
HETATM   18  H           1     -19.087  -4.120  -7.785  0.00  0.00     0.275 HD
HETATM   19  H           1     -19.336  -4.583  -6.162  0.00  0.00     0.275 HD
HETATM   20  H           1     -18.620  -5.676  -7.261  0.00  0.00     0.275 HD
ENDBRANCH  16  17
BRANCH  16  21
HETATM   21  C           1     -21.433  -5.829  -6.240  0.00  0.00     0.113 C 
BRANCH  21  22
HETATM   22  S           1     -20.507  -7.120  -5.363  0.00  0.00    -0.180 SA
HETATM   23  H           1     -21.019  -8.155  -6.054  0.00  0.00     0.101 HD
ENDBRANCH  21  22
ENDBRANCH  16  21
ENDBRANCH   3  16
TORSDOF 10
ENDMDL
MODEL 5
REMARK VINA RESULT:      -5.8      2.913      4.423
REMARK  10 active torsions:
REMARK  status: ('A' for Active; 'I' for Inactive)
REMARK    1  A    between atoms: P_2  and  O_3 
REMARK    2  A    between atoms: P_2  and  O_13 
REMARK    3  A    between atoms: O_3  and  C_20 
REMARK    4  A    between atoms: N_4  and  C_17 
REMARK    5  A    between atoms: C_9  and  C_21 
REMARK    6  A    between atoms: N_15  and  C_21 
REMARK       I    between atoms: N_15  and  C_16 
REMARK    7  A    between atoms: C_16  and  C_17 
REMARK    8  A    between atoms: C_17  and  C_18 
REMARK    9  A    between atoms: C_18  and  S_19 
REMARK   10  A    between atoms: C_20  and  C_21 
ROOT
HETATM    1  O           1     -37.510  -1.674 -10.404  0.00  0.00    -0.271 OA
HETATM    2  N           1     -35.621  -0.719 -11.116  0.00  0.00    -0.343 N 
HETATM    3  C           1     -36.606  -0.905 -10.182  0.00  0.00     0.249 C 
HETATM    4  H           1     -34.863  -0.074 -10.929  0.00  0.00     0.163 HD
ENDROOT
BRANCH   2   5
HETATM    5  C           1     -35.663  -1.444 -12.370  0.00  0.00     0.210 C 
BRANCH   5   6
HETATM    6  C           1     -34.517  -2.425 -12.423  0.00  0.00     0.198 C 
HETATM    7  O           1     -34.349  -3.136 -13.437  0.00  0.00    -0.646 OA
HETATM    8  O           1     -33.736  -2.525 -11.452  0.00  0.00    -0.646 OA
ENDBRANCH   5   6
BRANCH   5   9
HETATM    9  C           1     -35.545  -0.462 -13.527  0.00  0.00     0.217 C 
BRANCH   9  10
HETATM   10  O           1     -36.625  -0.638 -14.404  0.00  0.00    -0.287 OA
BRANCH  10  11
HETATM   11  P           1     -36.317  -0.381 -15.968  0.00  0.00     0.406 P 
HETATM   12  O           1     -36.137   1.069 -16.205  0.00  0.00    -0.624 OA
HETATM   13  O           1     -37.452  -0.875 -16.781  0.00  0.00    -0.624 OA
BRANCH  11  14
HETATM   14  O           1     -34.971  -1.167 -16.388  0.00  0.00    -0.300 OA
HETATM   15  H           1     -34.563  -1.405 -15.573  0.00  0.00     0.223 HD
ENDBRANCH  11  14
ENDBRANCH  10  11
ENDBRANCH   9  10
ENDBRANCH   5   9
ENDBRANCH   2   5
BRANCH   3  16
HETATM   16  C           1     -36.560  -0.150  -8.877  0.00  0.00     0.283 C 
BRANCH  16  17
HETATM   17  N           1     -36.297   1.301  -9.149  0.00  0.00    -0.066 N 
HETATM   18  H           1     -36.748   1.573 -10.052  0.00  0.00     0.275 HD
HETATM   19  H           1     -36.696   1.878  -8.374  0.00  0.00     0.275 HD
HETATM   20  H           1     -35.267   1.463  -9.211  0.00  0.00     0.275 HD
ENDBRANCH  16  17
BRANCH  16  21
HETATM   21  C           1     -37.896  -0.297  -8.158  0.00  0.00     0.113 C 
BRANCH  21  22
HETATM   22  S           1     -37.798   0.500  -6.532  0.00  0.00    -0.180 SA
HETATM   23  H           1     -38.700  -0.296  -5.930  0.00  0.00     0.101 HD
ENDBRANCH  21  22
ENDBRANCH  16  21
ENDBRANCH   3  16
TORSDOF 10
ENDMDL
MODEL 6
REMARK VINA RESULT:      -5.4      2.216      3.790
REMARK  10 active torsions:
REMARK  status: ('A' for Active; 'I' for Inactive)
REMARK    1  A    between atoms: P_2  and  O_3 
REMARK    2  A    between atoms: P_2  and  O_13 
REMARK    3  A    between atoms: O_3  and  C_20 
REMARK    4  A    between atoms: N_4  and  C_17 
REMARK    5  A    between atoms: C_9  and  C_21 
REMARK    6  A    between atoms: N_15  and  C_21 
REMARK       I    between atoms: N_15  and  C_16 
REMARK    7  A    between atoms: C_16  and  C_17 
REMARK    8  A    between atoms: C_17  and  C_18 
REMARK    9  A    between atoms: C_18  and  S_19 
REMARK   10  A    between atoms: C_20  and  C_21 
ROOT
HETATM    1  O           1     -34.737  -3.369 -13.331  0.00  0.00    -0.271 OA
HETATM    2  N           1     -34.920  -1.296 -12.521  0.00  0.00    -0.343 N 
HETATM    3  C           1     -34.421  -2.571 -12.482  0.00  0.00     0.249 C 
HETATM    4  H           1     -34.655  -0.627 -11.809  0.00  0.00     0.163 HD
ENDROOT
BRANCH   2   5
HETATM    5  C           1     -35.828  -0.905 -13.581  0.00  0.00     0.210 C 
BRANCH   5   6
HETATM    6  C           1     -35.075  -0.110 -14.620  0.00  0.00     0.198 C 
HETATM    7  O           1     -34.816   1.096 -14.418  0.00  0.00    -0.646 OA
HETATM    8  O           1     -34.709  -0.659 -15.682  0.00  0.00    -0.646 OA
ENDBRANCH   5   6
BRANCH   5   9
HETATM    9  C           1     -36.946  -0.050 -13.000  0.00  0.00     0.217 C 
BRANCH   9  10
HETATM   10  O           1     -36.491   0.592 -11.840  0.00  0.00    -0.287 OA
BRANCH  10  11
HETATM   11  P           1     -37.070   0.026 -10.443  0.00  0.00     0.406 P 
HETATM   12  O           1     -35.964  -0.546  -9.643  0.00  0.00    -0.624 OA
HETATM   13  O           1     -38.075  -1.027 -10.717  0.00  0.00    -0.624 OA
BRANCH  11  14
HETATM   14  O           1     -37.762   1.231  -9.620  0.00  0.00    -0.300 OA
HETATM   15  H           1     -37.497   2.016 -10.068  0.00  0.00     0.223 HD
ENDBRANCH  11  14
ENDBRANCH  10  11
ENDBRANCH   9  10
ENDBRANCH   5   9
ENDBRANCH   2   5
BRANCH   3  16
HETATM   16  C           1     -33.476  -2.977 -11.378  0.00  0.00     0.283 C 
BRANCH  16  17
HETATM   17  N           1     -33.195  -1.794 -10.500  0.00  0.00    -0.066 N 
HETATM   18  H           1     -32.170  -1.589 -10.510  0.00  0.00     0.275 HD
HETATM   19  H           1     -33.719  -0.964 -10.857  0.00  0.00     0.275 HD
HETATM   20  H           1     -33.498  -2.005  -9.523  0.00  0.00     0.275 HD
ENDBRANCH  16  17
BRANCH  16  21
HETATM   21  C           1     -34.111  -4.085 -10.547  0.00  0.00     0.113 C 
BRANCH  21  22
HETATM   22  S           1     -33.553  -5.698 -11.163  0.00  0.00    -0.180 SA
HETATM   23  H           1     -32.312  -5.300 -11.497  0.00  0.00     0.101 HD
ENDBRANCH  21  22
ENDBRANCH  16  21
ENDBRANCH   3  16
TORSDOF 10
ENDMDL
MODEL 7
REMARK VINA RESULT:      -5.4      9.735     11.356
REMARK  10 active torsions:
REMARK  status: ('A' for Active; 'I' for Inactive)
REMARK    1  A    between atoms: P_2  and  O_3 
REMARK    2  A    between atoms: P_2  and  O_13 
REMARK    3  A    between atoms: O_3  and  C_20 
REMARK    4  A    between atoms: N_4  and  C_17 
REMARK    5  A    between atoms: C_9  and  C_21 
REMARK    6  A    between atoms: N_15  and  C_21 
REMARK       I    between atoms: N_15  and  C_16 
REMARK    7  A    between atoms: C_16  and  C_17 
REMARK    8  A    between atoms: C_17  and  C_18 
REMARK    9  A    between atoms: C_18  and  S_19 
REMARK   10  A    between atoms: C_20  and  C_21 
ROOT
HETATM    1  O           1     -29.272  -8.556 -19.298  0.00  0.00    -0.271 OA
HETATM    2  N           1     -28.356  -6.868 -18.159  0.00  0.00    -0.343 N 
HETATM    3  C           1     -28.527  -7.606 -19.300  0.00  0.00     0.249 C 
HETATM    4  H           1     -27.732  -6.070 -18.162  0.00  0.00     0.163 HD
ENDROOT
BRANCH   2   5
HETATM    5  C           1     -29.069  -7.227 -16.950  0.00  0.00     0.210 C 
BRANCH   5   6
HETATM    6  C           1     -30.316  -6.384 -16.832  0.00  0.00     0.198 C 
HETATM    7  O           1     -31.371  -6.746 -17.396  0.00  0.00    -0.646 OA
HETATM    8  O           1     -30.293  -5.325 -16.169  0.00  0.00    -0.646 OA
ENDBRANCH   5   6
BRANCH   5   9
HETATM    9  C           1     -28.173  -6.981 -15.743  0.00  0.00     0.217 C 
BRANCH   9  10
HETATM   10  O           1     -27.260  -5.959 -16.037  0.00  0.00    -0.287 OA
BRANCH  10  11
HETATM   11  P           1     -25.711  -6.403 -16.148  0.00  0.00     0.406 P 
HETATM   12  O           1     -25.329  -6.513 -17.574  0.00  0.00    -0.624 OA
HETATM   13  O           1     -25.526  -7.714 -15.486  0.00  0.00    -0.624 OA
BRANCH  11  14
HETATM   14  O           1     -24.782  -5.298 -15.426  0.00  0.00    -0.300 OA
HETATM   15  H           1     -24.269  -4.919 -16.119  0.00  0.00     0.223 HD
ENDBRANCH  11  14
ENDBRANCH  10  11
ENDBRANCH   9  10
ENDBRANCH   5   9
ENDBRANCH   2   5
BRANCH   3  16
HETATM   16  C           1     -27.784  -7.231 -20.559  0.00  0.00     0.283 C 
BRANCH  16  17
HETATM   17  N           1     -26.847  -6.098 -20.268  0.00  0.00    -0.066 N 
HETATM   18  H           1     -26.937  -5.371 -21.013  0.00  0.00     0.275 HD
HETATM   19  H           1     -27.086  -5.677 -19.342  0.00  0.00     0.275 HD
HETATM   20  H           1     -25.865  -6.455 -20.246  0.00  0.00     0.275 HD
ENDBRANCH  16  17
BRANCH  16  21
HETATM   21  C           1     -26.990  -8.432 -21.057  0.00  0.00     0.113 C 
BRANCH  21  22
HETATM   22  S           1     -25.231  -7.996 -21.153  0.00  0.00    -0.180 SA
HETATM   23  H           1     -25.049  -8.422 -22.416  0.00  0.00     0.101 HD
ENDBRANCH  21  22
ENDBRANCH  16  21
ENDBRANCH   3  16
TORSDOF 10
ENDMDL
MODEL 8
REMARK VINA RESULT:      -5.3     10.942     12.360
REMARK  10 active torsions:
REMARK  status: ('A' for Active; 'I' for Inactive)
REMARK    1  A    between atoms: P_2  and  O_3 
REMARK    2  A    between atoms: P_2  and  O_13 
REMARK    3  A    between atoms: O_3  and  C_20 
REMARK    4  A    between atoms: N_4  and  C_17 
REMARK    5  A    between atoms: C_9  and  C_21 
REMARK    6  A    between atoms: N_15  and  C_21 
REMARK       I    between atoms: N_15  and  C_16 
REMARK    7  A    between atoms: C_16  and  C_17 
REMARK    8  A    between atoms: C_17  and  C_18 
REMARK    9  A    between atoms: C_18  and  S_19 
REMARK   10  A    between atoms: C_20  and  C_21 
ROOT
HETATM    1  O           1     -24.238  -6.307 -19.173  0.00  0.00    -0.271 OA
HETATM    2  N           1     -26.264  -7.125 -18.712  0.00  0.00    -0.343 N 
HETATM    3  C           1     -25.137  -7.051 -19.486  0.00  0.00     0.249 C 
HETATM    4  H           1     -27.017  -7.750 -18.975  0.00  0.00     0.163 HD
ENDROOT
BRANCH   2   5
HETATM    5  C           1     -26.380  -6.312 -17.518  0.00  0.00     0.210 C 
BRANCH   5   6
HETATM    6  C           1     -25.874  -7.091 -16.329  0.00  0.00     0.198 C 
HETATM    7  O           1     -26.669  -7.455 -15.435  0.00  0.00    -0.646 OA
HETATM    8  O           1     -24.660  -7.372 -16.237  0.00  0.00    -0.646 OA
ENDBRANCH   5   6
BRANCH   5   9
HETATM    9  C           1     -27.840  -5.940 -17.299  0.00  0.00     0.217 C 
BRANCH   9  10
HETATM   10  O           1     -28.607  -6.391 -18.382  0.00  0.00    -0.287 OA
BRANCH  10  11
HETATM   11  P           1     -29.680  -7.552 -18.056  0.00  0.00     0.406 P 
HETATM   12  O           1     -29.851  -8.416 -19.246  0.00  0.00    -0.624 OA
HETATM   13  O           1     -30.980  -6.937 -17.704  0.00  0.00    -0.624 OA
BRANCH  11  14
HETATM   14  O           1     -29.151  -8.442 -16.817  0.00  0.00    -0.300 OA
HETATM   15  H           1     -28.260  -8.657 -17.034  0.00  0.00     0.223 HD
ENDBRANCH  11  14
ENDBRANCH  10  11
ENDBRANCH   9  10
ENDBRANCH   5   9
ENDBRANCH   2   5
BRANCH   3  16
HETATM   16  C           1     -25.017  -7.898 -20.729  0.00  0.00     0.283 C 
BRANCH  16  17
HETATM   17  N           1     -26.372  -8.412 -21.115  0.00  0.00    -0.066 N 
HETATM   18  H           1     -26.754  -9.003 -20.343  0.00  0.00     0.275 HD
HETATM   19  H           1     -27.014  -7.605 -21.285  0.00  0.00     0.275 HD
HETATM   20  H           1     -26.293  -8.984 -21.986  0.00  0.00     0.275 HD
ENDBRANCH  16  17
BRANCH  16  21
HETATM   21  C           1     -24.451  -7.056 -21.865  0.00  0.00     0.113 C 
BRANCH  21  22
HETATM   22  S           1     -23.368  -8.084 -22.898  0.00  0.00    -0.180 SA
HETATM   23  H           1     -22.211  -7.641 -22.373  0.00  0.00     0.101 HD
ENDBRANCH  21  22
ENDBRANCH  16  21
ENDBRANCH   3  16
TORSDOF 10
ENDMDL
MODEL 9
REMARK VINA RESULT:      -5.3     11.470     13.044
REMARK  10 active torsions:
REMARK  status: ('A' for Active; 'I' for Inactive)
REMARK    1  A    between atoms: P_2  and  O_3 
REMARK    2  A    between atoms: P_2  and  O_13 
REMARK    3  A    between atoms: O_3  and  C_20 
REMARK    4  A    between atoms: N_4  and  C_17 
REMARK    5  A    between atoms: C_9  and  C_21 
REMARK    6  A    between atoms: N_15  and  C_21 
REMARK       I    between atoms: N_15  and  C_16 
REMARK    7  A    between atoms: C_16  and  C_17 
REMARK    8  A    between atoms: C_17  and  C_18 
REMARK    9  A    between atoms: C_18  and  S_19 
REMARK   10  A    between atoms: C_20  and  C_21 
ROOT
HETATM    1  O           1     -25.084  -6.182 -20.555  0.00  0.00    -0.271 OA
HETATM    2  N           1     -24.680  -7.477 -18.781  0.00  0.00    -0.343 N 
HETATM    3  C           1     -24.626  -7.213 -20.124  0.00  0.00     0.249 C 
HETATM    4  H           1     -24.296  -8.342 -18.420  0.00  0.00     0.163 HD
ENDROOT
BRANCH   2   5
HETATM    5  C           1     -25.284  -6.519 -17.877  0.00  0.00     0.210 C 
BRANCH   5   6
HETATM    6  C           1     -24.897  -6.854 -16.457  0.00  0.00     0.198 C 
HETATM    7  O           1     -24.880  -5.959 -15.585  0.00  0.00    -0.646 OA
HETATM    8  O           1     -24.595  -8.028 -16.153  0.00  0.00    -0.646 OA
ENDBRANCH   5   6
BRANCH   5   9
HETATM    9  C           1     -26.799  -6.577 -18.018  0.00  0.00     0.217 C 
BRANCH   9  10
HETATM   10  O           1     -27.396  -5.936 -16.923  0.00  0.00    -0.287 OA
BRANCH  10  11
HETATM   11  P           1     -28.545  -6.769 -16.153  0.00  0.00     0.406 P 
HETATM   12  O           1     -29.599  -5.843 -15.684  0.00  0.00    -0.624 OA
HETATM   13  O           1     -27.951  -7.469 -14.992  0.00  0.00    -0.624 OA
BRANCH  11  14
HETATM   14  O           1     -29.191  -7.852 -17.162  0.00  0.00    -0.300 OA
HETATM   15  H           1     -28.615  -8.596 -17.123  0.00  0.00     0.223 HD
ENDBRANCH  11  14
ENDBRANCH  10  11
ENDBRANCH   9  10
ENDBRANCH   5   9
ENDBRANCH   2   5
BRANCH   3  16
HETATM   16  C           1     -23.997  -8.210 -21.064  0.00  0.00     0.283 C 
BRANCH  16  17
HETATM   17  N           1     -24.193  -7.756 -22.479  0.00  0.00    -0.066 N 
HETATM   18  H           1     -23.911  -6.753 -22.565  0.00  0.00     0.275 HD
HETATM   19  H           1     -23.605  -8.338 -23.117  0.00  0.00     0.275 HD
HETATM   20  H           1     -25.200  -7.858 -22.742  0.00  0.00     0.275 HD
ENDBRANCH  16  17
BRANCH  16  21
HETATM   21  C           1     -22.506  -8.316 -20.768  0.00  0.00     0.113 C 
BRANCH  21  22
HETATM   22  S           1     -21.679  -9.185 -22.130  0.00  0.00    -0.180 SA
HETATM   23  H           1     -20.705  -8.274 -22.307  0.00  0.00     0.101 HD
ENDBRANCH  21  22
ENDBRANCH  16  21
ENDBRANCH   3  16
TORSDOF 10
ENDMDL
