MODEL 1
REMARK VINA RESULT:      -6.7      0.000      0.000
REMARK  12 active torsions:
REMARK  status: ('A' for Active; 'I' for Inactive)
REMARK       I    between atoms: N_1  and  C_2 
REMARK    1  A    between atoms: C_2  and  C_20 
REMARK    2  A    between atoms: C_5  and  C_18 
REMARK    3  A    between atoms: N_11  and  C_23 
REMARK    4  A    between atoms: N_13  and  C_18 
REMARK       I    between atoms: N_13  and  C_17 
REMARK    5  A    between atoms: N_15  and  C_28 
REMARK    6  A    between atoms: C_17  and  C_23 
REMARK    7  A    between atoms: C_18  and  C_19 
REMARK    8  A    between atoms: C_19  and  C_20 
REMARK    9  A    between atoms: C_23  and  C_25 
REMARK   10  A    between atoms: C_25  and  C_26 
REMARK   11  A    between atoms: C_26  and  C_27 
REMARK   12  A    between atoms: C_27  and  C_28 
ROOT
HETATM    1  O           1     -21.550  -3.257  -7.406  0.00  0.00    -0.271 OA
HETATM    2  N           1     -22.065  -4.731  -9.002  0.00  0.00    -0.345 N 
HETATM    3  H           1     -22.039  -5.691  -9.323  0.00  0.00     0.163 HD
HETATM    4  C           1     -21.520  -4.401  -7.790  0.00  0.00     0.249 C 
ENDROOT
BRANCH   4   5
HETATM    5  C           1     -20.880  -5.467  -6.935  0.00  0.00     0.274 C 
BRANCH   5   6
HETATM    6  N           1     -19.656  -4.907  -6.272  0.00  0.00    -0.067 N 
HETATM    7  H           1     -19.621  -3.874  -6.421  0.00  0.00     0.275 HD
HETATM    8  H           1     -19.692  -5.111  -5.248  0.00  0.00     0.275 HD
HETATM    9  H           1     -18.804  -5.348  -6.686  0.00  0.00     0.275 HD
ENDBRANCH   5   6
BRANCH   5  10
HETATM   10  C           1     -21.868  -5.925  -5.870  0.00  0.00     0.042 C 
BRANCH  10  11
HETATM   11  C           1     -21.186  -5.925  -4.509  0.00  0.00     0.004 C 
BRANCH  11  12
HETATM   12  C           1     -21.462  -7.246  -3.803  0.00  0.00     0.027 C 
BRANCH  12  13
HETATM   13  C           1     -21.462  -7.027  -2.296  0.00  0.00     0.229 C 
BRANCH  13  14
HETATM   14  N           1     -22.322  -5.845  -1.962  0.00  0.00    -0.079 N 
HETATM   15  H           1     -21.720  -5.000  -1.838  0.00  0.00     0.274 HD
HETATM   16  H           1     -23.001  -5.677  -2.738  0.00  0.00     0.274 HD
HETATM   17  H           1     -22.846  -6.033  -1.077  0.00  0.00     0.274 HD
ENDBRANCH  13  14
ENDBRANCH  12  13
ENDBRANCH  11  12
ENDBRANCH  10  11
ENDBRANCH   5  10
ENDBRANCH   4   5
BRANCH   2  18
HETATM   18  C           1     -22.680  -3.708  -9.823  0.00  0.00     0.186 C 
BRANCH  18  19
HETATM   19  C           1     -24.182  -3.843  -9.755  0.00  0.00     0.196 C 
HETATM   20  O           1     -24.887  -2.845  -9.495  0.00  0.00    -0.646 OA
HETATM   21  O           1     -24.719  -4.953  -9.960  0.00  0.00    -0.646 OA
ENDBRANCH  18  19
BRANCH  18  22
HETATM   22  C           1     -22.219  -3.872 -11.266  0.00  0.00     0.045 C 
BRANCH  22  23
HETATM   23  C           1     -22.544  -2.607 -12.050  0.00  0.00     0.105 C 
BRANCH  23  24
HETATM   24  C           1     -23.252  -2.974 -13.330  0.00  0.00     0.215 C 
HETATM   25  N           1     -22.555  -3.029 -14.507  0.00  0.00    -0.370 N 
HETATM   26  H           1     -21.564  -2.822 -14.518  0.00  0.00     0.159 HD
HETATM   27  H           1     -23.030  -3.275 -15.366  0.00  0.00     0.159 HD
HETATM   28  O           1     -24.434  -3.221 -13.317  0.00  0.00    -0.274 OA
ENDBRANCH  23  24
ENDBRANCH  22  23
ENDBRANCH  18  22
ENDBRANCH   2  18
TORSDOF 12
ENDMDL
MODEL 2
REMARK VINA RESULT:      -6.5     11.199     13.292
REMARK  12 active torsions:
REMARK  status: ('A' for Active; 'I' for Inactive)
REMARK       I    between atoms: N_1  and  C_2 
REMARK    1  A    between atoms: C_2  and  C_20 
REMARK    2  A    between atoms: C_5  and  C_18 
REMARK    3  A    between atoms: N_11  and  C_23 
REMARK    4  A    between atoms: N_13  and  C_18 
REMARK       I    between atoms: N_13  and  C_17 
REMARK    5  A    between atoms: N_15  and  C_28 
REMARK    6  A    between atoms: C_17  and  C_23 
REMARK    7  A    between atoms: C_18  and  C_19 
REMARK    8  A    between atoms: C_19  and  C_20 
REMARK    9  A    between atoms: C_23  and  C_25 
REMARK   10  A    between atoms: C_25  and  C_26 
REMARK   11  A    between atoms: C_26  and  C_27 
REMARK   12  A    between atoms: C_27  and  C_28 
ROOT
HETATM    1  O           1     -27.051  -6.047 -16.853  0.00  0.00    -0.271 OA
HETATM    2  N           1     -28.003  -6.904 -18.681  0.00  0.00    -0.345 N 
HETATM    3  H           1     -27.895  -7.211 -19.640  0.00  0.00     0.163 HD
HETATM    4  C           1     -26.924  -6.413 -17.996  0.00  0.00     0.249 C 
ENDROOT
BRANCH   4   5
HETATM    5  C           1     -25.576  -6.329 -18.670  0.00  0.00     0.274 C 
BRANCH   5   6
HETATM    6  N           1     -24.595  -7.192 -17.933  0.00  0.00    -0.067 N 
HETATM    7  H           1     -24.303  -6.713 -17.052  0.00  0.00     0.275 HD
HETATM    8  H           1     -25.044  -8.106 -17.700  0.00  0.00     0.275 HD
HETATM    9  H           1     -23.757  -7.358 -18.534  0.00  0.00     0.275 HD
ENDBRANCH   5   6
BRANCH   5  10
HETATM   10  C           1     -25.697  -6.813 -20.109  0.00  0.00     0.042 C 
BRANCH  10  11
HETATM   11  C           1     -24.497  -7.685 -20.455  0.00  0.00     0.004 C 
BRANCH  11  12
HETATM   12  C           1     -24.417  -7.864 -21.965  0.00  0.00     0.027 C 
BRANCH  12  13
HETATM   13  C           1     -23.024  -8.344 -22.348  0.00  0.00     0.229 C 
BRANCH  13  14
HETATM   14  N           1     -22.493  -9.245 -21.273  0.00  0.00    -0.079 N 
HETATM   15  H           1     -22.242 -10.172 -21.687  0.00  0.00     0.274 HD
HETATM   16  H           1     -21.644  -8.814 -20.844  0.00  0.00     0.274 HD
HETATM   17  H           1     -23.224  -9.379 -20.537  0.00  0.00     0.274 HD
ENDBRANCH  13  14
ENDBRANCH  12  13
ENDBRANCH  11  12
ENDBRANCH  10  11
ENDBRANCH   5  10
ENDBRANCH   4   5
BRANCH   2  18
HETATM   18  C           1     -29.297  -6.985 -18.035  0.00  0.00     0.186 C 
BRANCH  18  19
HETATM   19  C           1     -30.161  -7.986 -18.763  0.00  0.00     0.196 C 
HETATM   20  O           1     -31.402  -7.845 -18.776  0.00  0.00    -0.646 OA
HETATM   21  O           1     -29.634  -8.954 -19.353  0.00  0.00    -0.646 OA
ENDBRANCH  18  19
BRANCH  18  22
HETATM   22  C           1     -29.966  -5.617 -18.067  0.00  0.00     0.045 C 
BRANCH  22  23
HETATM   23  C           1     -30.684  -5.371 -16.746  0.00  0.00     0.105 C 
BRANCH  23  24
HETATM   24  C           1     -31.786  -4.362 -16.952  0.00  0.00     0.215 C 
HETATM   25  N           1     -33.084  -4.699 -16.674  0.00  0.00    -0.370 N 
HETATM   26  H           1     -33.303  -5.625 -16.331  0.00  0.00     0.159 HD
HETATM   27  H           1     -33.823  -4.022 -16.812  0.00  0.00     0.159 HD
HETATM   28  O           1     -31.524  -3.256 -17.361  0.00  0.00    -0.274 OA
ENDBRANCH  23  24
ENDBRANCH  22  23
ENDBRANCH  18  22
ENDBRANCH   2  18
TORSDOF 12
ENDMDL
MODEL 3
REMARK VINA RESULT:      -6.5     12.039     14.785
REMARK  12 active torsions:
REMARK  status: ('A' for Active; 'I' for Inactive)
REMARK       I    between atoms: N_1  and  C_2 
REMARK    1  A    between atoms: C_2  and  C_20 
REMARK    2  A    between atoms: C_5  and  C_18 
REMARK    3  A    between atoms: N_11  and  C_23 
REMARK    4  A    between atoms: N_13  and  C_18 
REMARK       I    between atoms: N_13  and  C_17 
REMARK    5  A    between atoms: N_15  and  C_28 
REMARK    6  A    between atoms: C_17  and  C_23 
REMARK    7  A    between atoms: C_18  and  C_19 
REMARK    8  A    between atoms: C_19  and  C_20 
REMARK    9  A    between atoms: C_23  and  C_25 
REMARK   10  A    between atoms: C_25  and  C_26 
REMARK   11  A    between atoms: C_26  and  C_27 
REMARK   12  A    between atoms: C_27  and  C_28 
ROOT
HETATM    1  O           1     -34.360  -1.463 -10.176  0.00  0.00    -0.271 OA
HETATM    2  N           1     -35.318  -3.039 -11.434  0.00  0.00    -0.345 N 
HETATM    3  H           1     -36.085  -3.304 -12.039  0.00  0.00     0.163 HD
HETATM    4  C           1     -35.274  -1.780 -10.898  0.00  0.00     0.249 C 
ENDROOT
BRANCH   4   5
HETATM    5  C           1     -36.368  -0.788 -11.211  0.00  0.00     0.274 C 
BRANCH   5   6
HETATM    6  N           1     -36.222   0.412 -10.323  0.00  0.00    -0.067 N 
HETATM    7  H           1     -35.844   1.212 -10.878  0.00  0.00     0.275 HD
HETATM    8  H           1     -37.156   0.670  -9.931  0.00  0.00     0.275 HD
HETATM    9  H           1     -35.566   0.189  -9.542  0.00  0.00     0.275 HD
ENDBRANCH   5   6
BRANCH   5  10
HETATM   10  C           1     -36.260  -0.356 -12.668  0.00  0.00     0.042 C 
BRANCH  10  11
HETATM   11  C           1     -35.033   0.527 -12.848  0.00  0.00     0.004 C 
BRANCH  11  12
HETATM   12  C           1     -34.807   0.787 -14.332  0.00  0.00     0.027 C 
BRANCH  12  13
HETATM   13  C           1     -36.020   0.313 -15.121  0.00  0.00     0.229 C 
BRANCH  13  14
HETATM   14  N           1     -36.607   1.468 -15.877  0.00  0.00    -0.079 N 
HETATM   15  H           1     -37.537   1.193 -16.266  0.00  0.00     0.274 HD
HETATM   16  H           1     -36.726   2.282 -15.233  0.00  0.00     0.274 HD
HETATM   17  H           1     -35.967   1.734 -16.659  0.00  0.00     0.274 HD
ENDBRANCH  13  14
ENDBRANCH  12  13
ENDBRANCH  11  12
ENDBRANCH  10  11
ENDBRANCH   5  10
ENDBRANCH   4   5
BRANCH   2  18
HETATM   18  C           1     -34.268  -3.992 -11.133  0.00  0.00     0.186 C 
BRANCH  18  19
HETATM   19  C           1     -33.297  -4.049 -12.288  0.00  0.00     0.196 C 
HETATM   20  O           1     -32.084  -4.254 -12.073  0.00  0.00    -0.646 OA
HETATM   21  O           1     -33.708  -3.894 -13.458  0.00  0.00    -0.646 OA
ENDBRANCH  18  19
BRANCH  18  22
HETATM   22  C           1     -34.881  -5.369 -10.915  0.00  0.00     0.045 C 
BRANCH  22  23
HETATM   23  C           1     -33.771  -6.406 -10.795  0.00  0.00     0.105 C 
BRANCH  23  24
HETATM   24  C           1     -34.329  -7.676 -10.204  0.00  0.00     0.215 C 
HETATM   25  N           1     -33.608  -8.838 -10.272  0.00  0.00    -0.370 N 
HETATM   26  H           1     -32.700  -8.844 -10.718  0.00  0.00     0.159 HD
HETATM   27  H           1     -33.983  -9.690  -9.876  0.00  0.00     0.159 HD
HETATM   28  O           1     -35.413  -7.669  -9.672  0.00  0.00    -0.274 OA
ENDBRANCH  23  24
ENDBRANCH  22  23
ENDBRANCH  18  22
ENDBRANCH   2  18
TORSDOF 12
ENDMDL
MODEL 4
REMARK VINA RESULT:      -6.1     12.418     14.481
REMARK  12 active torsions:
REMARK  status: ('A' for Active; 'I' for Inactive)
REMARK       I    between atoms: N_1  and  C_2 
REMARK    1  A    between atoms: C_2  and  C_20 
REMARK    2  A    between atoms: C_5  and  C_18 
REMARK    3  A    between atoms: N_11  and  C_23 
REMARK    4  A    between atoms: N_13  and  C_18 
REMARK       I    between atoms: N_13  and  C_17 
REMARK    5  A    between atoms: N_15  and  C_28 
REMARK    6  A    between atoms: C_17  and  C_23 
REMARK    7  A    between atoms: C_18  and  C_19 
REMARK    8  A    between atoms: C_19  and  C_20 
REMARK    9  A    between atoms: C_23  and  C_25 
REMARK   10  A    between atoms: C_25  and  C_26 
REMARK   11  A    between atoms: C_26  and  C_27 
REMARK   12  A    between atoms: C_27  and  C_28 
ROOT
HETATM    1  O           1     -34.730   0.089 -12.094  0.00  0.00    -0.271 OA
HETATM    2  N           1     -35.292  -1.959 -11.406  0.00  0.00    -0.345 N 
HETATM    3  H           1     -35.949  -2.545 -10.905  0.00  0.00     0.163 HD
HETATM    4  C           1     -35.512  -0.611 -11.498  0.00  0.00     0.249 C 
ENDROOT
BRANCH   4   5
HETATM    5  C           1     -36.733   0.000 -10.854  0.00  0.00     0.274 C 
BRANCH   5   6
HETATM    6  N           1     -37.911  -0.155 -11.770  0.00  0.00    -0.067 N 
HETATM    7  H           1     -38.451   0.739 -11.798  0.00  0.00     0.275 HD
HETATM    8  H           1     -37.575  -0.390 -12.731  0.00  0.00     0.275 HD
HETATM    9  H           1     -38.526  -0.923 -11.419  0.00  0.00     0.275 HD
ENDBRANCH   5   6
BRANCH   5  10
HETATM   10  C           1     -37.020  -0.707  -9.535  0.00  0.00     0.042 C 
BRANCH  10  11
HETATM   11  C           1     -37.664   0.272  -8.563  0.00  0.00     0.004 C 
BRANCH  11  12
HETATM   12  C           1     -36.665   0.637  -7.473  0.00  0.00     0.027 C 
BRANCH  12  13
HETATM   13  C           1     -37.410   1.192  -6.266  0.00  0.00     0.229 C 
BRANCH  13  14
HETATM   14  N           1     -36.942   0.492  -5.025  0.00  0.00    -0.079 N 
HETATM   15  H           1     -37.411  -0.439  -4.951  0.00  0.00     0.274 HD
HETATM   16  H           1     -35.907   0.358  -5.069  0.00  0.00     0.274 HD
HETATM   17  H           1     -37.182   1.071  -4.187  0.00  0.00     0.274 HD
ENDBRANCH  13  14
ENDBRANCH  12  13
ENDBRANCH  11  12
ENDBRANCH  10  11
ENDBRANCH   5  10
ENDBRANCH   4   5
BRANCH   2  18
HETATM   18  C           1     -34.120  -2.546 -12.024  0.00  0.00     0.186 C 
BRANCH  18  19
HETATM   19  C           1     -34.501  -3.143 -13.356  0.00  0.00     0.196 C 
HETATM   20  O           1     -34.793  -2.397 -14.314  0.00  0.00    -0.646 OA
HETATM   21  O           1     -34.522  -4.385 -13.501  0.00  0.00    -0.646 OA
ENDBRANCH  18  19
BRANCH  18  22
HETATM   22  C           1     -33.562  -3.636 -11.118  0.00  0.00     0.045 C 
BRANCH  22  23
HETATM   23  C           1     -34.709  -4.471 -10.562  0.00  0.00     0.105 C 
BRANCH  23  24
HETATM   24  C           1     -34.297  -5.921 -10.509  0.00  0.00     0.215 C 
HETATM   25  N           1     -33.226  -6.356 -11.241  0.00  0.00    -0.370 N 
HETATM   26  H           1     -32.710  -5.705 -11.819  0.00  0.00     0.159 HD
HETATM   27  H           1     -32.950  -7.329 -11.205  0.00  0.00     0.159 HD
HETATM   28  O           1     -34.913  -6.699  -9.819  0.00  0.00    -0.274 OA
ENDBRANCH  23  24
ENDBRANCH  22  23
ENDBRANCH  18  22
ENDBRANCH   2  18
TORSDOF 12
ENDMDL
MODEL 5
REMARK VINA RESULT:      -5.9      3.350      8.345
REMARK  12 active torsions:
REMARK  status: ('A' for Active; 'I' for Inactive)
REMARK       I    between atoms: N_1  and  C_2 
REMARK    1  A    between atoms: C_2  and  C_20 
REMARK    2  A    between atoms: C_5  and  C_18 
REMARK    3  A    between atoms: N_11  and  C_23 
REMARK    4  A    between atoms: N_13  and  C_18 
REMARK       I    between atoms: N_13  and  C_17 
REMARK    5  A    between atoms: N_15  and  C_28 
REMARK    6  A    between atoms: C_17  and  C_23 
REMARK    7  A    between atoms: C_18  and  C_19 
REMARK    8  A    between atoms: C_19  and  C_20 
REMARK    9  A    between atoms: C_23  and  C_25 
REMARK   10  A    between atoms: C_25  and  C_26 
REMARK   11  A    between atoms: C_26  and  C_27 
REMARK   12  A    between atoms: C_27  and  C_28 
ROOT
HETATM    1  O           1     -20.336  -5.064  -5.486  0.00  0.00    -0.271 OA
HETATM    2  N           1     -20.819  -7.149  -6.123  0.00  0.00    -0.345 N 
HETATM    3  H           1     -21.196  -7.762  -6.835  0.00  0.00     0.163 HD
HETATM    4  C           1     -20.785  -5.796  -6.334  0.00  0.00     0.249 C 
ENDROOT
BRANCH   4   5
HETATM    5  C           1     -21.308  -5.221  -7.628  0.00  0.00     0.274 C 
BRANCH   5   6
HETATM    6  N           1     -21.989  -3.913  -7.353  0.00  0.00    -0.067 N 
HETATM    7  H           1     -22.591  -3.656  -8.167  0.00  0.00     0.275 HD
HETATM    8  H           1     -22.580  -4.003  -6.496  0.00  0.00     0.275 HD
HETATM    9  H           1     -21.269  -3.171  -7.204  0.00  0.00     0.275 HD
ENDBRANCH   5   6
BRANCH   5  10
HETATM   10  C           1     -20.149  -4.997  -8.590  0.00  0.00     0.042 C 
BRANCH  10  11
HETATM   11  C           1     -20.479  -3.842  -9.525  0.00  0.00     0.004 C 
BRANCH  11  12
HETATM   12  C           1     -20.716  -4.378 -10.931  0.00  0.00     0.027 C 
BRANCH  12  13
HETATM   13  C           1     -22.005  -3.790 -11.489  0.00  0.00     0.229 C 
BRANCH  13  14
HETATM   14  N           1     -21.864  -3.592 -12.969  0.00  0.00    -0.079 N 
HETATM   15  H           1     -22.789  -3.320 -13.374  0.00  0.00     0.274 HD
HETATM   16  H           1     -21.167  -2.837 -13.155  0.00  0.00     0.274 HD
HETATM   17  H           1     -21.539  -4.482 -13.410  0.00  0.00     0.274 HD
ENDBRANCH  13  14
ENDBRANCH  12  13
ENDBRANCH  11  12
ENDBRANCH  10  11
ENDBRANCH   5  10
ENDBRANCH   4   5
BRANCH   2  18
HETATM   18  C           1     -20.317  -7.701  -4.881  0.00  0.00     0.186 C 
BRANCH  18  19
HETATM   19  C           1     -19.586  -8.991  -5.164  0.00  0.00     0.196 C 
HETATM   20  O           1     -20.149  -9.898  -5.813  0.00  0.00    -0.646 OA
HETATM   21  O           1     -18.416  -9.151  -4.751  0.00  0.00    -0.646 OA
ENDBRANCH  18  19
BRANCH  18  22
HETATM   22  C           1     -21.483  -7.974  -3.939  0.00  0.00     0.045 C 
BRANCH  22  23
HETATM   23  C           1     -21.047  -7.715  -2.503  0.00  0.00     0.105 C 
BRANCH  23  24
HETATM   24  C           1     -22.034  -6.791  -1.835  0.00  0.00     0.215 C 
HETATM   25  N           1     -22.462  -7.051  -0.561  0.00  0.00    -0.370 N 
HETATM   26  H           1     -22.115  -7.863  -0.067  0.00  0.00     0.159 HD
HETATM   27  H           1     -23.124  -6.430  -0.113  0.00  0.00     0.159 HD
HETATM   28  O           1     -22.447  -5.821  -2.424  0.00  0.00    -0.274 OA
ENDBRANCH  23  24
ENDBRANCH  22  23
ENDBRANCH  18  22
ENDBRANCH   2  18
TORSDOF 12
ENDMDL
MODEL 6
REMARK VINA RESULT:      -5.9     10.396     12.975
REMARK  12 active torsions:
REMARK  status: ('A' for Active; 'I' for Inactive)
REMARK       I    between atoms: N_1  and  C_2 
REMARK    1  A    between atoms: C_2  and  C_20 
REMARK    2  A    between atoms: C_5  and  C_18 
REMARK    3  A    between atoms: N_11  and  C_23 
REMARK    4  A    between atoms: N_13  and  C_18 
REMARK       I    between atoms: N_13  and  C_17 
REMARK    5  A    between atoms: N_15  and  C_28 
REMARK    6  A    between atoms: C_17  and  C_23 
REMARK    7  A    between atoms: C_18  and  C_19 
REMARK    8  A    between atoms: C_19  and  C_20 
REMARK    9  A    between atoms: C_23  and  C_25 
REMARK   10  A    between atoms: C_25  and  C_26 
REMARK   11  A    between atoms: C_26  and  C_27 
REMARK   12  A    between atoms: C_27  and  C_28 
ROOT
HETATM    1  O           1     -28.398  -5.349 -19.021  0.00  0.00    -0.271 OA
HETATM    2  N           1     -27.416  -7.339 -19.265  0.00  0.00    -0.345 N 
HETATM    3  H           1     -27.326  -8.296 -18.945  0.00  0.00     0.163 HD
HETATM    4  C           1     -28.289  -6.489 -18.641  0.00  0.00     0.249 C 
ENDROOT
BRANCH   4   5
HETATM    5  C           1     -29.117  -6.979 -17.477  0.00  0.00     0.274 C 
BRANCH   5   6
HETATM    6  N           1     -28.531  -6.463 -16.196  0.00  0.00    -0.067 N 
HETATM    7  H           1     -29.151  -5.719 -15.804  0.00  0.00     0.275 HD
HETATM    8  H           1     -28.451  -7.248 -15.511  0.00  0.00     0.275 HD
HETATM    9  H           1     -27.584  -6.065 -16.383  0.00  0.00     0.275 HD
ENDBRANCH   5   6
BRANCH   5  10
HETATM   10  C           1     -30.546  -6.471 -17.621  0.00  0.00     0.042 C 
BRANCH  10  11
HETATM   11  C           1     -30.842  -5.463 -16.519  0.00  0.00     0.004 C 
BRANCH  11  12
HETATM   12  C           1     -31.616  -4.287 -17.099  0.00  0.00     0.027 C 
BRANCH  12  13
HETATM   13  C           1     -33.043  -4.306 -16.568  0.00  0.00     0.229 C 
BRANCH  13  14
HETATM   14  N           1     -33.801  -3.139 -17.127  0.00  0.00    -0.079 N 
HETATM   15  H           1     -33.813  -3.198 -18.170  0.00  0.00     0.274 HD
HETATM   16  H           1     -34.781  -3.154 -16.766  0.00  0.00     0.274 HD
HETATM   17  H           1     -33.336  -2.249 -16.834  0.00  0.00     0.274 HD
ENDBRANCH  13  14
ENDBRANCH  12  13
ENDBRANCH  11  12
ENDBRANCH  10  11
ENDBRANCH   5  10
ENDBRANCH   4   5
BRANCH   2  18
HETATM   18  C           1     -26.621  -6.870 -20.382  0.00  0.00     0.186 C 
BRANCH  18  19
HETATM   19  C           1     -26.324  -8.025 -21.308  0.00  0.00     0.196 C 
HETATM   20  O           1     -27.185  -8.910 -21.498  0.00  0.00    -0.646 OA
HETATM   21  O           1     -25.216  -8.094 -21.884  0.00  0.00    -0.646 OA
ENDBRANCH  18  19
BRANCH  18  22
HETATM   22  C           1     -25.314  -6.284 -19.863  0.00  0.00     0.045 C 
BRANCH  22  23
HETATM   23  C           1     -24.563  -7.343 -19.067  0.00  0.00     0.105 C 
BRANCH  23  24
HETATM   24  C           1     -24.730  -7.078 -17.592  0.00  0.00     0.215 C 
HETATM   25  N           1     -24.102  -7.879 -16.677  0.00  0.00    -0.370 N 
HETATM   26  H           1     -23.526  -8.650 -16.990  0.00  0.00     0.159 HD
HETATM   27  H           1     -24.214  -7.701 -15.687  0.00  0.00     0.159 HD
HETATM   28  O           1     -25.417  -6.158 -17.218  0.00  0.00    -0.274 OA
ENDBRANCH  23  24
ENDBRANCH  22  23
ENDBRANCH  18  22
ENDBRANCH   2  18
TORSDOF 12
ENDMDL
MODEL 7
REMARK VINA RESULT:      -5.9      2.305      3.503
REMARK  12 active torsions:
REMARK  status: ('A' for Active; 'I' for Inactive)
REMARK       I    between atoms: N_1  and  C_2 
REMARK    1  A    between atoms: C_2  and  C_20 
REMARK    2  A    between atoms: C_5  and  C_18 
REMARK    3  A    between atoms: N_11  and  C_23 
REMARK    4  A    between atoms: N_13  and  C_18 
REMARK       I    between atoms: N_13  and  C_17 
REMARK    5  A    between atoms: N_15  and  C_28 
REMARK    6  A    between atoms: C_17  and  C_23 
REMARK    7  A    between atoms: C_18  and  C_19 
REMARK    8  A    between atoms: C_19  and  C_20 
REMARK    9  A    between atoms: C_23  and  C_25 
REMARK   10  A    between atoms: C_25  and  C_26 
REMARK   11  A    between atoms: C_26  and  C_27 
REMARK   12  A    between atoms: C_27  and  C_28 
ROOT
HETATM    1  O           1     -20.556  -7.007  -6.639  0.00  0.00    -0.271 OA
HETATM    2  N           1     -22.219  -5.538  -6.386  0.00  0.00    -0.345 N 
HETATM    3  H           1     -22.976  -5.191  -5.811  0.00  0.00     0.163 HD
HETATM    4  C           1     -21.460  -6.592  -5.954  0.00  0.00     0.249 C 
ENDROOT
BRANCH   4   5
HETATM    5  C           1     -21.753  -7.236  -4.620  0.00  0.00     0.274 C 
BRANCH   5   6
HETATM    6  N           1     -20.826  -8.397  -4.412  0.00  0.00    -0.067 N 
HETATM    7  H           1     -21.075  -9.164  -5.077  0.00  0.00     0.275 HD
HETATM    8  H           1     -19.842  -8.091  -4.586  0.00  0.00     0.275 HD
HETATM    9  H           1     -20.916  -8.743  -3.431  0.00  0.00     0.275 HD
ENDBRANCH   5   6
BRANCH   5  10
HETATM   10  C           1     -21.546  -6.216  -3.507  0.00  0.00     0.042 C 
BRANCH  10  11
HETATM   11  C           1     -21.159  -6.936  -2.223  0.00  0.00     0.004 C 
BRANCH  11  12
HETATM   12  C           1     -22.277  -6.786  -1.200  0.00  0.00     0.027 C 
BRANCH  12  13
HETATM   13  C           1     -22.413  -8.075  -0.401  0.00  0.00     0.229 C 
BRANCH  13  14
HETATM   14  N           1     -23.549  -7.946   0.569  0.00  0.00    -0.079 N 
HETATM   15  H           1     -24.238  -7.248   0.209  0.00  0.00     0.274 HD
HETATM   16  H           1     -24.018  -8.872   0.682  0.00  0.00     0.274 HD
HETATM   17  H           1     -23.182  -7.627   1.495  0.00  0.00     0.274 HD
ENDBRANCH  13  14
ENDBRANCH  12  13
ENDBRANCH  11  12
ENDBRANCH  10  11
ENDBRANCH   5  10
ENDBRANCH   4   5
BRANCH   2  18
HETATM   18  C           1     -21.937  -4.919  -7.666  0.00  0.00     0.186 C 
BRANCH  18  19
HETATM   19  C           1     -20.924  -3.817  -7.480  0.00  0.00     0.196 C 
HETATM   20  O           1     -21.209  -2.818  -6.785  0.00  0.00    -0.646 OA
HETATM   21  O           1     -19.799  -3.903  -8.019  0.00  0.00    -0.646 OA
ENDBRANCH  18  19
BRANCH  18  22
HETATM   22  C           1     -23.223  -4.337  -8.241  0.00  0.00     0.045 C 
BRANCH  22  23
HETATM   23  C           1     -23.045  -4.089  -9.734  0.00  0.00     0.105 C 
BRANCH  23  24
HETATM   24  C           1     -24.309  -3.491 -10.299  0.00  0.00     0.215 C 
HETATM   25  N           1     -25.494  -3.633  -9.628  0.00  0.00    -0.370 N 
HETATM   26  H           1     -25.522  -4.139  -8.753  0.00  0.00     0.159 HD
HETATM   27  H           1     -26.341  -3.231 -10.008  0.00  0.00     0.159 HD
HETATM   28  O           1     -24.276  -2.886 -11.344  0.00  0.00    -0.274 OA
ENDBRANCH  23  24
ENDBRANCH  22  23
ENDBRANCH  18  22
ENDBRANCH   2  18
TORSDOF 12
ENDMDL
MODEL 8
REMARK VINA RESULT:      -5.8      4.072      8.103
REMARK  12 active torsions:
REMARK  status: ('A' for Active; 'I' for Inactive)
REMARK       I    between atoms: N_1  and  C_2 
REMARK    1  A    between atoms: C_2  and  C_20 
REMARK    2  A    between atoms: C_5  and  C_18 
REMARK    3  A    between atoms: N_11  and  C_23 
REMARK    4  A    between atoms: N_13  and  C_18 
REMARK       I    between atoms: N_13  and  C_17 
REMARK    5  A    between atoms: N_15  and  C_28 
REMARK    6  A    between atoms: C_17  and  C_23 
REMARK    7  A    between atoms: C_18  and  C_19 
REMARK    8  A    between atoms: C_19  and  C_20 
REMARK    9  A    between atoms: C_23  and  C_25 
REMARK   10  A    between atoms: C_25  and  C_26 
REMARK   11  A    between atoms: C_26  and  C_27 
REMARK   12  A    between atoms: C_27  and  C_28 
ROOT
HETATM    1  O           1     -19.753  -7.201  -6.031  0.00  0.00    -0.271 OA
HETATM    2  N           1     -21.552  -7.850  -4.878  0.00  0.00    -0.345 N 
HETATM    3  H           1     -22.526  -7.694  -4.651  0.00  0.00     0.163 HD
HETATM    4  C           1     -20.914  -7.016  -5.758  0.00  0.00     0.249 C 
ENDROOT
BRANCH   4   5
HETATM    5  C           1     -21.664  -5.867  -6.387  0.00  0.00     0.274 C 
BRANCH   5   6
HETATM    6  N           1     -22.921  -5.607  -5.612  0.00  0.00    -0.067 N 
HETATM    7  H           1     -23.532  -4.951  -6.149  0.00  0.00     0.275 HD
HETATM    8  H           1     -23.427  -6.509  -5.460  0.00  0.00     0.275 HD
HETATM    9  H           1     -22.680  -5.183  -4.689  0.00  0.00     0.275 HD
ENDBRANCH   5   6
BRANCH   5  10
HETATM   10  C           1     -20.790  -4.620  -6.368  0.00  0.00     0.042 C 
BRANCH  10  11
HETATM   11  C           1     -21.373  -3.575  -7.310  0.00  0.00     0.004 C 
BRANCH  11  12
HETATM   12  C           1     -21.555  -4.184  -8.694  0.00  0.00     0.027 C 
BRANCH  12  13
HETATM   13  C           1     -22.831  -3.642  -9.324  0.00  0.00     0.229 C 
BRANCH  13  14
HETATM   14  N           1     -23.981  -3.854  -8.386  0.00  0.00    -0.079 N 
HETATM   15  H           1     -24.393  -4.801  -8.547  0.00  0.00     0.274 HD
HETATM   16  H           1     -23.645  -3.784  -7.399  0.00  0.00     0.274 HD
HETATM   17  H           1     -24.710  -3.123  -8.557  0.00  0.00     0.274 HD
ENDBRANCH  13  14
ENDBRANCH  12  13
ENDBRANCH  11  12
ENDBRANCH  10  11
ENDBRANCH   5  10
ENDBRANCH   4   5
BRANCH   2  18
HETATM   18  C           1     -20.832  -8.953  -4.274  0.00  0.00     0.186 C 
BRANCH  18  19
HETATM   19  C           1     -21.245 -10.245  -4.937  0.00  0.00     0.196 C 
HETATM   20  O           1     -20.767 -10.556  -6.049  0.00  0.00    -0.646 OA
HETATM   21  O           1     -22.064 -11.003  -4.374  0.00  0.00    -0.646 OA
ENDBRANCH  18  19
BRANCH  18  22
HETATM   22  C           1     -21.159  -9.017  -2.788  0.00  0.00     0.045 C 
BRANCH  22  23
HETATM   23  C           1     -20.710  -7.727  -2.113  0.00  0.00     0.105 C 
BRANCH  23  24
HETATM   24  C           1     -21.918  -6.892  -1.768  0.00  0.00     0.215 C 
HETATM   25  N           1     -22.566  -7.084  -0.578  0.00  0.00    -0.370 N 
HETATM   26  H           1     -22.234  -7.786   0.071  0.00  0.00     0.159 HD
HETATM   27  H           1     -23.376  -6.523  -0.347  0.00  0.00     0.159 HD
HETATM   28  O           1     -22.313  -6.054  -2.543  0.00  0.00    -0.274 OA
ENDBRANCH  23  24
ENDBRANCH  22  23
ENDBRANCH  18  22
ENDBRANCH   2  18
TORSDOF 12
ENDMDL
MODEL 9
REMARK VINA RESULT:      -5.7      1.517      1.965
REMARK  12 active torsions:
REMARK  status: ('A' for Active; 'I' for Inactive)
REMARK       I    between atoms: N_1  and  C_2 
REMARK    1  A    between atoms: C_2  and  C_20 
REMARK    2  A    between atoms: C_5  and  C_18 
REMARK    3  A    between atoms: N_11  and  C_23 
REMARK    4  A    between atoms: N_13  and  C_18 
REMARK       I    between atoms: N_13  and  C_17 
REMARK    5  A    between atoms: N_15  and  C_28 
REMARK    6  A    between atoms: C_17  and  C_23 
REMARK    7  A    between atoms: C_18  and  C_19 
REMARK    8  A    between atoms: C_19  and  C_20 
REMARK    9  A    between atoms: C_23  and  C_25 
REMARK   10  A    between atoms: C_25  and  C_26 
REMARK   11  A    between atoms: C_26  and  C_27 
REMARK   12  A    between atoms: C_27  and  C_28 
ROOT
HETATM    1  O           1     -21.726  -3.479  -7.487  0.00  0.00    -0.271 OA
HETATM    2  N           1     -22.588  -4.703  -9.143  0.00  0.00    -0.345 N 
HETATM    3  H           1     -22.657  -5.607  -9.594  0.00  0.00     0.163 HD
HETATM    4  C           1     -21.809  -4.556  -8.027  0.00  0.00     0.249 C 
ENDROOT
BRANCH   4   5
HETATM    5  C           1     -21.055  -5.739  -7.470  0.00  0.00     0.274 C 
BRANCH   5   6
HETATM    6  N           1     -19.632  -5.344  -7.204  0.00  0.00    -0.067 N 
HETATM    7  H           1     -18.995  -6.115  -7.503  0.00  0.00     0.275 HD
HETATM    8  H           1     -19.407  -4.477  -7.741  0.00  0.00     0.275 HD
HETATM    9  H           1     -19.506  -5.164  -6.183  0.00  0.00     0.275 HD
ENDBRANCH   5   6
BRANCH   5  10
HETATM   10  C           1     -21.707  -6.191  -6.170  0.00  0.00     0.042 C 
BRANCH  10  11
HETATM   11  C           1     -20.629  -6.604  -5.177  0.00  0.00     0.004 C 
BRANCH  11  12
HETATM   12  C           1     -20.863  -5.896  -3.849  0.00  0.00     0.027 C 
BRANCH  12  13
HETATM   13  C           1     -22.005  -6.575  -3.105  0.00  0.00     0.229 C 
BRANCH  13  14
HETATM   14  N           1     -22.307  -5.812  -1.849  0.00  0.00    -0.079 N 
HETATM   15  H           1     -23.069  -6.295  -1.322  0.00  0.00     0.274 HD
HETATM   16  H           1     -21.450  -5.764  -1.255  0.00  0.00     0.274 HD
HETATM   17  H           1     -22.614  -4.843  -2.095  0.00  0.00     0.274 HD
ENDBRANCH  13  14
ENDBRANCH  12  13
ENDBRANCH  11  12
ENDBRANCH  10  11
ENDBRANCH   5  10
ENDBRANCH   4   5
BRANCH   2  18
HETATM   18  C           1     -23.312  -3.567  -9.677  0.00  0.00     0.186 C 
BRANCH  18  19
HETATM   19  C           1     -24.787  -3.885  -9.716  0.00  0.00     0.196 C 
HETATM   20  O           1     -25.623  -2.960  -9.795  0.00  0.00    -0.646 OA
HETATM   21  O           1     -25.172  -5.074  -9.671  0.00  0.00    -0.646 OA
ENDBRANCH  18  19
BRANCH  18  22
HETATM   22  C           1     -22.818  -3.269 -11.087  0.00  0.00     0.045 C 
BRANCH  22  23
HETATM   23  C           1     -21.881  -4.381 -11.542  0.00  0.00     0.105 C 
BRANCH  23  24
HETATM   24  C           1     -20.454  -3.988 -11.253  0.00  0.00     0.215 C 
HETATM   25  N           1     -20.048  -2.695 -11.445  0.00  0.00    -0.370 N 
HETATM   26  H           1     -20.705  -2.002 -11.780  0.00  0.00     0.159 HD
HETATM   27  H           1     -19.091  -2.431 -11.250  0.00  0.00     0.159 HD
HETATM   28  O           1     -19.670  -4.814 -10.852  0.00  0.00    -0.274 OA
ENDBRANCH  23  24
ENDBRANCH  22  23
ENDBRANCH  18  22
ENDBRANCH   2  18
TORSDOF 12
ENDMDL
