MODEL 1
REMARK VINA RESULT:      -5.6      0.000      0.000
REMARK  7 active torsions:
REMARK  status: ('A' for Active; 'I' for Inactive)
REMARK    1  A    between atoms: O_5  and  C_6 
REMARK    2  A    between atoms: C_6  and  C_19 
REMARK    3  A    between atoms: C_7  and  C_8 
REMARK    4  A    between atoms: C_8  and  C_10 
REMARK    5  A    between atoms: C_8  and  N_17 
REMARK    6  A    between atoms: N_11  and  C_19 
REMARK       I    between atoms: N_17  and  C_18 
REMARK    7  A    between atoms: C_18  and  C_19 
ROOT
HETATM    1  O           1     -21.566  -3.195  -7.285  0.00  0.00    -0.271 OA
HETATM    2  H           1     -22.038  -5.692  -9.124  0.00  0.00     0.163 HD
HETATM    3  N           1     -22.054  -4.720  -8.841  0.00  0.00    -0.344 N 
HETATM    4  C           1     -21.547  -4.353  -7.623  0.00  0.00     0.251 C 
ENDROOT
BRANCH   4   5
HETATM    5  C           1     -20.967  -5.399  -6.702  0.00  0.00     0.297 C 
BRANCH   5   6
HETATM    6  C           1     -22.050  -5.900  -5.755  0.00  0.00     0.206 C 
BRANCH   6   7
HETATM    7  O           1     -23.263  -5.264  -6.053  0.00  0.00    -0.398 OA
HETATM    8  H           1     -23.518  -4.787  -5.282  0.00  0.00     0.209 HD
ENDBRANCH   6   7
ENDBRANCH   5   6
BRANCH   5   9
HETATM    9  N           1     -19.847  -4.797  -5.906  0.00  0.00    -0.064 N 
HETATM   10  H           1     -19.981  -5.017  -4.894  0.00  0.00     0.275 HD
HETATM   11  H           1     -18.937  -5.194  -6.231  0.00  0.00     0.275 HD
HETATM   12  H           1     -19.844  -3.760  -6.039  0.00  0.00     0.275 HD
ENDBRANCH   5   9
ENDBRANCH   4   5
BRANCH   3  13
HETATM   13  C           1     -22.612  -3.715  -9.726  0.00  0.00     0.189 C 
BRANCH  13  14
HETATM   14  C           1     -24.115  -3.837  -9.739  0.00  0.00     0.197 C 
HETATM   15  O           1     -24.825  -2.848  -9.454  0.00  0.00    -0.646 OA
HETATM   16  O           1     -24.652  -4.926 -10.034  0.00  0.00    -0.646 OA
ENDBRANCH  13  14
BRANCH  13  17
HETATM   17  C           1     -22.073  -3.925 -11.134  0.00  0.00     0.010 C 
HETATM   18  C           1     -20.550  -3.957 -11.094  0.00  0.00     0.012 C 
HETATM   19  C           1     -22.534  -2.782 -12.029  0.00  0.00     0.012 C 
ENDBRANCH  13  17
ENDBRANCH   3  13
TORSDOF 7
ENDMDL
MODEL 2
REMARK VINA RESULT:      -5.5     12.049     13.604
REMARK  7 active torsions:
REMARK  status: ('A' for Active; 'I' for Inactive)
REMARK    1  A    between atoms: O_5  and  C_6 
REMARK    2  A    between atoms: C_6  and  C_19 
REMARK    3  A    between atoms: C_7  and  C_8 
REMARK    4  A    between atoms: C_8  and  C_10 
REMARK    5  A    between atoms: C_8  and  N_17 
REMARK    6  A    between atoms: N_11  and  C_19 
REMARK       I    between atoms: N_17  and  C_18 
REMARK    7  A    between atoms: C_18  and  C_19 
ROOT
HETATM    1  O           1     -33.438  -2.230 -11.165  0.00  0.00    -0.271 OA
HETATM    2  H           1     -35.538  -2.287 -13.494  0.00  0.00     0.163 HD
HETATM    3  N           1     -34.999  -1.904 -12.728  0.00  0.00    -0.344 N 
HETATM    4  C           1     -34.081  -2.686 -12.079  0.00  0.00     0.251 C 
ENDROOT
BRANCH   4   5
HETATM    5  C           1     -33.873  -4.118 -12.507  0.00  0.00     0.297 C 
BRANCH   5   6
HETATM    6  C           1     -34.876  -5.013 -11.790  0.00  0.00     0.206 C 
BRANCH   6   7
HETATM    7  O           1     -35.777  -4.220 -11.067  0.00  0.00    -0.398 OA
HETATM    8  H           1     -36.633  -4.593 -11.194  0.00  0.00     0.209 HD
ENDBRANCH   6   7
ENDBRANCH   5   6
BRANCH   5   9
HETATM    9  N           1     -32.480  -4.547 -12.155  0.00  0.00    -0.064 N 
HETATM   10  H           1     -32.471  -4.948 -11.190  0.00  0.00     0.275 HD
HETATM   11  H           1     -32.156  -5.271 -12.836  0.00  0.00     0.275 HD
HETATM   12  H           1     -31.840  -3.721 -12.194  0.00  0.00     0.275 HD
ENDBRANCH   5   9
ENDBRANCH   4   5
BRANCH   3  13
HETATM   13  C           1     -35.199  -0.528 -12.317  0.00  0.00     0.189 C 
BRANCH  13  14
HETATM   14  C           1     -36.285  -0.468 -11.272  0.00  0.00     0.197 C 
HETATM   15  O           1     -36.352   0.509 -10.494  0.00  0.00    -0.646 OA
HETATM   16  O           1     -37.118  -1.395 -11.183  0.00  0.00    -0.646 OA
ENDBRANCH  13  14
BRANCH  13  17
HETATM   17  C           1     -35.607   0.307 -13.523  0.00  0.00     0.010 C 
HETATM   18  C           1     -35.746  -0.597 -14.741  0.00  0.00     0.012 C 
HETATM   19  C           1     -34.544   1.364 -13.792  0.00  0.00     0.012 C 
ENDBRANCH  13  17
ENDBRANCH   3  13
TORSDOF 7
ENDMDL
MODEL 3
REMARK VINA RESULT:      -5.5     12.502     14.356
REMARK  7 active torsions:
REMARK  status: ('A' for Active; 'I' for Inactive)
REMARK    1  A    between atoms: O_5  and  C_6 
REMARK    2  A    between atoms: C_6  and  C_19 
REMARK    3  A    between atoms: C_7  and  C_8 
REMARK    4  A    between atoms: C_8  and  C_10 
REMARK    5  A    between atoms: C_8  and  N_17 
REMARK    6  A    between atoms: N_11  and  C_19 
REMARK       I    between atoms: N_17  and  C_18 
REMARK    7  A    between atoms: C_18  and  C_19 
ROOT
HETATM    1  O           1     -36.948  -0.991 -13.062  0.00  0.00    -0.271 OA
HETATM    2  H           1     -33.888  -1.457 -13.572  0.00  0.00     0.163 HD
HETATM    3  N           1     -34.790  -1.562 -13.125  0.00  0.00    -0.344 N 
HETATM    4  C           1     -35.872  -0.867 -13.596  0.00  0.00     0.251 C 
ENDROOT
BRANCH   4   5
HETATM    5  C           1     -35.720   0.054 -14.781  0.00  0.00     0.297 C 
BRANCH   5   6
HETATM    6  C           1     -35.952  -0.730 -16.067  0.00  0.00     0.206 C 
BRANCH   6   7
HETATM    7  O           1     -35.155  -1.883 -16.062  0.00  0.00    -0.398 OA
HETATM    8  H           1     -35.716  -2.602 -15.827  0.00  0.00     0.209 HD
ENDBRANCH   6   7
ENDBRANCH   5   6
BRANCH   5   9
HETATM    9  N           1     -34.335   0.630 -14.791  0.00  0.00    -0.064 N 
HETATM   10  H           1     -33.642  -0.131 -14.969  0.00  0.00     0.275 HD
HETATM   11  H           1     -34.263   1.350 -15.545  0.00  0.00     0.275 HD
HETATM   12  H           1     -34.136   1.073 -13.865  0.00  0.00     0.275 HD
ENDBRANCH   5   9
ENDBRANCH   4   5
BRANCH   3  13
HETATM   13  C           1     -34.937  -2.446 -11.985  0.00  0.00     0.189 C 
BRANCH  13  14
HETATM   14  C           1     -34.576  -1.704 -10.723  0.00  0.00     0.197 C 
HETATM   15  O           1     -35.470  -1.149 -10.046  0.00  0.00    -0.646 OA
HETATM   16  O           1     -33.384  -1.641 -10.353  0.00  0.00    -0.646 OA
ENDBRANCH  13  14
BRANCH  13  17
HETATM   17  C           1     -34.012  -3.644 -12.152  0.00  0.00     0.010 C 
HETATM   18  C           1     -34.043  -4.111 -13.602  0.00  0.00     0.012 C 
HETATM   19  C           1     -34.478  -4.775 -11.243  0.00  0.00     0.012 C 
ENDBRANCH  13  17
ENDBRANCH   3  13
TORSDOF 7
ENDMDL
MODEL 4
REMARK VINA RESULT:      -5.3     12.129     13.530
REMARK  7 active torsions:
REMARK  status: ('A' for Active; 'I' for Inactive)
REMARK    1  A    between atoms: O_5  and  C_6 
REMARK    2  A    between atoms: C_6  and  C_19 
REMARK    3  A    between atoms: C_7  and  C_8 
REMARK    4  A    between atoms: C_8  and  C_10 
REMARK    5  A    between atoms: C_8  and  N_17 
REMARK    6  A    between atoms: N_11  and  C_19 
REMARK       I    between atoms: N_17  and  C_18 
REMARK    7  A    between atoms: C_18  and  C_19 
ROOT
HETATM    1  O           1     -35.075  -5.218 -15.326  0.00  0.00    -0.271 OA
HETATM    2  H           1     -32.752  -3.295 -14.463  0.00  0.00     0.163 HD
HETATM    3  N           1     -33.575  -3.875 -14.361  0.00  0.00    -0.344 N 
HETATM    4  C           1     -34.092  -4.527 -15.448  0.00  0.00     0.251 C 
ENDROOT
BRANCH   4   5
HETATM    5  C           1     -33.435  -4.381 -16.798  0.00  0.00     0.297 C 
BRANCH   5   6
HETATM    6  C           1     -31.921  -4.393 -16.631  0.00  0.00     0.206 C 
BRANCH   6   7
HETATM    7  O           1     -31.373  -3.264 -17.255  0.00  0.00    -0.398 OA
HETATM    8  H           1     -31.523  -2.534 -16.680  0.00  0.00     0.209 HD
ENDBRANCH   6   7
ENDBRANCH   5   6
BRANCH   5   9
HETATM    9  N           1     -33.859  -3.085 -17.422  0.00  0.00    -0.064 N 
HETATM   10  H           1     -33.600  -3.084 -18.435  0.00  0.00     0.275 HD
HETATM   11  H           1     -34.894  -2.975 -17.328  0.00  0.00     0.275 HD
HETATM   12  H           1     -33.378  -2.292 -16.939  0.00  0.00     0.275 HD
ENDBRANCH   5   9
ENDBRANCH   4   5
BRANCH   3  13
HETATM   13  C           1     -34.207  -4.015 -13.063  0.00  0.00     0.189 C 
BRANCH  13  14
HETATM   14  C           1     -34.929  -2.737 -12.716  0.00  0.00     0.197 C 
HETATM   15  O           1     -35.808  -2.738 -11.826  0.00  0.00    -0.646 OA
HETATM   16  O           1     -34.650  -1.678 -13.317  0.00  0.00    -0.646 OA
ENDBRANCH  13  14
BRANCH  13  17
HETATM   17  C           1     -33.145  -4.301 -12.011  0.00  0.00     0.010 C 
HETATM   18  C           1     -33.599  -5.461 -11.134  0.00  0.00     0.012 C 
HETATM   19  C           1     -32.939  -3.062 -11.148  0.00  0.00     0.012 C 
ENDBRANCH  13  17
ENDBRANCH   3  13
TORSDOF 7
ENDMDL
MODEL 5
REMARK VINA RESULT:      -5.2     11.997     13.910
REMARK  7 active torsions:
REMARK  status: ('A' for Active; 'I' for Inactive)
REMARK    1  A    between atoms: O_5  and  C_6 
REMARK    2  A    between atoms: C_6  and  C_19 
REMARK    3  A    between atoms: C_7  and  C_8 
REMARK    4  A    between atoms: C_8  and  C_10 
REMARK    5  A    between atoms: C_8  and  N_17 
REMARK    6  A    between atoms: N_11  and  C_19 
REMARK       I    between atoms: N_17  and  C_18 
REMARK    7  A    between atoms: C_18  and  C_19 
ROOT
HETATM    1  O           1     -34.723  -3.422 -13.192  0.00  0.00    -0.271 OA
HETATM    2  H           1     -34.578  -0.554 -11.928  0.00  0.00     0.163 HD
HETATM    3  N           1     -34.866  -1.282 -12.570  0.00  0.00    -0.344 N 
HETATM    4  C           1     -34.380  -2.553 -12.426  0.00  0.00     0.251 C 
ENDROOT
BRANCH   4   5
HETATM    5  C           1     -33.413  -2.870 -11.311  0.00  0.00     0.297 C 
BRANCH   5   6
HETATM    6  C           1     -33.637  -4.299 -10.834  0.00  0.00     0.206 C 
BRANCH   6   7
HETATM    7  O           1     -32.982  -5.188 -11.699  0.00  0.00    -0.398 OA
HETATM    8  H           1     -32.204  -5.478 -11.254  0.00  0.00     0.209 HD
ENDBRANCH   6   7
ENDBRANCH   5   6
BRANCH   5   9
HETATM    9  N           1     -33.639  -1.922 -10.171  0.00  0.00    -0.064 N 
HETATM   10  H           1     -33.657  -2.455  -9.272  0.00  0.00     0.275 HD
HETATM   11  H           1     -32.865  -1.220 -10.143  0.00  0.00     0.275 HD
HETATM   12  H           1     -34.552  -1.430 -10.302  0.00  0.00     0.275 HD
ENDBRANCH   5   9
ENDBRANCH   4   5
BRANCH   3  13
HETATM   13  C           1     -35.795  -0.978 -13.641  0.00  0.00     0.189 C 
BRANCH  13  14
HETATM   14  C           1     -35.039  -0.398 -14.811  0.00  0.00     0.197 C 
HETATM   15  O           1     -35.071  -0.971 -15.922  0.00  0.00    -0.646 OA
HETATM   16  O           1     -34.381   0.655 -14.671  0.00  0.00    -0.646 OA
ENDBRANCH  13  14
BRANCH  13  17
HETATM   17  C           1     -36.823   0.032 -13.150  0.00  0.00     0.010 C 
HETATM   18  C           1     -37.183  -0.276 -11.702  0.00  0.00     0.012 C 
HETATM   19  C           1     -38.074  -0.056 -14.015  0.00  0.00     0.012 C 
ENDBRANCH  13  17
ENDBRANCH   3  13
TORSDOF 7
ENDMDL
MODEL 6
REMARK VINA RESULT:      -5.0      3.047      5.837
REMARK  7 active torsions:
REMARK  status: ('A' for Active; 'I' for Inactive)
REMARK    1  A    between atoms: O_5  and  C_6 
REMARK    2  A    between atoms: C_6  and  C_19 
REMARK    3  A    between atoms: C_7  and  C_8 
REMARK    4  A    between atoms: C_8  and  C_10 
REMARK    5  A    between atoms: C_8  and  N_17 
REMARK    6  A    between atoms: N_11  and  C_19 
REMARK       I    between atoms: N_17  and  C_18 
REMARK    7  A    between atoms: C_18  and  C_19 
ROOT
HETATM    1  O           1     -22.461  -1.892 -12.012  0.00  0.00    -0.271 OA
HETATM    2  H           1     -22.363  -5.027 -12.018  0.00  0.00     0.163 HD
HETATM    3  N           1     -22.294  -4.088 -11.646  0.00  0.00    -0.344 N 
HETATM    4  C           1     -22.543  -3.012 -12.455  0.00  0.00     0.251 C 
ENDROOT
BRANCH   4   5
HETATM    5  C           1     -22.920  -3.226 -13.900  0.00  0.00     0.297 C 
BRANCH   5   6
HETATM    6  C           1     -23.361  -1.902 -14.512  0.00  0.00     0.206 C 
BRANCH   6   7
HETATM    7  O           1     -24.599  -1.528 -13.973  0.00  0.00    -0.398 OA
HETATM    8  H           1     -24.892  -2.244 -13.436  0.00  0.00     0.209 HD
ENDBRANCH   6   7
ENDBRANCH   5   6
BRANCH   5   9
HETATM    9  N           1     -24.046  -4.213 -13.982  0.00  0.00    -0.064 N 
HETATM   10  H           1     -24.115  -4.740 -13.082  0.00  0.00     0.275 HD
HETATM   11  H           1     -24.943  -3.706 -14.157  0.00  0.00     0.275 HD
HETATM   12  H           1     -23.865  -4.884 -14.764  0.00  0.00     0.275 HD
ENDBRANCH   5   9
ENDBRANCH   4   5
BRANCH   3  13
HETATM   13  C           1     -21.932  -3.882 -10.257  0.00  0.00     0.189 C 
BRANCH  13  14
HETATM   14  C           1     -20.484  -4.254 -10.055  0.00  0.00     0.197 C 
HETATM   15  O           1     -19.922  -4.010  -8.965  0.00  0.00    -0.646 OA
HETATM   16  O           1     -19.846  -4.807 -10.977  0.00  0.00    -0.646 OA
ENDBRANCH  13  14
BRANCH  13  17
HETATM   17  C           1     -22.809  -4.755  -9.370  0.00  0.00     0.010 C 
HETATM   18  C           1     -24.160  -4.966 -10.043  0.00  0.00     0.012 C 
HETATM   19  C           1     -23.013  -4.068  -8.026  0.00  0.00     0.012 C 
ENDBRANCH  13  17
ENDBRANCH   3  13
TORSDOF 7
ENDMDL
MODEL 7
REMARK VINA RESULT:      -4.7      2.276      2.983
REMARK  7 active torsions:
REMARK  status: ('A' for Active; 'I' for Inactive)
REMARK    1  A    between atoms: O_5  and  C_6 
REMARK    2  A    between atoms: C_6  and  C_19 
REMARK    3  A    between atoms: C_7  and  C_8 
REMARK    4  A    between atoms: C_8  and  C_10 
REMARK    5  A    between atoms: C_8  and  N_17 
REMARK    6  A    between atoms: N_11  and  C_19 
REMARK       I    between atoms: N_17  and  C_18 
REMARK    7  A    between atoms: C_18  and  C_19 
ROOT
HETATM    1  O           1     -21.182  -6.178  -8.040  0.00  0.00    -0.271 OA
HETATM    2  H           1     -22.046  -3.172  -8.274  0.00  0.00     0.163 HD
HETATM    3  N           1     -21.827  -4.111  -8.583  0.00  0.00    -0.344 N 
HETATM    4  C           1     -21.444  -5.059  -7.672  0.00  0.00     0.251 C 
ENDROOT
BRANCH   4   5
HETATM    5  C           1     -21.349  -4.704  -6.209  0.00  0.00     0.297 C 
BRANCH   5   6
HETATM    6  C           1     -19.887  -4.704  -5.779  0.00  0.00     0.206 C 
BRANCH   6   7
HETATM    7  O           1     -19.068  -4.598  -6.911  0.00  0.00    -0.398 OA
HETATM    8  H           1     -18.281  -4.156  -6.640  0.00  0.00     0.209 HD
ENDBRANCH   6   7
ENDBRANCH   5   6
BRANCH   5   9
HETATM    9  N           1     -22.107  -5.714  -5.399  0.00  0.00    -0.064 N 
HETATM   10  H           1     -23.031  -5.314  -5.118  0.00  0.00     0.275 HD
HETATM   11  H           1     -22.260  -6.575  -5.971  0.00  0.00     0.275 HD
HETATM   12  H           1     -21.558  -5.956  -4.543  0.00  0.00     0.275 HD
ENDBRANCH   5   9
ENDBRANCH   4   5
BRANCH   3  13
HETATM   13  C           1     -21.918  -4.452  -9.989  0.00  0.00     0.189 C 
BRANCH  13  14
HETATM   14  C           1     -20.640  -4.055 -10.686  0.00  0.00     0.197 C 
HETATM   15  O           1     -20.535  -2.920 -11.200  0.00  0.00    -0.646 OA
HETATM   16  O           1     -19.687  -4.861 -10.751  0.00  0.00    -0.646 OA
ENDBRANCH  13  14
BRANCH  13  17
HETATM   17  C           1     -23.090  -3.709 -10.616  0.00  0.00     0.010 C 
HETATM   18  C           1     -24.204  -3.560  -9.587  0.00  0.00     0.012 C 
HETATM   19  C           1     -23.607  -4.495 -11.814  0.00  0.00     0.012 C 
ENDBRANCH  13  17
ENDBRANCH   3  13
TORSDOF 7
ENDMDL
MODEL 8
REMARK VINA RESULT:      -4.7     10.058     11.462
REMARK  7 active torsions:
REMARK  status: ('A' for Active; 'I' for Inactive)
REMARK    1  A    between atoms: O_5  and  C_6 
REMARK    2  A    between atoms: C_6  and  C_19 
REMARK    3  A    between atoms: C_7  and  C_8 
REMARK    4  A    between atoms: C_8  and  C_10 
REMARK    5  A    between atoms: C_8  and  N_17 
REMARK    6  A    between atoms: N_11  and  C_19 
REMARK       I    between atoms: N_17  and  C_18 
REMARK    7  A    between atoms: C_18  and  C_19 
ROOT
HETATM    1  O           1     -26.409  -5.526 -17.567  0.00  0.00    -0.271 OA
HETATM    2  H           1     -28.345  -7.677 -18.777  0.00  0.00     0.163 HD
HETATM    3  N           1     -28.043  -6.921 -18.176  0.00  0.00    -0.344 N 
HETATM    4  C           1     -26.770  -6.428 -18.283  0.00  0.00     0.251 C 
ENDROOT
BRANCH   4   5
HETATM    5  C           1     -25.818  -7.013 -19.297  0.00  0.00     0.297 C 
BRANCH   5   6
HETATM    6  C           1     -24.389  -6.889 -18.784  0.00  0.00     0.206 C 
BRANCH   6   7
HETATM    7  O           1     -24.263  -7.591 -17.577  0.00  0.00    -0.398 OA
HETATM    8  H           1     -24.865  -8.315 -17.618  0.00  0.00     0.209 HD
ENDBRANCH   6   7
ENDBRANCH   5   6
BRANCH   5   9
HETATM    9  N           1     -25.949  -6.270 -20.593  0.00  0.00    -0.064 N 
HETATM   10  H           1     -26.780  -5.637 -20.550  0.00  0.00     0.275 HD
HETATM   11  H           1     -25.087  -5.703 -20.758  0.00  0.00     0.275 HD
HETATM   12  H           1     -26.073  -6.953 -21.375  0.00  0.00     0.275 HD
ENDBRANCH   5   9
ENDBRANCH   4   5
BRANCH   3  13
HETATM   13  C           1     -28.958  -6.358 -17.202  0.00  0.00     0.189 C 
BRANCH  13  14
HETATM   14  C           1     -28.411  -6.579 -15.813  0.00  0.00     0.197 C 
HETATM   15  O           1     -27.974  -7.703 -15.485  0.00  0.00    -0.646 OA
HETATM   16  O           1     -28.395  -5.638 -14.991  0.00  0.00    -0.646 OA
ENDBRANCH  13  14
BRANCH  13  17
HETATM   17  C           1     -30.314  -7.040 -17.328  0.00  0.00     0.010 C 
HETATM   18  C           1     -30.392  -7.771 -18.662  0.00  0.00     0.012 C 
HETATM   19  C           1     -31.417  -5.991 -17.257  0.00  0.00     0.012 C 
ENDBRANCH  13  17
ENDBRANCH   3  13
TORSDOF 7
ENDMDL
MODEL 9
REMARK VINA RESULT:      -4.7      2.102      4.853
REMARK  7 active torsions:
REMARK  status: ('A' for Active; 'I' for Inactive)
REMARK    1  A    between atoms: O_5  and  C_6 
REMARK    2  A    between atoms: C_6  and  C_19 
REMARK    3  A    between atoms: C_7  and  C_8 
REMARK    4  A    between atoms: C_8  and  C_10 
REMARK    5  A    between atoms: C_8  and  N_17 
REMARK    6  A    between atoms: N_11  and  C_19 
REMARK       I    between atoms: N_17  and  C_18 
REMARK    7  A    between atoms: C_18  and  C_19 
ROOT
HETATM    1  O           1     -21.814  -4.870 -10.166  0.00  0.00    -0.271 OA
HETATM    2  H           1     -23.408  -4.574  -7.480  0.00  0.00     0.163 HD
HETATM    3  N           1     -22.629  -4.794  -8.089  0.00  0.00    -0.344 N 
HETATM    4  C           1     -22.742  -4.607  -9.440  0.00  0.00     0.251 C 
ENDROOT
BRANCH   4   5
HETATM    5  C           1     -24.027  -4.073 -10.023  0.00  0.00     0.297 C 
BRANCH   5   6
HETATM    6  C           1     -23.734  -3.369 -11.342  0.00  0.00     0.206 C 
BRANCH   6   7
HETATM    7  O           1     -23.520  -4.325 -12.344  0.00  0.00    -0.398 OA
HETATM    8  H           1     -23.076  -3.887 -13.050  0.00  0.00     0.209 HD
ENDBRANCH   6   7
ENDBRANCH   5   6
BRANCH   5   9
HETATM    9  N           1     -24.643  -3.098  -9.063  0.00  0.00    -0.064 N 
HETATM   10  H           1     -24.163  -2.174  -9.148  0.00  0.00     0.275 HD
HETATM   11  H           1     -25.658  -2.984  -9.286  0.00  0.00     0.275 HD
HETATM   12  H           1     -24.538  -3.457  -8.087  0.00  0.00     0.275 HD
ENDBRANCH   5   9
ENDBRANCH   4   5
BRANCH   3  13
HETATM   13  C           1     -21.394  -5.308  -7.529  0.00  0.00     0.189 C 
BRANCH  13  14
HETATM   14  C           1     -21.710  -6.243  -6.388  0.00  0.00     0.197 C 
HETATM   15  O           1     -22.541  -5.906  -5.516  0.00  0.00    -0.646 OA
HETATM   16  O           1     -21.142  -7.353  -6.313  0.00  0.00    -0.646 OA
ENDBRANCH  13  14
BRANCH  13  17
HETATM   17  C           1     -20.549  -4.149  -7.018  0.00  0.00     0.010 C 
HETATM   18  C           1     -19.444  -3.846  -8.022  0.00  0.00     0.012 C 
HETATM   19  C           1     -19.929  -4.526  -5.678  0.00  0.00     0.012 C 
ENDBRANCH  13  17
ENDBRANCH   3  13
TORSDOF 7
ENDMDL
