MODEL 1
REMARK VINA RESULT:      -6.1      0.000      0.000
REMARK  5 active torsions:
REMARK  status: ('A' for Active; 'I' for Inactive)
REMARK    1  A    between atoms: N_3  and  C_6 
REMARK    2  A    between atoms: S_4  and  C_5 
REMARK    3  A    between atoms: C_5  and  C_6 
REMARK    4  A    between atoms: C_6  and  C_7 
REMARK       I    between atoms: C_7  and  N_8 
REMARK    5  A    between atoms: C_14  and  C_18 
ROOT
HETATM    1  C           1     -34.918  -1.752 -10.949  0.00  0.00     0.127 C 
HETATM    2  O           1     -35.088  -1.710 -14.557  0.00  0.00    -0.271 OA
HETATM    3  C           1     -35.254  -1.318 -13.427  0.00  0.00     0.252 C 
HETATM    4  N           1     -34.805  -2.065 -12.371  0.00  0.00    -0.336 N 
HETATM    5  C           1     -33.043  -3.223 -11.348  0.00  0.00     0.038 C 
HETATM    6  C           1     -33.576  -2.176 -10.376  0.00  0.00     0.022 C 
HETATM    7  C           1     -34.110  -3.348 -12.420  0.00  0.00     0.188 C 
ENDROOT
BRANCH   3   8
HETATM    8  C           1     -35.956  -0.006 -13.179  0.00  0.00     0.283 C 
BRANCH   8   9
HETATM    9  N           1     -35.554   0.983 -14.233  0.00  0.00    -0.066 N 
HETATM   10  H           1     -35.492   1.936 -13.811  0.00  0.00     0.275 HD
HETATM   11  H           1     -34.623   0.714 -14.625  0.00  0.00     0.275 HD
HETATM   12  H           1     -36.268   0.985 -14.997  0.00  0.00     0.275 HD
ENDBRANCH   8   9
BRANCH   8  13
HETATM   13  C           1     -37.463  -0.218 -13.232  0.00  0.00     0.113 C 
BRANCH  13  14
HETATM   14  S           1     -38.075   0.189 -14.891  0.00  0.00    -0.180 SA
HETATM   15  H           1     -36.878   0.526 -15.403  0.00  0.00     0.101 HD
ENDBRANCH  13  14
ENDBRANCH   8  13
ENDBRANCH   3   8
BRANCH   7  16
HETATM   16  C           1     -35.055  -4.483 -12.109  0.00  0.00     0.196 C 
HETATM   17  O           1     -35.770  -4.437 -11.085  0.00  0.00    -0.646 OA
HETATM   18  O           1     -35.122  -5.469 -12.874  0.00  0.00    -0.646 OA
ENDBRANCH   7  16
TORSDOF 5
ENDMDL
MODEL 2
REMARK VINA RESULT:      -5.8      2.687      5.072
REMARK  5 active torsions:
REMARK  status: ('A' for Active; 'I' for Inactive)
REMARK    1  A    between atoms: N_3  and  C_6 
REMARK    2  A    between atoms: S_4  and  C_5 
REMARK    3  A    between atoms: C_5  and  C_6 
REMARK    4  A    between atoms: C_6  and  C_7 
REMARK       I    between atoms: C_7  and  N_8 
REMARK    5  A    between atoms: C_14  and  C_18 
ROOT
HETATM    1  C           1     -36.509  -0.060 -12.412  0.00  0.00     0.127 C 
HETATM    2  O           1     -34.508  -2.747 -13.763  0.00  0.00    -0.271 OA
HETATM    3  C           1     -34.995  -2.032 -12.920  0.00  0.00     0.252 C 
HETATM    4  N           1     -35.835  -1.015 -13.286  0.00  0.00    -0.336 N 
HETATM    5  C           1     -37.727  -0.319 -14.482  0.00  0.00     0.038 C 
HETATM    6  C           1     -37.895   0.074 -13.019  0.00  0.00     0.022 C 
HETATM    7  C           1     -36.254  -0.650 -14.637  0.00  0.00     0.188 C 
ENDROOT
BRANCH   3   8
HETATM    8  C           1     -34.676  -2.259 -11.463  0.00  0.00     0.283 C 
BRANCH   8   9
HETATM    9  N           1     -35.770  -3.068 -10.832  0.00  0.00    -0.066 N 
HETATM   10  H           1     -36.541  -3.210 -11.521  0.00  0.00     0.275 HD
HETATM   11  H           1     -35.391  -3.997 -10.538  0.00  0.00     0.275 HD
HETATM   12  H           1     -36.139  -2.561  -9.995  0.00  0.00     0.275 HD
ENDBRANCH   8   9
BRANCH   8  13
HETATM   13  C           1     -33.356  -3.009 -11.342  0.00  0.00     0.113 C 
BRANCH  13  14
HETATM   14  S           1     -33.684  -4.755 -10.971  0.00  0.00    -0.180 SA
HETATM   15  H           1     -33.714  -5.167 -12.251  0.00  0.00     0.101 HD
ENDBRANCH  13  14
ENDBRANCH   8  13
ENDBRANCH   3   8
BRANCH   7  16
HETATM   16  C           1     -35.483   0.549 -15.132  0.00  0.00     0.196 C 
HETATM   17  O           1     -34.282   0.694 -14.816  0.00  0.00    -0.646 OA
HETATM   18  O           1     -36.046   1.398 -15.857  0.00  0.00    -0.646 OA
ENDBRANCH   7  16
TORSDOF 5
ENDMDL
MODEL 3
REMARK VINA RESULT:      -5.7      2.110      2.610
REMARK  5 active torsions:
REMARK  status: ('A' for Active; 'I' for Inactive)
REMARK    1  A    between atoms: N_3  and  C_6 
REMARK    2  A    between atoms: S_4  and  C_5 
REMARK    3  A    between atoms: C_5  and  C_6 
REMARK    4  A    between atoms: C_6  and  C_7 
REMARK       I    between atoms: C_7  and  N_8 
REMARK    5  A    between atoms: C_14  and  C_18 
ROOT
HETATM    1  C           1     -35.568  -3.797 -10.853  0.00  0.00     0.127 C 
HETATM    2  O           1     -34.649  -0.468 -11.911  0.00  0.00    -0.271 OA
HETATM    3  C           1     -35.273  -1.322 -11.329  0.00  0.00     0.252 C 
HETATM    4  N           1     -34.930  -2.639 -11.474  0.00  0.00    -0.336 N 
HETATM    5  C           1     -33.268  -4.290 -11.406  0.00  0.00     0.038 C 
HETATM    6  C           1     -34.401  -4.692 -10.469  0.00  0.00     0.022 C 
HETATM    7  C           1     -33.847  -3.193 -12.281  0.00  0.00     0.188 C 
ENDROOT
BRANCH   3   8
HETATM    8  C           1     -36.433  -0.937 -10.444  0.00  0.00     0.283 C 
BRANCH   8   9
HETATM    9  N           1     -35.919  -0.529  -9.096  0.00  0.00    -0.066 N 
HETATM   10  H           1     -34.890  -0.364  -9.150  0.00  0.00     0.275 HD
HETATM   11  H           1     -36.397   0.349  -8.792  0.00  0.00     0.275 HD
HETATM   12  H           1     -36.114  -1.290  -8.405  0.00  0.00     0.275 HD
ENDBRANCH   8   9
BRANCH   8  13
HETATM   13  C           1     -37.188   0.227 -11.072  0.00  0.00     0.113 C 
BRANCH  13  14
HETATM   14  S           1     -37.933  -0.308 -12.638  0.00  0.00    -0.180 SA
HETATM   15  H           1     -36.994   0.234 -13.434  0.00  0.00     0.101 HD
ENDBRANCH  13  14
ENDBRANCH   8  13
ENDBRANCH   3   8
BRANCH   7  16
HETATM   16  C           1     -34.378  -3.761 -13.574  0.00  0.00     0.196 C 
HETATM   17  O           1     -34.664  -4.975 -13.652  0.00  0.00    -0.646 OA
HETATM   18  O           1     -34.530  -3.018 -14.568  0.00  0.00    -0.646 OA
ENDBRANCH   7  16
TORSDOF 5
ENDMDL
MODEL 4
REMARK VINA RESULT:      -4.9     19.071     20.393
REMARK  5 active torsions:
REMARK  status: ('A' for Active; 'I' for Inactive)
REMARK    1  A    between atoms: N_3  and  C_6 
REMARK    2  A    between atoms: S_4  and  C_5 
REMARK    3  A    between atoms: C_5  and  C_6 
REMARK    4  A    between atoms: C_6  and  C_7 
REMARK       I    between atoms: C_7  and  N_8 
REMARK    5  A    between atoms: C_14  and  C_18 
ROOT
HETATM    1  C           1     -21.933  -9.834  -2.180  0.00  0.00     0.127 C 
HETATM    2  O           1     -20.849 -10.376   1.222  0.00  0.00    -0.271 OA
HETATM    3  C           1     -21.279 -10.657   0.130  0.00  0.00     0.252 C 
HETATM    4  N           1     -21.431  -9.680  -0.818  0.00  0.00    -0.336 N 
HETATM    5  C           1     -20.493  -7.900  -2.020  0.00  0.00     0.038 C 
HETATM    6  C           1     -21.028  -8.933  -3.005  0.00  0.00     0.022 C 
HETATM    7  C           1     -21.125  -8.258  -0.687  0.00  0.00     0.188 C 
ENDROOT
BRANCH   3   8
HETATM    8  C           1     -21.652 -12.083  -0.191  0.00  0.00     0.283 C 
BRANCH   8   9
HETATM    9  N           1     -20.633 -13.011   0.403  0.00  0.00    -0.066 N 
HETATM   10  H           1     -20.105 -13.485  -0.363  0.00  0.00     0.275 HD
HETATM   11  H           1     -19.969 -12.464   0.997  0.00  0.00     0.275 HD
HETATM   12  H           1     -21.118 -13.729   0.989  0.00  0.00     0.275 HD
ENDBRANCH   8   9
BRANCH   8  13
HETATM   13  C           1     -23.023 -12.395   0.393  0.00  0.00     0.113 C 
BRANCH  13  14
HETATM   14  S           1     -22.874 -13.741   1.601  0.00  0.00    -0.180 SA
HETATM   15  H           1     -24.188 -13.830   1.876  0.00  0.00     0.101 HD
ENDBRANCH  13  14
ENDBRANCH   8  13
ENDBRANCH   3   8
BRANCH   7  16
HETATM   16  C           1     -22.383  -7.458  -0.456  0.00  0.00     0.196 C 
HETATM   17  O           1     -23.201  -7.817   0.419  0.00  0.00    -0.646 OA
HETATM   18  O           1     -22.609  -6.436  -1.140  0.00  0.00    -0.646 OA
ENDBRANCH   7  16
TORSDOF 5
ENDMDL
MODEL 5
REMARK VINA RESULT:      -4.9     18.216     19.354
REMARK  5 active torsions:
REMARK  status: ('A' for Active; 'I' for Inactive)
REMARK    1  A    between atoms: N_3  and  C_6 
REMARK    2  A    between atoms: S_4  and  C_5 
REMARK    3  A    between atoms: C_5  and  C_6 
REMARK    4  A    between atoms: C_6  and  C_7 
REMARK       I    between atoms: C_7  and  N_8 
REMARK    5  A    between atoms: C_14  and  C_18 
ROOT
HETATM    1  C           1     -22.556 -10.376  -2.017  0.00  0.00     0.127 C 
HETATM    2  O           1     -22.066  -7.551   0.180  0.00  0.00    -0.271 OA
HETATM    3  C           1     -22.149  -8.152  -0.863  0.00  0.00     0.252 C 
HETATM    4  N           1     -22.421  -9.494  -0.861  0.00  0.00    -0.336 N 
HETATM    5  C           1     -23.785 -11.255  -0.131  0.00  0.00     0.038 C 
HETATM    6  C           1     -23.727 -11.274  -1.654  0.00  0.00     0.022 C 
HETATM    7  C           1     -22.640 -10.355   0.298  0.00  0.00     0.188 C 
ENDROOT
BRANCH   3   8
HETATM    8  C           1     -21.952  -7.425  -2.171  0.00  0.00     0.283 C 
BRANCH   8   9
HETATM    9  N           1     -22.315  -5.980  -1.999  0.00  0.00    -0.066 N 
HETATM   10  H           1     -23.041  -5.717  -2.702  0.00  0.00     0.275 HD
HETATM   11  H           1     -22.693  -5.829  -1.036  0.00  0.00     0.275 HD
HETATM   12  H           1     -21.464  -5.389  -2.137  0.00  0.00     0.275 HD
ENDBRANCH   8   9
BRANCH   8  13
HETATM   13  C           1     -20.494  -7.534  -2.598  0.00  0.00     0.113 C 
BRANCH  13  14
HETATM   14  S           1     -20.408  -8.136  -4.308  0.00  0.00    -0.180 SA
HETATM   15  H           1     -19.261  -7.509  -4.621  0.00  0.00     0.101 HD
ENDBRANCH  13  14
ENDBRANCH   8  13
ENDBRANCH   3   8
BRANCH   7  16
HETATM   16  C           1     -21.405 -11.166   0.605  0.00  0.00     0.196 C 
HETATM   17  O           1     -21.495 -12.401   0.774  0.00  0.00    -0.646 OA
HETATM   18  O           1     -20.293 -10.602   0.691  0.00  0.00    -0.646 OA
ENDBRANCH   7  16
TORSDOF 5
ENDMDL
MODEL 6
REMARK VINA RESULT:      -4.8     17.673     19.045
REMARK  5 active torsions:
REMARK  status: ('A' for Active; 'I' for Inactive)
REMARK    1  A    between atoms: N_3  and  C_6 
REMARK    2  A    between atoms: S_4  and  C_5 
REMARK    3  A    between atoms: C_5  and  C_6 
REMARK    4  A    between atoms: C_6  and  C_7 
REMARK       I    between atoms: C_7  and  N_8 
REMARK    5  A    between atoms: C_14  and  C_18 
ROOT
HETATM    1  C           1     -22.675  -8.188  -0.475  0.00  0.00     0.127 C 
HETATM    2  O           1     -19.885  -8.581  -2.735  0.00  0.00    -0.271 OA
HETATM    3  C           1     -20.946  -8.169  -2.332  0.00  0.00     0.252 C 
HETATM    4  N           1     -21.422  -8.578  -1.116  0.00  0.00    -0.336 N 
HETATM    5  C           1     -21.052  -8.870   1.180  0.00  0.00     0.038 C 
HETATM    6  C           1     -22.296  -8.011   0.986  0.00  0.00     0.022 C 
HETATM    7  C           1     -20.789  -9.500  -0.177  0.00  0.00     0.188 C 
ENDROOT
BRANCH   3   8
HETATM    8  C           1     -21.747  -7.203  -3.171  0.00  0.00     0.283 C 
BRANCH   8   9
HETATM    9  N           1     -21.490  -5.802  -2.703  0.00  0.00    -0.066 N 
HETATM   10  H           1     -20.946  -5.286  -3.430  0.00  0.00     0.275 HD
HETATM   11  H           1     -22.401  -5.316  -2.540  0.00  0.00     0.275 HD
HETATM   12  H           1     -20.944  -5.828  -1.811  0.00  0.00     0.275 HD
ENDBRANCH   8   9
BRANCH   8  13
HETATM   13  C           1     -21.336  -7.334  -4.631  0.00  0.00     0.113 C 
BRANCH  13  14
HETATM   14  S           1     -20.934  -5.694  -5.296  0.00  0.00    -0.180 SA
HETATM   15  H           1     -19.610  -5.773  -5.074  0.00  0.00     0.101 HD
ENDBRANCH  13  14
ENDBRANCH   8  13
ENDBRANCH   3   8
BRANCH   7  16
HETATM   16  C           1     -21.415 -10.870  -0.264  0.00  0.00     0.196 C 
HETATM   17  O           1     -21.649 -11.380  -1.381  0.00  0.00    -0.646 OA
HETATM   18  O           1     -21.700 -11.494   0.780  0.00  0.00    -0.646 OA
ENDBRANCH   7  16
TORSDOF 5
ENDMDL
MODEL 7
REMARK VINA RESULT:      -4.8     15.950     17.658
REMARK  5 active torsions:
REMARK  status: ('A' for Active; 'I' for Inactive)
REMARK    1  A    between atoms: N_3  and  C_6 
REMARK    2  A    between atoms: S_4  and  C_5 
REMARK    3  A    between atoms: C_5  and  C_6 
REMARK    4  A    between atoms: C_6  and  C_7 
REMARK       I    between atoms: C_7  and  N_8 
REMARK    5  A    between atoms: C_14  and  C_18 
ROOT
HETATM    1  C           1     -21.117  -7.977  -4.726  0.00  0.00     0.127 C 
HETATM    2  O           1     -21.787  -5.464  -2.220  0.00  0.00    -0.271 OA
HETATM    3  C           1     -21.629  -6.570  -2.678  0.00  0.00     0.252 C 
HETATM    4  N           1     -21.338  -6.726  -4.006  0.00  0.00    -0.336 N 
HETATM    5  C           1     -19.997  -6.149  -5.840  0.00  0.00     0.038 C 
HETATM    6  C           1     -19.958  -7.661  -5.657  0.00  0.00     0.022 C 
HETATM    7  C           1     -21.180  -5.680  -5.012  0.00  0.00     0.188 C 
ENDROOT
BRANCH   3   8
HETATM    8  C           1     -21.754  -7.780  -1.785  0.00  0.00     0.283 C 
BRANCH   8   9
HETATM    9  N           1     -20.386  -8.286  -1.435  0.00  0.00    -0.066 N 
HETATM   10  H           1     -20.123  -9.059  -2.085  0.00  0.00     0.275 HD
HETATM   11  H           1     -19.694  -7.507  -1.522  0.00  0.00     0.275 HD
HETATM   12  H           1     -20.389  -8.642  -0.452  0.00  0.00     0.275 HD
ENDBRANCH   8   9
BRANCH   8  13
HETATM   13  C           1     -22.494  -7.397  -0.510  0.00  0.00     0.113 C 
BRANCH  13  14
HETATM   14  S           1     -21.771  -8.283   0.899  0.00  0.00    -0.180 SA
HETATM   15  H           1     -22.830  -9.081   1.123  0.00  0.00     0.101 HD
ENDBRANCH  13  14
ENDBRANCH   8  13
ENDBRANCH   3   8
BRANCH   7  16
HETATM   16  C           1     -22.420  -5.563  -5.864  0.00  0.00     0.196 C 
HETATM   17  O           1     -23.533  -5.884  -5.395  0.00  0.00    -0.646 OA
HETATM   18  O           1     -22.334  -5.146  -7.039  0.00  0.00    -0.646 OA
ENDBRANCH   7  16
TORSDOF 5
ENDMDL
MODEL 8
REMARK VINA RESULT:      -4.7     19.213     20.426
REMARK  5 active torsions:
REMARK  status: ('A' for Active; 'I' for Inactive)
REMARK    1  A    between atoms: N_3  and  C_6 
REMARK    2  A    between atoms: S_4  and  C_5 
REMARK    3  A    between atoms: C_5  and  C_6 
REMARK    4  A    between atoms: C_6  and  C_7 
REMARK       I    between atoms: C_7  and  N_8 
REMARK    5  A    between atoms: C_14  and  C_18 
ROOT
HETATM    1  C           1     -20.877 -10.139   0.770  0.00  0.00     0.127 C 
HETATM    2  O           1     -23.984 -11.349  -0.620  0.00  0.00    -0.271 OA
HETATM    3  C           1     -22.921 -11.400  -0.050  0.00  0.00     0.252 C 
HETATM    4  N           1     -22.175 -10.264   0.113  0.00  0.00    -0.336 N 
HETATM    5  C           1     -22.061  -8.033   0.823  0.00  0.00     0.038 C 
HETATM    6  C           1     -20.987  -8.837   1.546  0.00  0.00     0.022 C 
HETATM    7  C           1     -22.504  -8.913  -0.333  0.00  0.00     0.188 C 
ENDROOT
BRANCH   3   8
HETATM    8  C           1     -22.414 -12.718   0.483  0.00  0.00     0.283 C 
BRANCH   8   9
HETATM    9  N           1     -23.378 -13.250   1.501  0.00  0.00    -0.066 N 
HETATM   10  H           1     -24.307 -12.789   1.376  0.00  0.00     0.275 HD
HETATM   11  H           1     -23.482 -14.282   1.376  0.00  0.00     0.275 HD
HETATM   12  H           1     -23.015 -13.049   2.461  0.00  0.00     0.275 HD
ENDBRANCH   8   9
BRANCH   8  13
HETATM   13  C           1     -22.285 -13.714  -0.662  0.00  0.00     0.113 C 
BRANCH  13  14
HETATM   14  S           1     -20.946 -13.193  -1.770  0.00  0.00    -0.180 SA
HETATM   15  H           1     -21.411 -11.948  -1.979  0.00  0.00     0.101 HD
ENDBRANCH  13  14
ENDBRANCH   8  13
ENDBRANCH   3   8
BRANCH   7  16
HETATM   16  C           1     -21.750  -8.565  -1.593  0.00  0.00     0.196 C 
HETATM   17  O           1     -21.136  -7.479  -1.674  0.00  0.00    -0.646 OA
HETATM   18  O           1     -21.741  -9.362  -2.556  0.00  0.00    -0.646 OA
ENDBRANCH   7  16
TORSDOF 5
ENDMDL
MODEL 9
REMARK VINA RESULT:      -4.6      2.879      4.764
REMARK  5 active torsions:
REMARK  status: ('A' for Active; 'I' for Inactive)
REMARK    1  A    between atoms: N_3  and  C_6 
REMARK    2  A    between atoms: S_4  and  C_5 
REMARK    3  A    between atoms: C_5  and  C_6 
REMARK    4  A    between atoms: C_6  and  C_7 
REMARK       I    between atoms: C_7  and  N_8 
REMARK    5  A    between atoms: C_14  and  C_18 
ROOT
HETATM    1  C           1     -34.955  -1.465 -11.578  0.00  0.00     0.127 C 
HETATM    2  O           1     -34.633  -3.168 -14.748  0.00  0.00    -0.271 OA
HETATM    3  C           1     -34.502  -2.982 -13.562  0.00  0.00     0.252 C 
HETATM    4  N           1     -35.018  -1.853 -12.985  0.00  0.00    -0.336 N 
HETATM    5  C           1     -36.859  -0.439 -12.656  0.00  0.00     0.038 C 
HETATM    6  C           1     -36.333  -0.889 -11.298  0.00  0.00     0.022 C 
HETATM    7  C           1     -35.752  -0.774 -13.640  0.00  0.00     0.188 C 
ENDROOT
BRANCH   3   8
HETATM    8  C           1     -33.768  -3.993 -12.717  0.00  0.00     0.283 C 
BRANCH   8   9
HETATM    9  N           1     -33.060  -3.289 -11.597  0.00  0.00    -0.066 N 
HETATM   10  H           1     -32.162  -3.779 -11.389  0.00  0.00     0.275 HD
HETATM   11  H           1     -32.863  -2.302 -11.876  0.00  0.00     0.275 HD
HETATM   12  H           1     -33.666  -3.296 -10.745  0.00  0.00     0.275 HD
ENDBRANCH   8   9
BRANCH   8  13
HETATM   13  C           1     -34.762  -4.992 -12.140  0.00  0.00     0.113 C 
BRANCH  13  14
HETATM   14  S           1     -34.172  -5.569 -10.523  0.00  0.00    -0.180 SA
HETATM   15  H           1     -35.352  -6.065 -10.112  0.00  0.00     0.101 HD
ENDBRANCH  13  14
ENDBRANCH   8  13
ENDBRANCH   3   8
BRANCH   7  16
HETATM   16  C           1     -34.859   0.420 -13.872  0.00  0.00     0.196 C 
HETATM   17  O           1     -34.170   0.492 -14.912  0.00  0.00    -0.646 OA
HETATM   18  O           1     -34.808   1.336 -13.023  0.00  0.00    -0.646 OA
ENDBRANCH   7  16
TORSDOF 5
ENDMDL
