MODEL 1
REMARK VINA RESULT:      -6.5      0.000      0.000
REMARK  9 active torsions:
REMARK  status: ('A' for Active; 'I' for Inactive)
REMARK    1  A    between atoms: C_2  and  O_4 
REMARK    2  A    between atoms: C_2  and  C_3 
REMARK    3  A    between atoms: C_3  and  C_21 
REMARK    4  A    between atoms: C_3  and  N_20 
REMARK    5  A    between atoms: C_5  and  C_6 
REMARK    6  A    between atoms: C_5  and  C_11 
REMARK    7  A    between atoms: C_6  and  C_7 
REMARK    8  A    between atoms: C_6  and  N_15 
REMARK       I    between atoms: C_7  and  N_20 
REMARK    9  A    between atoms: C_11  and  C_18 
ROOT
HETATM    1  C           1     -28.483  -6.379 -18.639  0.00  0.00     0.249 C 
HETATM    2  H           1     -27.535  -8.211 -18.788  0.00  0.00     0.163 HD
HETATM    3  O           1     -28.566  -5.266 -19.102  0.00  0.00    -0.271 OA
HETATM    4  N           1     -27.603  -7.280 -19.175  0.00  0.00    -0.343 N 
ENDROOT
BRANCH   1   5
HETATM    5  C           1     -29.350  -6.774 -17.469  0.00  0.00     0.275 C 
BRANCH   5   6
HETATM    6  C           1     -28.747  -6.230 -16.182  0.00  0.00     0.053 C 
BRANCH   6   7
HETATM    7  C           1     -27.771  -7.248 -15.607  0.00  0.00     0.115 C 
BRANCH   7   8
HETATM    8  C           1     -26.357  -6.768 -15.825  0.00  0.00     0.172 C 
HETATM    9  O           1     -26.141  -5.756 -16.525  0.00  0.00    -0.648 OA
HETATM   10  O           1     -25.401  -7.383 -15.303  0.00  0.00    -0.648 OA
ENDBRANCH   7   8
ENDBRANCH   6   7
ENDBRANCH   5   6
BRANCH   5  11
HETATM   11  N           1     -29.429  -8.270 -17.391  0.00  0.00    -0.066 N 
HETATM   12  H           1     -28.891  -8.690 -18.182  0.00  0.00     0.275 HD
HETATM   13  H           1     -30.429  -8.569 -17.451  0.00  0.00     0.275 HD
HETATM   14  H           1     -29.025  -8.593 -16.483  0.00  0.00     0.275 HD
ENDBRANCH   5  11
ENDBRANCH   1   5
BRANCH   4  15
HETATM   15  C           1     -26.770  -6.898 -20.299  0.00  0.00     0.209 C 
BRANCH  15  16
HETATM   16  C           1     -25.416  -6.424 -19.787  0.00  0.00     0.200 C 
BRANCH  16  17
HETATM   17  O           1     -24.893  -7.374 -18.899  0.00  0.00    -0.398 OA
HETATM   18  H           1     -25.554  -8.034 -18.783  0.00  0.00     0.209 HD
ENDBRANCH  16  17
ENDBRANCH  15  16
BRANCH  15  19
HETATM   19  C           1     -26.576  -8.088 -21.207  0.00  0.00     0.198 C 
HETATM   20  O           1     -27.542  -8.836 -21.472  0.00  0.00    -0.646 OA
HETATM   21  O           1     -25.450  -8.325 -21.696  0.00  0.00    -0.646 OA
ENDBRANCH  15  19
ENDBRANCH   4  15
TORSDOF 9
ENDMDL
MODEL 2
REMARK VINA RESULT:      -6.0      3.394      5.789
REMARK  9 active torsions:
REMARK  status: ('A' for Active; 'I' for Inactive)
REMARK    1  A    between atoms: C_2  and  O_4 
REMARK    2  A    between atoms: C_2  and  C_3 
REMARK    3  A    between atoms: C_3  and  C_21 
REMARK    4  A    between atoms: C_3  and  N_20 
REMARK    5  A    between atoms: C_5  and  C_6 
REMARK    6  A    between atoms: C_5  and  C_11 
REMARK    7  A    between atoms: C_6  and  C_7 
REMARK    8  A    between atoms: C_6  and  N_15 
REMARK       I    between atoms: C_7  and  N_20 
REMARK    9  A    between atoms: C_11  and  C_18 
ROOT
HETATM    1  C           1     -30.890  -6.568 -17.283  0.00  0.00     0.249 C 
HETATM    2  H           1     -30.515  -4.932 -16.073  0.00  0.00     0.163 HD
HETATM    3  O           1     -31.711  -7.118 -17.978  0.00  0.00    -0.271 OA
HETATM    4  N           1     -31.203  -5.392 -16.655  0.00  0.00    -0.343 N 
ENDROOT
BRANCH   1   5
HETATM    5  C           1     -29.521  -7.177 -17.107  0.00  0.00     0.275 C 
BRANCH   5   6
HETATM    6  C           1     -28.780  -6.450 -15.993  0.00  0.00     0.053 C 
BRANCH   6   7
HETATM    7  C           1     -27.654  -7.331 -15.471  0.00  0.00     0.115 C 
BRANCH   7   8
HETATM    8  C           1     -26.324  -6.721 -15.841  0.00  0.00     0.172 C 
HETATM    9  O           1     -26.269  -5.819 -16.705  0.00  0.00    -0.648 OA
HETATM   10  O           1     -25.277  -7.117 -15.283  0.00  0.00    -0.648 OA
ENDBRANCH   7   8
ENDBRANCH   6   7
ENDBRANCH   5   6
BRANCH   5  11
HETATM   11  N           1     -28.750  -7.048 -18.387  0.00  0.00    -0.066 N 
HETATM   12  H           1     -28.916  -6.103 -18.800  0.00  0.00     0.275 HD
HETATM   13  H           1     -29.066  -7.784 -19.059  0.00  0.00     0.275 HD
HETATM   14  H           1     -27.730  -7.170 -18.193  0.00  0.00     0.275 HD
ENDBRANCH   5  11
ENDBRANCH   1   5
BRANCH   4  15
HETATM   15  C           1     -32.519  -4.808 -16.824  0.00  0.00     0.209 C 
BRANCH  15  16
HETATM   16  C           1     -33.217  -4.734 -15.472  0.00  0.00     0.200 C 
BRANCH  16  17
HETATM   17  O           1     -34.606  -4.773 -15.661  0.00  0.00    -0.398 OA
HETATM   18  H           1     -34.819  -5.643 -15.952  0.00  0.00     0.209 HD
ENDBRANCH  16  17
ENDBRANCH  15  16
BRANCH  15  19
HETATM   19  C           1     -32.381  -3.418 -17.396  0.00  0.00     0.198 C 
HETATM   20  O           1     -31.254  -2.980 -17.709  0.00  0.00    -0.646 OA
HETATM   21  O           1     -33.395  -2.705 -17.558  0.00  0.00    -0.646 OA
ENDBRANCH  15  19
ENDBRANCH   4  15
TORSDOF 9
ENDMDL
MODEL 3
REMARK VINA RESULT:      -5.8      8.491     11.439
REMARK  9 active torsions:
REMARK  status: ('A' for Active; 'I' for Inactive)
REMARK    1  A    between atoms: C_2  and  O_4 
REMARK    2  A    between atoms: C_2  and  C_3 
REMARK    3  A    between atoms: C_3  and  C_21 
REMARK    4  A    between atoms: C_3  and  N_20 
REMARK    5  A    between atoms: C_5  and  C_6 
REMARK    6  A    between atoms: C_5  and  C_11 
REMARK    7  A    between atoms: C_6  and  C_7 
REMARK    8  A    between atoms: C_6  and  N_15 
REMARK       I    between atoms: C_7  and  N_20 
REMARK    9  A    between atoms: C_11  and  C_18 
ROOT
HETATM    1  C           1     -22.543  -3.790  -9.946  0.00  0.00     0.249 C 
HETATM    2  H           1     -20.809  -4.801  -9.446  0.00  0.00     0.163 HD
HETATM    3  O           1     -23.482  -3.162  -9.517  0.00  0.00    -0.271 OA
HETATM    4  N           1     -21.595  -4.276  -9.086  0.00  0.00    -0.343 N 
ENDROOT
BRANCH   1   5
HETATM    5  C           1     -22.416  -4.038 -11.429  0.00  0.00     0.275 C 
BRANCH   5   6
HETATM    6  C           1     -22.602  -2.727 -12.181  0.00  0.00     0.053 C 
BRANCH   6   7
HETATM    7  C           1     -23.814  -2.833 -13.095  0.00  0.00     0.115 C 
BRANCH   7   8
HETATM    8  C           1     -23.468  -2.280 -14.457  0.00  0.00     0.172 C 
HETATM    9  O           1     -24.033  -1.246 -14.874  0.00  0.00    -0.648 OA
HETATM   10  O           1     -22.616  -2.857 -15.167  0.00  0.00    -0.648 OA
ENDBRANCH   7   8
ENDBRANCH   6   7
ENDBRANCH   5   6
BRANCH   5  11
HETATM   11  N           1     -23.467  -5.016 -11.863  0.00  0.00    -0.066 N 
HETATM   12  H           1     -23.958  -5.396 -11.023  0.00  0.00     0.275 HD
HETATM   13  H           1     -23.016  -5.799 -12.388  0.00  0.00     0.275 HD
HETATM   14  H           1     -24.157  -4.535 -12.483  0.00  0.00     0.275 HD
ENDBRANCH   5  11
ENDBRANCH   1   5
BRANCH   4  15
HETATM   15  C           1     -21.718  -4.038  -7.661  0.00  0.00     0.209 C 
BRANCH  15  16
HETATM   16  C           1     -22.727  -5.014  -7.070  0.00  0.00     0.200 C 
BRANCH  16  17
HETATM   17  O           1     -23.929  -4.341  -6.809  0.00  0.00    -0.398 OA
HETATM   18  H           1     -23.702  -3.468  -6.540  0.00  0.00     0.209 HD
ENDBRANCH  16  17
ENDBRANCH  15  16
BRANCH  15  19
HETATM   19  C           1     -20.376  -4.240  -7.001  0.00  0.00     0.198 C 
HETATM   20  O           1     -20.309  -4.433  -5.768  0.00  0.00    -0.646 OA
HETATM   21  O           1     -19.331  -4.213  -7.687  0.00  0.00    -0.646 OA
ENDBRANCH  15  19
ENDBRANCH   4  15
TORSDOF 9
ENDMDL
MODEL 4
REMARK VINA RESULT:      -5.7      9.469     11.675
REMARK  9 active torsions:
REMARK  status: ('A' for Active; 'I' for Inactive)
REMARK    1  A    between atoms: C_2  and  O_4 
REMARK    2  A    between atoms: C_2  and  C_3 
REMARK    3  A    between atoms: C_3  and  C_21 
REMARK    4  A    between atoms: C_3  and  N_20 
REMARK    5  A    between atoms: C_5  and  C_6 
REMARK    6  A    between atoms: C_5  and  C_11 
REMARK    7  A    between atoms: C_6  and  C_7 
REMARK    8  A    between atoms: C_6  and  N_15 
REMARK       I    between atoms: C_7  and  N_20 
REMARK    9  A    between atoms: C_11  and  C_18 
ROOT
HETATM    1  C           1     -21.936  -3.886  -8.620  0.00  0.00     0.249 C 
HETATM    2  H           1     -23.955  -4.074  -9.036  0.00  0.00     0.163 HD
HETATM    3  O           1     -20.856  -3.587  -9.071  0.00  0.00    -0.271 OA
HETATM    4  N           1     -23.051  -3.824  -9.414  0.00  0.00    -0.343 N 
ENDROOT
BRANCH   1   5
HETATM    5  C           1     -22.057  -4.328  -7.183  0.00  0.00     0.275 C 
BRANCH   5   6
HETATM    6  C           1     -21.276  -5.620  -6.981  0.00  0.00     0.053 C 
BRANCH   6   7
HETATM    7  C           1     -20.540  -5.566  -5.649  0.00  0.00     0.115 C 
BRANCH   7   8
HETATM    8  C           1     -21.263  -6.424  -4.639  0.00  0.00     0.172 C 
HETATM    9  O           1     -20.693  -7.421  -4.145  0.00  0.00    -0.648 OA
HETATM   10  O           1     -22.431  -6.138  -4.297  0.00  0.00    -0.648 OA
ENDBRANCH   7   8
ENDBRANCH   6   7
ENDBRANCH   5   6
BRANCH   5  11
HETATM   11  N           1     -23.501  -4.561  -6.852  0.00  0.00    -0.066 N 
HETATM   12  H           1     -24.016  -4.842  -7.717  0.00  0.00     0.275 HD
HETATM   13  H           1     -23.916  -3.682  -6.468  0.00  0.00     0.275 HD
HETATM   14  H           1     -23.577  -5.320  -6.138  0.00  0.00     0.275 HD
ENDBRANCH   5  11
ENDBRANCH   1   5
BRANCH   4  15
HETATM   15  C           1     -22.934  -3.400 -10.795  0.00  0.00     0.209 C 
BRANCH  15  16
HETATM   16  C           1     -22.214  -4.477 -11.597  0.00  0.00     0.200 C 
BRANCH  16  17
HETATM   17  O           1     -21.605  -3.897 -12.719  0.00  0.00    -0.398 OA
HETATM   18  H           1     -20.719  -4.214 -12.744  0.00  0.00     0.209 HD
ENDBRANCH  16  17
ENDBRANCH  15  16
BRANCH  15  19
HETATM   19  C           1     -24.311  -3.179 -11.371  0.00  0.00     0.198 C 
HETATM   20  O           1     -25.312  -3.201 -10.624  0.00  0.00    -0.646 OA
HETATM   21  O           1     -24.451  -2.975 -12.597  0.00  0.00    -0.646 OA
ENDBRANCH  15  19
ENDBRANCH   4  15
TORSDOF 9
ENDMDL
MODEL 5
REMARK VINA RESULT:      -5.7      8.598     11.536
REMARK  9 active torsions:
REMARK  status: ('A' for Active; 'I' for Inactive)
REMARK    1  A    between atoms: C_2  and  O_4 
REMARK    2  A    between atoms: C_2  and  C_3 
REMARK    3  A    between atoms: C_3  and  C_21 
REMARK    4  A    between atoms: C_3  and  N_20 
REMARK    5  A    between atoms: C_5  and  C_6 
REMARK    6  A    between atoms: C_5  and  C_11 
REMARK    7  A    between atoms: C_6  and  C_7 
REMARK    8  A    between atoms: C_6  and  N_15 
REMARK       I    between atoms: C_7  and  N_20 
REMARK    9  A    between atoms: C_11  and  C_18 
ROOT
HETATM    1  C           1     -22.100  -4.001 -10.223  0.00  0.00     0.249 C 
HETATM    2  H           1     -20.236  -3.719  -9.369  0.00  0.00     0.163 HD
HETATM    3  O           1     -23.155  -4.582 -10.128  0.00  0.00    -0.271 OA
HETATM    4  N           1     -21.119  -4.206  -9.290  0.00  0.00    -0.343 N 
ENDROOT
BRANCH   1   5
HETATM    5  C           1     -21.864  -3.048 -11.369  0.00  0.00     0.275 C 
BRANCH   5   6
HETATM    6  C           1     -22.529  -3.592 -12.626  0.00  0.00     0.053 C 
BRANCH   6   7
HETATM    7  C           1     -23.662  -2.666 -13.044  0.00  0.00     0.115 C 
BRANCH   7   8
HETATM    8  C           1     -23.441  -2.207 -14.464  0.00  0.00     0.172 C 
HETATM    9  O           1     -22.593  -2.780 -15.182  0.00  0.00    -0.648 OA
HETATM   10  O           1     -24.107  -1.253 -14.924  0.00  0.00    -0.648 OA
ENDBRANCH   7   8
ENDBRANCH   6   7
ENDBRANCH   5   6
BRANCH   5  11
HETATM   11  N           1     -20.390  -2.907 -11.604  0.00  0.00    -0.066 N 
HETATM   12  H           1     -19.870  -3.198 -10.746  0.00  0.00     0.275 HD
HETATM   13  H           1     -20.168  -1.910 -11.826  0.00  0.00     0.275 HD
HETATM   14  H           1     -20.105  -3.513 -12.407  0.00  0.00     0.275 HD
ENDBRANCH   5  11
ENDBRANCH   1   5
BRANCH   4  15
HETATM   15  C           1     -21.346  -5.122  -8.189  0.00  0.00     0.209 C 
BRANCH  15  16
HETATM   16  C           1     -20.018  -5.723  -7.748  0.00  0.00     0.200 C 
BRANCH  16  17
HETATM   17  O           1     -19.875  -5.575  -6.361  0.00  0.00    -0.398 OA
HETATM   18  H           1     -19.882  -6.441  -5.991  0.00  0.00     0.209 HD
ENDBRANCH  16  17
ENDBRANCH  15  16
BRANCH  15  19
HETATM   19  C           1     -21.969  -4.375  -7.035  0.00  0.00     0.198 C 
HETATM   20  O           1     -22.944  -4.866  -6.426  0.00  0.00    -0.646 OA
HETATM   21  O           1     -21.510  -3.265  -6.687  0.00  0.00    -0.646 OA
ENDBRANCH  15  19
ENDBRANCH   4  15
TORSDOF 9
ENDMDL
MODEL 6
REMARK VINA RESULT:      -5.6      9.250     12.153
REMARK  9 active torsions:
REMARK  status: ('A' for Active; 'I' for Inactive)
REMARK    1  A    between atoms: C_2  and  O_4 
REMARK    2  A    between atoms: C_2  and  C_3 
REMARK    3  A    between atoms: C_3  and  C_21 
REMARK    4  A    between atoms: C_3  and  N_20 
REMARK    5  A    between atoms: C_5  and  C_6 
REMARK    6  A    between atoms: C_5  and  C_11 
REMARK    7  A    between atoms: C_6  and  C_7 
REMARK    8  A    between atoms: C_6  and  N_15 
REMARK       I    between atoms: C_7  and  N_20 
REMARK    9  A    between atoms: C_11  and  C_18 
ROOT
HETATM    1  C           1     -20.754  -4.479  -9.766  0.00  0.00     0.249 C 
HETATM    2  H           1     -21.955  -4.154  -8.113  0.00  0.00     0.163 HD
HETATM    3  O           1     -19.769  -5.044 -10.178  0.00  0.00    -0.271 OA
HETATM    4  N           1     -21.130  -4.626  -8.457  0.00  0.00    -0.343 N 
ENDROOT
BRANCH   1   5
HETATM    5  C           1     -21.570  -3.612 -10.693  0.00  0.00     0.275 C 
BRANCH   5   6
HETATM    6  C           1     -22.564  -4.478 -11.455  0.00  0.00     0.053 C 
BRANCH   6   7
HETATM    7  C           1     -23.805  -4.700 -10.601  0.00  0.00     0.115 C 
BRANCH   7   8
HETATM    8  C           1     -24.684  -3.475 -10.660  0.00  0.00     0.172 C 
HETATM    9  O           1     -25.067  -2.929  -9.603  0.00  0.00    -0.648 OA
HETATM   10  O           1     -25.027  -3.004 -11.767  0.00  0.00    -0.648 OA
ENDBRANCH   7   8
ENDBRANCH   6   7
ENDBRANCH   5   6
BRANCH   5  11
HETATM   11  N           1     -20.658  -2.926 -11.666  0.00  0.00    -0.066 N 
HETATM   12  H           1     -20.052  -2.245 -11.154  0.00  0.00     0.275 HD
HETATM   13  H           1     -21.229  -2.418 -12.379  0.00  0.00     0.275 HD
HETATM   14  H           1     -20.058  -3.636 -12.142  0.00  0.00     0.275 HD
ENDBRANCH   5  11
ENDBRANCH   1   5
BRANCH   4  15
HETATM   15  C           1     -20.346  -5.459  -7.567  0.00  0.00     0.209 C 
BRANCH  15  16
HETATM   16  C           1     -19.387  -4.585  -6.769  0.00  0.00     0.200 C 
BRANCH  16  17
HETATM   17  O           1     -19.753  -4.603  -5.416  0.00  0.00    -0.398 OA
HETATM   18  H           1     -20.402  -3.930  -5.299  0.00  0.00     0.209 HD
ENDBRANCH  16  17
ENDBRANCH  15  16
BRANCH  15  19
HETATM   19  C           1     -21.267  -6.190  -6.621  0.00  0.00     0.198 C 
HETATM   20  O           1     -22.252  -5.600  -6.128  0.00  0.00    -0.646 OA
HETATM   21  O           1     -21.044  -7.386  -6.330  0.00  0.00    -0.646 OA
ENDBRANCH  15  19
ENDBRANCH   4  15
TORSDOF 9
ENDMDL
MODEL 7
REMARK VINA RESULT:      -5.6     10.254     12.509
REMARK  9 active torsions:
REMARK  status: ('A' for Active; 'I' for Inactive)
REMARK    1  A    between atoms: C_2  and  O_4 
REMARK    2  A    between atoms: C_2  and  C_3 
REMARK    3  A    between atoms: C_3  and  C_21 
REMARK    4  A    between atoms: C_3  and  N_20 
REMARK    5  A    between atoms: C_5  and  C_6 
REMARK    6  A    between atoms: C_5  and  C_11 
REMARK    7  A    between atoms: C_6  and  C_7 
REMARK    8  A    between atoms: C_6  and  N_15 
REMARK       I    between atoms: C_7  and  N_20 
REMARK    9  A    between atoms: C_11  and  C_18 
ROOT
HETATM    1  C           1     -21.577  -4.673  -7.835  0.00  0.00     0.249 C 
HETATM    2  H           1     -22.486  -5.775  -9.332  0.00  0.00     0.163 HD
HETATM    3  O           1     -21.278  -3.562  -7.466  0.00  0.00    -0.271 OA
HETATM    4  N           1     -22.235  -4.845  -9.024  0.00  0.00    -0.343 N 
ENDROOT
BRANCH   1   5
HETATM    5  C           1     -21.227  -5.870  -6.986  0.00  0.00     0.275 C 
BRANCH   5   6
HETATM    6  C           1     -21.377  -5.510  -5.514  0.00  0.00     0.053 C 
BRANCH   6   7
HETATM    7  C           1     -22.161  -6.602  -4.801  0.00  0.00     0.115 C 
BRANCH   7   8
HETATM    8  C           1     -21.792  -6.614  -3.337  0.00  0.00     0.172 C 
HETATM    9  O           1     -20.853  -7.334  -2.935  0.00  0.00    -0.648 OA
HETATM   10  O           1     -22.425  -5.902  -2.527  0.00  0.00    -0.648 OA
ENDBRANCH   7   8
ENDBRANCH   6   7
ENDBRANCH   5   6
BRANCH   5  11
HETATM   11  N           1     -19.809  -6.276  -7.258  0.00  0.00    -0.066 N 
HETATM   12  H           1     -19.178  -5.455  -7.120  0.00  0.00     0.275 HD
HETATM   13  H           1     -19.728  -6.618  -8.242  0.00  0.00     0.275 HD
HETATM   14  H           1     -19.534  -7.041  -6.602  0.00  0.00     0.275 HD
ENDBRANCH   5  11
ENDBRANCH   1   5
BRANCH   4  15
HETATM   15  C           1     -22.571  -3.694  -9.839  0.00  0.00     0.209 C 
BRANCH  15  16
HETATM   16  C           1     -21.668  -3.661 -11.065  0.00  0.00     0.200 C 
BRANCH  16  17
HETATM   17  O           1     -22.189  -4.508 -12.054  0.00  0.00    -0.398 OA
HETATM   18  H           1     -23.085  -4.682 -11.821  0.00  0.00     0.209 HD
ENDBRANCH  16  17
ENDBRANCH  15  16
BRANCH  15  19
HETATM   19  C           1     -24.012  -3.793 -10.278  0.00  0.00     0.198 C 
HETATM   20  O           1     -24.516  -2.888 -10.977  0.00  0.00    -0.646 OA
HETATM   21  O           1     -24.702  -4.780  -9.942  0.00  0.00    -0.646 OA
ENDBRANCH  15  19
ENDBRANCH   4  15
TORSDOF 9
ENDMDL
MODEL 8
REMARK VINA RESULT:      -5.2      8.926     11.890
REMARK  9 active torsions:
REMARK  status: ('A' for Active; 'I' for Inactive)
REMARK    1  A    between atoms: C_2  and  O_4 
REMARK    2  A    between atoms: C_2  and  C_3 
REMARK    3  A    between atoms: C_3  and  C_21 
REMARK    4  A    between atoms: C_3  and  N_20 
REMARK    5  A    between atoms: C_5  and  C_6 
REMARK    6  A    between atoms: C_5  and  C_11 
REMARK    7  A    between atoms: C_6  and  C_7 
REMARK    8  A    between atoms: C_6  and  N_15 
REMARK       I    between atoms: C_7  and  N_20 
REMARK    9  A    between atoms: C_11  and  C_18 
ROOT
HETATM    1  C           1     -21.790  -4.507  -9.489  0.00  0.00     0.249 C 
HETATM    2  H           1     -23.071  -5.091  -7.973  0.00  0.00     0.163 HD
HETATM    3  O           1     -20.633  -4.383  -9.815  0.00  0.00    -0.271 OA
HETATM    4  N           1     -22.103  -4.986  -8.245  0.00  0.00    -0.343 N 
ENDROOT
BRANCH   1   5
HETATM    5  C           1     -22.889  -4.136 -10.454  0.00  0.00     0.275 C 
BRANCH   5   6
HETATM    6  C           1     -22.427  -2.980 -11.330  0.00  0.00     0.053 C 
BRANCH   6   7
HETATM    7  C           1     -22.422  -3.416 -12.788  0.00  0.00     0.115 C 
BRANCH   7   8
HETATM    8  C           1     -23.670  -2.911 -13.469  0.00  0.00     0.172 C 
HETATM    9  O           1     -23.690  -2.767 -14.711  0.00  0.00    -0.648 OA
HETATM   10  O           1     -24.685  -2.637 -12.792  0.00  0.00    -0.648 OA
ENDBRANCH   7   8
ENDBRANCH   6   7
ENDBRANCH   5   6
BRANCH   5  11
HETATM   11  N           1     -24.109  -3.724  -9.685  0.00  0.00    -0.066 N 
HETATM   12  H           1     -23.843  -3.509  -8.698  0.00  0.00     0.275 HD
HETATM   13  H           1     -24.807  -4.502  -9.697  0.00  0.00     0.275 HD
HETATM   14  H           1     -24.529  -2.875 -10.126  0.00  0.00     0.275 HD
ENDBRANCH   5  11
ENDBRANCH   1   5
BRANCH   4  15
HETATM   15  C           1     -21.046  -5.342  -7.318  0.00  0.00     0.209 C 
BRANCH  15  16
HETATM   16  C           1     -20.564  -4.092  -6.595  0.00  0.00     0.200 C 
BRANCH  16  17
HETATM   17  O           1     -19.962  -4.456  -5.382  0.00  0.00    -0.398 OA
HETATM   18  H           1     -20.557  -5.040  -4.945  0.00  0.00     0.209 HD
ENDBRANCH  16  17
ENDBRANCH  15  16
BRANCH  15  19
HETATM   19  C           1     -21.574  -6.335  -6.312  0.00  0.00     0.198 C 
HETATM   20  O           1     -22.399  -5.970  -5.447  0.00  0.00    -0.646 OA
HETATM   21  O           1     -21.186  -7.523  -6.342  0.00  0.00    -0.646 OA
ENDBRANCH  15  19
ENDBRANCH   4  15
TORSDOF 9
ENDMDL
MODEL 9
REMARK VINA RESULT:      -5.2     10.029     12.929
REMARK  9 active torsions:
REMARK  status: ('A' for Active; 'I' for Inactive)
REMARK    1  A    between atoms: C_2  and  O_4 
REMARK    2  A    between atoms: C_2  and  C_3 
REMARK    3  A    between atoms: C_3  and  C_21 
REMARK    4  A    between atoms: C_3  and  N_20 
REMARK    5  A    between atoms: C_5  and  C_6 
REMARK    6  A    between atoms: C_5  and  C_11 
REMARK    7  A    between atoms: C_6  and  C_7 
REMARK    8  A    between atoms: C_6  and  N_15 
REMARK       I    between atoms: C_7  and  N_20 
REMARK    9  A    between atoms: C_11  and  C_18 
ROOT
HETATM    1  C           1     -20.365  -4.492  -8.388  0.00  0.00     0.249 C 
HETATM    2  H           1     -21.737  -5.902  -7.748  0.00  0.00     0.163 HD
HETATM    3  O           1     -19.304  -3.964  -8.152  0.00  0.00    -0.271 OA
HETATM    4  N           1     -20.850  -5.459  -7.549  0.00  0.00    -0.343 N 
ENDROOT
BRANCH   1   5
HETATM    5  C           1     -21.154  -4.086  -9.609  0.00  0.00     0.275 C 
BRANCH   5   6
HETATM    6  C           1     -22.539  -4.716  -9.550  0.00  0.00     0.053 C 
BRANCH   6   7
HETATM    7  C           1     -23.545  -3.688  -9.052  0.00  0.00     0.115 C 
BRANCH   7   8
HETATM    8  C           1     -24.511  -3.348 -10.161  0.00  0.00     0.172 C 
HETATM    9  O           1     -24.094  -3.206 -11.331  0.00  0.00    -0.648 OA
HETATM   10  O           1     -25.728  -3.210  -9.909  0.00  0.00    -0.648 OA
ENDBRANCH   7   8
ENDBRANCH   6   7
ENDBRANCH   5   6
BRANCH   5  11
HETATM   11  N           1     -20.442  -4.557 -10.842  0.00  0.00    -0.066 N 
HETATM   12  H           1     -19.593  -5.101 -10.568  0.00  0.00     0.275 HD
HETATM   13  H           1     -20.158  -3.732 -11.416  0.00  0.00     0.275 HD
HETATM   14  H           1     -21.081  -5.166 -11.402  0.00  0.00     0.275 HD
ENDBRANCH   5  11
ENDBRANCH   1   5
BRANCH   4  15
HETATM   15  C           1     -20.091  -5.848  -6.376  0.00  0.00     0.209 C 
BRANCH  15  16
HETATM   16  C           1     -20.504  -4.981  -5.195  0.00  0.00     0.200 C 
BRANCH  16  17
HETATM   17  O           1     -21.062  -5.789  -4.194  0.00  0.00    -0.398 OA
HETATM   18  H           1     -21.377  -6.570  -4.616  0.00  0.00     0.209 HD
ENDBRANCH  16  17
ENDBRANCH  15  16
BRANCH  15  19
HETATM   19  C           1     -20.366  -7.298  -6.058  0.00  0.00     0.198 C 
HETATM   20  O           1     -21.509  -7.770  -6.234  0.00  0.00    -0.646 OA
HETATM   21  O           1     -19.450  -8.027  -5.619  0.00  0.00    -0.646 OA
ENDBRANCH  15  19
ENDBRANCH   4  15
TORSDOF 9
ENDMDL
