MODEL 1
REMARK VINA RESULT:      -7.6      0.000      0.000
REMARK  11 active torsions:
REMARK  status: ('A' for Active; 'I' for Inactive)
REMARK       I    between atoms: C_1  and  N_2 
REMARK    1  A    between atoms: C_1  and  C_26 
REMARK    2  A    between atoms: N_2  and  C_10 
REMARK    3  A    between atoms: O_5  and  C_8 
REMARK    4  A    between atoms: C_6  and  O_13 
REMARK    5  A    between atoms: C_8  and  C_26 
REMARK    6  A    between atoms: C_10  and  C_17 
REMARK    7  A    between atoms: C_10  and  C_18 
REMARK    8  A    between atoms: O_13  and  P_27 
REMARK    9  A    between atoms: C_18  and  C_19 
REMARK   10  A    between atoms: O_21  and  P_27 
REMARK   11  A    between atoms: N_24  and  C_26 
ROOT
HETATM    1  C           1     -21.771  -6.502  -5.596  0.00  0.00     0.189 C 
ENDROOT
BRANCH   1   2
HETATM    2  N           1     -22.340  -6.362  -4.269  0.00  0.00    -0.344 N 
HETATM    3  C           1     -21.551  -6.542  -3.164  0.00  0.00     0.251 C 
HETATM    4  O           1     -20.965  -5.602  -2.682  0.00  0.00    -0.271 OA
HETATM    5  H           1     -23.319  -6.134  -4.160  0.00  0.00     0.163 HD
BRANCH   3   6
HETATM    6  C           1     -21.414  -7.913  -2.550  0.00  0.00     0.302 C 
BRANCH   6   7
HETATM    7  C           1     -22.163  -7.953  -1.224  0.00  0.00     0.153 C 
HETATM    8  C           1     -21.188  -8.289  -0.102  0.00  0.00     0.042 C 
BRANCH   7   9
HETATM    9  O           1     -22.743  -6.701  -0.976  0.00  0.00    -0.393 OA
HETATM   10  H           1     -22.789  -6.252  -1.803  0.00  0.00     0.210 HD
ENDBRANCH   7   9
ENDBRANCH   6   7
BRANCH   6  11
HETATM   11  N           1     -19.964  -8.212  -2.313  0.00  0.00    -0.064 N 
HETATM   12  H           1     -19.409  -7.941  -3.157  0.00  0.00     0.275 HD
HETATM   13  H           1     -19.627  -7.667  -1.487  0.00  0.00     0.275 HD
HETATM   14  H           1     -19.842  -9.234  -2.131  0.00  0.00     0.275 HD
ENDBRANCH   6  11
ENDBRANCH   3   6
ENDBRANCH   1   2
BRANCH   1  15
HETATM   15  C           1     -20.939  -7.759  -5.656  0.00  0.00     0.197 C 
HETATM   16  O           1     -21.494  -8.870  -5.791  0.00  0.00    -0.646 OA
HETATM   17  O           1     -19.694  -7.688  -5.570  0.00  0.00    -0.646 OA
ENDBRANCH   1  15
BRANCH   1  18
HETATM   18  C           1     -20.894  -5.295  -5.901  0.00  0.00     0.074 C 
BRANCH  18  19
HETATM   19  C           1     -21.218  -4.775  -7.267  0.00  0.00    -0.056 A 
HETATM   20  C           1     -22.454  -4.174  -7.508  0.00  0.00     0.010 A 
HETATM   21  C           1     -22.757  -3.689  -8.781  0.00  0.00     0.038 A 
HETATM   22  C           1     -21.825  -3.806  -9.811  0.00  0.00     0.081 A 
HETATM   23  C           1     -20.590  -4.407  -9.571  0.00  0.00     0.038 A 
HETATM   24  C           1     -20.286  -4.892  -8.297  0.00  0.00     0.010 A 
BRANCH  22  25
HETATM   25  O           1     -22.119  -3.335 -11.048  0.00  0.00    -0.247 OA
BRANCH  25  26
HETATM   26  P           1     -23.469  -3.864 -11.758  0.00  0.00     0.411 P 
HETATM   27  O           1     -24.611  -3.023 -11.337  0.00  0.00    -0.624 OA
HETATM   28  O           1     -23.718  -5.268 -11.361  0.00  0.00    -0.624 OA
BRANCH  26  29
HETATM   29  O           1     -23.302  -3.779 -13.363  0.00  0.00    -0.300 OA
HETATM   30  H           1     -22.483  -4.206 -13.546  0.00  0.00     0.223 HD
ENDBRANCH  26  29
ENDBRANCH  25  26
ENDBRANCH  22  25
ENDBRANCH  18  19
ENDBRANCH   1  18
TORSDOF 11
ENDMDL
MODEL 2
REMARK VINA RESULT:      -6.9      3.448      8.316
REMARK  11 active torsions:
REMARK  status: ('A' for Active; 'I' for Inactive)
REMARK       I    between atoms: C_1  and  N_2 
REMARK    1  A    between atoms: C_1  and  C_26 
REMARK    2  A    between atoms: N_2  and  C_10 
REMARK    3  A    between atoms: O_5  and  C_8 
REMARK    4  A    between atoms: C_6  and  O_13 
REMARK    5  A    between atoms: C_8  and  C_26 
REMARK    6  A    between atoms: C_10  and  C_17 
REMARK    7  A    between atoms: C_10  and  C_18 
REMARK    8  A    between atoms: O_13  and  P_27 
REMARK    9  A    between atoms: C_18  and  C_19 
REMARK   10  A    between atoms: O_21  and  P_27 
REMARK   11  A    between atoms: N_24  and  C_26 
ROOT
HETATM    1  C           1     -20.919  -4.946  -6.396  0.00  0.00     0.189 C 
ENDROOT
BRANCH   1   2
HETATM    2  N           1     -21.602  -3.948  -7.196  0.00  0.00    -0.344 N 
HETATM    3  C           1     -22.653  -4.313  -7.994  0.00  0.00     0.251 C 
HETATM    4  O           1     -23.779  -4.291  -7.555  0.00  0.00    -0.271 OA
HETATM    5  H           1     -21.300  -2.983  -7.166  0.00  0.00     0.163 HD
BRANCH   3   6
HETATM    6  C           1     -22.406  -4.741  -9.419  0.00  0.00     0.302 C 
BRANCH   6   7
HETATM    7  C           1     -21.462  -3.750 -10.090  0.00  0.00     0.153 C 
HETATM    8  C           1     -20.305  -4.507 -10.729  0.00  0.00     0.042 C 
BRANCH   7   9
HETATM    9  O           1     -22.155  -3.038 -11.078  0.00  0.00    -0.393 OA
HETATM   10  H           1     -22.291  -2.168 -10.744  0.00  0.00     0.210 HD
ENDBRANCH   7   9
ENDBRANCH   6   7
BRANCH   6  11
HETATM   11  N           1     -23.707  -4.772 -10.164  0.00  0.00    -0.064 N 
HETATM   12  H           1     -24.024  -3.795 -10.353  0.00  0.00     0.275 HD
HETATM   13  H           1     -23.577  -5.277 -11.071  0.00  0.00     0.275 HD
HETATM   14  H           1     -24.426  -5.266  -9.589  0.00  0.00     0.275 HD
ENDBRANCH   6  11
ENDBRANCH   3   6
ENDBRANCH   1   2
BRANCH   1  15
HETATM   15  C           1     -19.653  -5.372  -7.096  0.00  0.00     0.197 C 
HETATM   16  O           1     -18.826  -4.512  -7.469  0.00  0.00    -0.646 OA
HETATM   17  O           1     -19.430  -6.584  -7.302  0.00  0.00    -0.646 OA
ENDBRANCH   1  15
BRANCH   1  18
HETATM   18  C           1     -21.828  -6.154  -6.208  0.00  0.00     0.074 C 
BRANCH  18  19
HETATM   19  C           1     -21.585  -6.757  -4.860  0.00  0.00    -0.056 A 
HETATM   20  C           1     -21.655  -8.140  -4.692  0.00  0.00     0.010 A 
HETATM   21  C           1     -21.429  -8.703  -3.435  0.00  0.00     0.038 A 
HETATM   22  C           1     -21.134  -7.882  -2.347  0.00  0.00     0.081 A 
HETATM   23  C           1     -21.065  -6.499  -2.514  0.00  0.00     0.038 A 
HETATM   24  C           1     -21.291  -5.936  -3.771  0.00  0.00     0.010 A 
BRANCH  22  25
HETATM   25  O           1     -20.915  -8.428  -1.126  0.00  0.00    -0.247 OA
BRANCH  25  26
HETATM   26  P           1     -22.151  -8.482  -0.087  0.00  0.00     0.411 P 
HETATM   27  O           1     -21.631  -8.491   1.298  0.00  0.00    -0.624 OA
HETATM   28  O           1     -22.942  -9.710  -0.325  0.00  0.00    -0.624 OA
BRANCH  26  29
HETATM   29  O           1     -23.089  -7.184  -0.300  0.00  0.00    -0.300 OA
HETATM   30  H           1     -22.721  -6.522   0.259  0.00  0.00     0.223 HD
ENDBRANCH  26  29
ENDBRANCH  25  26
ENDBRANCH  22  25
ENDBRANCH  18  19
ENDBRANCH   1  18
TORSDOF 11
ENDMDL
MODEL 3
REMARK VINA RESULT:      -6.6      1.522      2.165
REMARK  11 active torsions:
REMARK  status: ('A' for Active; 'I' for Inactive)
REMARK       I    between atoms: C_1  and  N_2 
REMARK    1  A    between atoms: C_1  and  C_26 
REMARK    2  A    between atoms: N_2  and  C_10 
REMARK    3  A    between atoms: O_5  and  C_8 
REMARK    4  A    between atoms: C_6  and  O_13 
REMARK    5  A    between atoms: C_8  and  C_26 
REMARK    6  A    between atoms: C_10  and  C_17 
REMARK    7  A    between atoms: C_10  and  C_18 
REMARK    8  A    between atoms: O_13  and  P_27 
REMARK    9  A    between atoms: C_18  and  C_19 
REMARK   10  A    between atoms: O_21  and  P_27 
REMARK   11  A    between atoms: N_24  and  C_26 
ROOT
HETATM    1  C           1     -21.248  -7.924  -5.583  0.00  0.00     0.189 C 
ENDROOT
BRANCH   1   2
HETATM    2  N           1     -21.981  -7.998  -4.334  0.00  0.00    -0.344 N 
HETATM    3  C           1     -21.430  -7.494  -3.187  0.00  0.00     0.251 C 
HETATM    4  O           1     -21.623  -6.341  -2.881  0.00  0.00    -0.271 OA
HETATM    5  H           1     -22.898  -8.423  -4.311  0.00  0.00     0.163 HD
BRANCH   3   6
HETATM    6  C           1     -20.582  -8.378  -2.305  0.00  0.00     0.302 C 
BRANCH   6   7
HETATM    7  C           1     -21.095  -9.810  -2.381  0.00  0.00     0.153 C 
HETATM    8  C           1     -20.137 -10.730  -1.634  0.00  0.00     0.042 C 
BRANCH   7   9
HETATM    9  O           1     -22.365  -9.885  -1.794  0.00  0.00    -0.393 OA
HETATM   10  H           1     -22.810 -10.612  -2.194  0.00  0.00     0.210 HD
ENDBRANCH   7   9
ENDBRANCH   6   7
BRANCH   6  11
HETATM   11  N           1     -20.662  -7.893  -0.889  0.00  0.00    -0.064 N 
HETATM   12  H           1     -21.280  -8.530  -0.336  0.00  0.00     0.275 HD
HETATM   13  H           1     -19.705  -7.887  -0.468  0.00  0.00     0.275 HD
HETATM   14  H           1     -21.056  -6.925  -0.872  0.00  0.00     0.275 HD
ENDBRANCH   6  11
ENDBRANCH   3   6
ENDBRANCH   1   2
BRANCH   1  15
HETATM   15  C           1     -20.275  -9.075  -5.664  0.00  0.00     0.197 C 
HETATM   16  O           1     -20.699 -10.241  -5.822  0.00  0.00    -0.646 OA
HETATM   17  O           1     -19.047  -8.863  -5.573  0.00  0.00    -0.646 OA
ENDBRANCH   1  15
BRANCH   1  18
HETATM   18  C           1     -20.485  -6.608  -5.647  0.00  0.00     0.074 C 
BRANCH  18  19
HETATM   19  C           1     -21.108  -5.718  -6.677  0.00  0.00    -0.056 A 
HETATM   20  C           1     -20.420  -5.429  -7.856  0.00  0.00     0.010 A 
HETATM   21  C           1     -21.001  -4.599  -8.816  0.00  0.00     0.038 A 
HETATM   22  C           1     -22.268  -4.060  -8.597  0.00  0.00     0.081 A 
HETATM   23  C           1     -22.955  -4.348  -7.418  0.00  0.00     0.038 A 
HETATM   24  C           1     -22.375  -5.178  -6.457  0.00  0.00     0.010 A 
BRANCH  22  25
HETATM   25  O           1     -22.831  -3.254  -9.529  0.00  0.00    -0.247 OA
BRANCH  25  26
HETATM   26  P           1     -24.087  -3.828 -10.368  0.00  0.00     0.411 P 
HETATM   27  O           1     -23.798  -5.213 -10.802  0.00  0.00    -0.624 OA
HETATM   28  O           1     -24.316  -2.977 -11.557  0.00  0.00    -0.624 OA
BRANCH  26  29
HETATM   29  O           1     -25.405  -3.821  -9.435  0.00  0.00    -0.300 OA
HETATM   30  H           1     -26.105  -3.551 -10.004  0.00  0.00     0.223 HD
ENDBRANCH  26  29
ENDBRANCH  25  26
ENDBRANCH  22  25
ENDBRANCH  18  19
ENDBRANCH   1  18
TORSDOF 11
ENDMDL
MODEL 4
REMARK VINA RESULT:      -6.5      2.428      4.023
REMARK  11 active torsions:
REMARK  status: ('A' for Active; 'I' for Inactive)
REMARK       I    between atoms: C_1  and  N_2 
REMARK    1  A    between atoms: C_1  and  C_26 
REMARK    2  A    between atoms: N_2  and  C_10 
REMARK    3  A    between atoms: O_5  and  C_8 
REMARK    4  A    between atoms: C_6  and  O_13 
REMARK    5  A    between atoms: C_8  and  C_26 
REMARK    6  A    between atoms: C_10  and  C_17 
REMARK    7  A    between atoms: C_10  and  C_18 
REMARK    8  A    between atoms: O_13  and  P_27 
REMARK    9  A    between atoms: C_18  and  C_19 
REMARK   10  A    between atoms: O_21  and  P_27 
REMARK   11  A    between atoms: N_24  and  C_26 
ROOT
HETATM    1  C           1     -20.903  -7.392  -3.765  0.00  0.00     0.189 C 
ENDROOT
BRANCH   1   2
HETATM    2  N           1     -20.476  -8.767  -3.591  0.00  0.00    -0.344 N 
HETATM    3  C           1     -19.190  -9.128  -3.894  0.00  0.00     0.251 C 
HETATM    4  O           1     -18.332  -9.073  -3.045  0.00  0.00    -0.271 OA
HETATM    5  H           1     -21.128  -9.459  -3.248  0.00  0.00     0.163 HD
BRANCH   3   6
HETATM    6  C           1     -18.846  -9.594  -5.288  0.00  0.00     0.302 C 
BRANCH   6   7
HETATM    7  C           1     -19.551 -10.914  -5.570  0.00  0.00     0.153 C 
HETATM    8  C           1     -18.716 -11.736  -6.542  0.00  0.00     0.042 C 
BRANCH   7   9
HETATM    9  O           1     -19.710 -11.626  -4.373  0.00  0.00    -0.393 OA
HETATM   10  H           1     -20.388 -12.262  -4.521  0.00  0.00     0.210 HD
ENDBRANCH   7   9
ENDBRANCH   6   7
BRANCH   6  11
HETATM   11  N           1     -17.363  -9.787  -5.397  0.00  0.00    -0.064 N 
HETATM   12  H           1     -17.128 -10.151  -6.348  0.00  0.00     0.275 HD
HETATM   13  H           1     -16.880  -8.872  -5.246  0.00  0.00     0.275 HD
HETATM   14  H           1     -17.046 -10.473  -4.674  0.00  0.00     0.275 HD
ENDBRANCH   6  11
ENDBRANCH   3   6
ENDBRANCH   1   2
BRANCH   1  15
HETATM   15  C           1     -21.485  -6.880  -2.471  0.00  0.00     0.197 C 
HETATM   16  O           1     -22.262  -5.901  -2.479  0.00  0.00    -0.646 OA
HETATM   17  O           1     -21.190  -7.435  -1.390  0.00  0.00    -0.646 OA
ENDBRANCH   1  15
BRANCH   1  18
HETATM   18  C           1     -21.959  -7.323  -4.860  0.00  0.00     0.074 C 
BRANCH  18  19
HETATM   19  C           1     -21.521  -6.357  -5.916  0.00  0.00    -0.056 A 
HETATM   20  C           1     -20.236  -6.445  -6.451  0.00  0.00     0.010 A 
HETATM   21  C           1     -19.827  -5.544  -7.435  0.00  0.00     0.038 A 
HETATM   22  C           1     -20.703  -4.556  -7.883  0.00  0.00     0.081 A 
HETATM   23  C           1     -21.988  -4.467  -7.347  0.00  0.00     0.038 A 
HETATM   24  C           1     -22.397  -5.368  -6.363  0.00  0.00     0.010 A 
BRANCH  22  25
HETATM   25  O           1     -20.306  -3.680  -8.838  0.00  0.00    -0.247 OA
BRANCH  25  26
HETATM   26  P           1     -20.579  -4.068 -10.382  0.00  0.00     0.411 P 
HETATM   27  O           1     -21.974  -4.539 -10.533  0.00  0.00    -0.624 OA
HETATM   28  O           1     -19.649  -5.144 -10.792  0.00  0.00    -0.624 OA
BRANCH  26  29
HETATM   29  O           1     -20.347  -2.769 -11.313  0.00  0.00    -0.300 OA
HETATM   30  H           1     -20.466  -3.076 -12.195  0.00  0.00     0.223 HD
ENDBRANCH  26  29
ENDBRANCH  25  26
ENDBRANCH  22  25
ENDBRANCH  18  19
ENDBRANCH   1  18
TORSDOF 11
ENDMDL
MODEL 5
REMARK VINA RESULT:      -6.4      2.466      3.546
REMARK  11 active torsions:
REMARK  status: ('A' for Active; 'I' for Inactive)
REMARK       I    between atoms: C_1  and  N_2 
REMARK    1  A    between atoms: C_1  and  C_26 
REMARK    2  A    between atoms: N_2  and  C_10 
REMARK    3  A    between atoms: O_5  and  C_8 
REMARK    4  A    between atoms: C_6  and  O_13 
REMARK    5  A    between atoms: C_8  and  C_26 
REMARK    6  A    between atoms: C_10  and  C_17 
REMARK    7  A    between atoms: C_10  and  C_18 
REMARK    8  A    between atoms: O_13  and  P_27 
REMARK    9  A    between atoms: C_18  and  C_19 
REMARK   10  A    between atoms: O_21  and  P_27 
REMARK   11  A    between atoms: N_24  and  C_26 
ROOT
HETATM    1  C           1     -21.078  -9.438  -4.241  0.00  0.00     0.189 C 
ENDROOT
BRANCH   1   2
HETATM    2  N           1     -20.908  -9.861  -2.864  0.00  0.00    -0.344 N 
HETATM    3  C           1     -21.704  -9.335  -1.884  0.00  0.00     0.251 C 
HETATM    4  O           1     -22.749  -9.871  -1.601  0.00  0.00    -0.271 OA
HETATM    5  H           1     -20.200 -10.545  -2.630  0.00  0.00     0.163 HD
BRANCH   3   6
HETATM    6  C           1     -21.277  -8.084  -1.155  0.00  0.00     0.302 C 
BRANCH   6   7
HETATM    7  C           1     -21.139  -8.385   0.332  0.00  0.00     0.153 C 
HETATM    8  C           1     -22.364  -7.860   1.069  0.00  0.00     0.042 C 
BRANCH   7   9
HETATM    9  O           1     -21.038  -9.769   0.522  0.00  0.00    -0.393 OA
HETATM   10  H           1     -21.155 -10.171  -0.321  0.00  0.00     0.210 HD
ENDBRANCH   7   9
ENDBRANCH   6   7
BRANCH   6  11
HETATM   11  N           1     -22.307  -7.013  -1.355  0.00  0.00    -0.064 N 
HETATM   12  H           1     -23.206  -7.307  -0.909  0.00  0.00     0.275 HD
HETATM   13  H           1     -21.975  -6.125  -0.915  0.00  0.00     0.275 HD
HETATM   14  H           1     -22.460  -6.861  -2.378  0.00  0.00     0.275 HD
ENDBRANCH   6  11
ENDBRANCH   3   6
ENDBRANCH   1   2
BRANCH   1  15
HETATM   15  C           1     -21.173 -10.652  -5.132  0.00  0.00     0.197 C 
HETATM   16  O           1     -21.156 -10.519  -6.375  0.00  0.00    -0.646 OA
HETATM   17  O           1     -21.269 -11.792  -4.627  0.00  0.00    -0.646 OA
ENDBRANCH   1  15
BRANCH   1  18
HETATM   18  C           1     -19.884  -8.591  -4.663  0.00  0.00     0.074 C 
BRANCH  18  19
HETATM   19  C           1     -20.369  -7.361  -5.365  0.00  0.00    -0.056 A 
HETATM   20  C           1     -19.549  -6.720  -6.294  0.00  0.00     0.010 A 
HETATM   21  C           1     -20.000  -5.573  -6.949  0.00  0.00     0.038 A 
HETATM   22  C           1     -21.270  -5.067  -6.673  0.00  0.00     0.081 A 
HETATM   23  C           1     -22.089  -5.707  -5.743  0.00  0.00     0.038 A 
HETATM   24  C           1     -21.638  -6.854  -5.089  0.00  0.00     0.010 A 
BRANCH  22  25
HETATM   25  O           1     -21.708  -3.953  -7.308  0.00  0.00    -0.247 OA
BRANCH  25  26
HETATM   26  P           1     -22.642  -4.143  -8.612  0.00  0.00     0.411 P 
HETATM   27  O           1     -22.451  -5.502  -9.163  0.00  0.00    -0.624 OA
HETATM   28  O           1     -22.271  -3.139  -9.635  0.00  0.00    -0.624 OA
BRANCH  26  29
HETATM   29  O           1     -24.191  -3.944  -8.197  0.00  0.00    -0.300 OA
HETATM   30  H           1     -24.458  -3.150  -8.627  0.00  0.00     0.223 HD
ENDBRANCH  26  29
ENDBRANCH  25  26
ENDBRANCH  22  25
ENDBRANCH  18  19
ENDBRANCH   1  18
TORSDOF 11
ENDMDL
MODEL 6
REMARK VINA RESULT:      -6.3      3.464      4.767
REMARK  11 active torsions:
REMARK  status: ('A' for Active; 'I' for Inactive)
REMARK       I    between atoms: C_1  and  N_2 
REMARK    1  A    between atoms: C_1  and  C_26 
REMARK    2  A    between atoms: N_2  and  C_10 
REMARK    3  A    between atoms: O_5  and  C_8 
REMARK    4  A    between atoms: C_6  and  O_13 
REMARK    5  A    between atoms: C_8  and  C_26 
REMARK    6  A    between atoms: C_10  and  C_17 
REMARK    7  A    between atoms: C_10  and  C_18 
REMARK    8  A    between atoms: O_13  and  P_27 
REMARK    9  A    between atoms: C_18  and  C_19 
REMARK   10  A    between atoms: O_21  and  P_27 
REMARK   11  A    between atoms: N_24  and  C_26 
ROOT
HETATM    1  C           1     -22.075 -10.265  -2.826  0.00  0.00     0.189 C 
ENDROOT
BRANCH   1   2
HETATM    2  N           1     -20.908 -10.305  -1.967  0.00  0.00    -0.344 N 
HETATM    3  C           1     -21.020  -9.963  -0.646  0.00  0.00     0.251 C 
HETATM    4  O           1     -21.279 -10.809   0.177  0.00  0.00    -0.271 OA
HETATM    5  H           1     -20.013 -10.584  -2.344  0.00  0.00     0.163 HD
BRANCH   3   6
HETATM    6  C           1     -20.818  -8.530  -0.218  0.00  0.00     0.302 C 
BRANCH   6   7
HETATM    7  C           1     -22.169  -7.897   0.090  0.00  0.00     0.153 C 
HETATM    8  C           1     -22.461  -6.805  -0.930  0.00  0.00     0.042 C 
BRANCH   7   9
HETATM    9  O           1     -23.170  -8.876   0.025  0.00  0.00    -0.393 OA
HETATM   10  H           1     -23.238  -9.258   0.883  0.00  0.00     0.210 HD
ENDBRANCH   7   9
ENDBRANCH   6   7
BRANCH   6  11
HETATM   11  N           1     -20.151  -7.768  -1.324  0.00  0.00    -0.064 N 
HETATM   12  H           1     -19.189  -7.488  -1.024  0.00  0.00     0.275 HD
HETATM   13  H           1     -20.087  -8.374  -2.174  0.00  0.00     0.275 HD
HETATM   14  H           1     -20.709  -6.913  -1.544  0.00  0.00     0.275 HD
ENDBRANCH   6  11
ENDBRANCH   3   6
ENDBRANCH   1   2
BRANCH   1  15
HETATM   15  C           1     -22.910 -11.501  -2.599  0.00  0.00     0.197 C 
HETATM   16  O           1     -23.855 -11.475  -1.782  0.00  0.00    -0.646 OA
HETATM   17  O           1     -22.655 -12.551  -3.228  0.00  0.00    -0.646 OA
ENDBRANCH   1  15
BRANCH   1  18
HETATM   18  C           1     -21.632 -10.211  -4.283  0.00  0.00     0.074 C 
BRANCH  18  19
HETATM   19  C           1     -21.312  -8.797  -4.656  0.00  0.00    -0.056 A 
HETATM   20  C           1     -22.210  -7.775  -4.346  0.00  0.00     0.010 A 
HETATM   21  C           1     -21.913  -6.456  -4.694  0.00  0.00     0.038 A 
HETATM   22  C           1     -20.719  -6.161  -5.352  0.00  0.00     0.081 A 
HETATM   23  C           1     -19.822  -7.183  -5.663  0.00  0.00     0.038 A 
HETATM   24  C           1     -20.119  -8.502  -5.315  0.00  0.00     0.010 A 
BRANCH  22  25
HETATM   25  O           1     -20.431  -4.881  -5.690  0.00  0.00    -0.247 OA
BRANCH  25  26
HETATM   26  P           1     -20.737  -4.410  -7.204  0.00  0.00     0.411 P 
HETATM   27  O           1     -21.431  -5.498  -7.929  0.00  0.00    -0.624 OA
HETATM   28  O           1     -19.464  -4.096  -7.890  0.00  0.00    -0.624 OA
BRANCH  26  29
HETATM   29  O           1     -21.676  -3.096  -7.180  0.00  0.00    -0.300 OA
HETATM   30  H           1     -21.840  -2.897  -8.085  0.00  0.00     0.223 HD
ENDBRANCH  26  29
ENDBRANCH  25  26
ENDBRANCH  22  25
ENDBRANCH  18  19
ENDBRANCH   1  18
TORSDOF 11
ENDMDL
MODEL 7
REMARK VINA RESULT:      -6.2      4.743      7.192
REMARK  11 active torsions:
REMARK  status: ('A' for Active; 'I' for Inactive)
REMARK       I    between atoms: C_1  and  N_2 
REMARK    1  A    between atoms: C_1  and  C_26 
REMARK    2  A    between atoms: N_2  and  C_10 
REMARK    3  A    between atoms: O_5  and  C_8 
REMARK    4  A    between atoms: C_6  and  O_13 
REMARK    5  A    between atoms: C_8  and  C_26 
REMARK    6  A    between atoms: C_10  and  C_17 
REMARK    7  A    between atoms: C_10  and  C_18 
REMARK    8  A    between atoms: O_13  and  P_27 
REMARK    9  A    between atoms: C_18  and  C_19 
REMARK   10  A    between atoms: O_21  and  P_27 
REMARK   11  A    between atoms: N_24  and  C_26 
ROOT
HETATM    1  C           1     -21.638 -10.602   0.018  0.00  0.00     0.189 C 
ENDROOT
BRANCH   1   2
HETATM    2  N           1     -22.432 -11.754   0.401  0.00  0.00    -0.344 N 
HETATM    3  C           1     -22.396 -12.893  -0.357  0.00  0.00     0.251 C 
HETATM    4  O           1     -21.583 -13.754  -0.115  0.00  0.00    -0.271 OA
HETATM    5  H           1     -23.014 -11.714   1.227  0.00  0.00     0.163 HD
BRANCH   3   6
HETATM    6  C           1     -23.370 -13.073  -1.495  0.00  0.00     0.302 C 
BRANCH   6   7
HETATM    7  C           1     -24.399 -14.132  -1.119  0.00  0.00     0.153 C 
HETATM    8  C           1     -24.297 -15.304  -2.087  0.00  0.00     0.042 C 
BRANCH   7   9
HETATM    9  O           1     -24.153 -14.582   0.185  0.00  0.00    -0.393 OA
HETATM   10  H           1     -23.657 -15.379   0.111  0.00  0.00     0.210 HD
ENDBRANCH   7   9
ENDBRANCH   6   7
BRANCH   6  11
HETATM   11  N           1     -22.629 -13.512  -2.723  0.00  0.00    -0.064 N 
HETATM   12  H           1     -21.623 -13.241  -2.638  0.00  0.00     0.275 HD
HETATM   13  H           1     -22.703 -14.550  -2.821  0.00  0.00     0.275 HD
HETATM   14  H           1     -23.044 -13.050  -3.564  0.00  0.00     0.275 HD
ENDBRANCH   6  11
ENDBRANCH   3   6
ENDBRANCH   1   2
BRANCH   1  15
HETATM   15  C           1     -20.481 -10.449   0.974  0.00  0.00     0.197 C 
HETATM   16  O           1     -20.524  -9.581   1.872  0.00  0.00    -0.646 OA
HETATM   17  O           1     -19.481 -11.192   0.869  0.00  0.00    -0.646 OA
ENDBRANCH   1  15
BRANCH   1  18
HETATM   18  C           1     -22.504  -9.350   0.062  0.00  0.00     0.074 C 
BRANCH  18  19
HETATM   19  C           1     -22.094  -8.420  -1.036  0.00  0.00    -0.056 A 
HETATM   20  C           1     -22.405  -7.063  -0.952  0.00  0.00     0.010 A 
HETATM   21  C           1     -22.023  -6.195  -1.977  0.00  0.00     0.038 A 
HETATM   22  C           1     -21.331  -6.685  -3.083  0.00  0.00     0.081 A 
HETATM   23  C           1     -21.021  -8.042  -3.168  0.00  0.00     0.038 A 
HETATM   24  C           1     -21.403  -8.910  -2.144  0.00  0.00     0.010 A 
BRANCH  22  25
HETATM   25  O           1     -20.961  -5.843  -4.078  0.00  0.00    -0.247 OA
BRANCH  25  26
HETATM   26  P           1     -21.698  -5.988  -5.508  0.00  0.00     0.411 P 
HETATM   27  O           1     -23.153  -6.158  -5.298  0.00  0.00    -0.624 OA
HETATM   28  O           1     -21.161  -7.169  -6.221  0.00  0.00    -0.624 OA
BRANCH  26  29
HETATM   29  O           1     -21.433  -4.659  -6.387  0.00  0.00    -0.300 OA
HETATM   30  H           1     -22.242  -4.503  -6.842  0.00  0.00     0.223 HD
ENDBRANCH  26  29
ENDBRANCH  25  26
ENDBRANCH  22  25
ENDBRANCH  18  19
ENDBRANCH   1  18
TORSDOF 11
ENDMDL
MODEL 8
REMARK VINA RESULT:      -6.2      5.631      7.725
REMARK  11 active torsions:
REMARK  status: ('A' for Active; 'I' for Inactive)
REMARK       I    between atoms: C_1  and  N_2 
REMARK    1  A    between atoms: C_1  and  C_26 
REMARK    2  A    between atoms: N_2  and  C_10 
REMARK    3  A    between atoms: O_5  and  C_8 
REMARK    4  A    between atoms: C_6  and  O_13 
REMARK    5  A    between atoms: C_8  and  C_26 
REMARK    6  A    between atoms: C_10  and  C_17 
REMARK    7  A    between atoms: C_10  and  C_18 
REMARK    8  A    between atoms: O_13  and  P_27 
REMARK    9  A    between atoms: C_18  and  C_19 
REMARK   10  A    between atoms: O_21  and  P_27 
REMARK   11  A    between atoms: N_24  and  C_26 
ROOT
HETATM    1  C           1     -21.032  -7.802  -2.429  0.00  0.00     0.189 C 
ENDROOT
BRANCH   1   2
HETATM    2  N           1     -21.976  -8.362  -1.482  0.00  0.00    -0.344 N 
HETATM    3  C           1     -21.530  -8.879  -0.296  0.00  0.00     0.251 C 
HETATM    4  O           1     -21.440  -8.168   0.677  0.00  0.00    -0.271 OA
HETATM    5  H           1     -22.964  -8.370  -1.699  0.00  0.00     0.163 HD
BRANCH   3   6
HETATM    6  C           1     -21.152 -10.337  -0.204  0.00  0.00     0.302 C 
BRANCH   6   7
HETATM    7  C           1     -22.405 -11.195  -0.329  0.00  0.00     0.153 C 
HETATM    8  C           1     -22.335 -12.342   0.672  0.00  0.00     0.042 C 
BRANCH   7   9
HETATM    9  O           1     -23.537 -10.413  -0.062  0.00  0.00    -0.393 OA
HETATM   10  H           1     -23.850 -10.093  -0.891  0.00  0.00     0.210 HD
ENDBRANCH   7   9
ENDBRANCH   6   7
BRANCH   6  11
HETATM   11  N           1     -20.497 -10.600   1.119  0.00  0.00    -0.064 N 
HETATM   12  H           1     -19.582 -10.097   1.162  0.00  0.00     0.275 HD
HETATM   13  H           1     -21.117 -10.259   1.889  0.00  0.00     0.275 HD
HETATM   14  H           1     -20.335 -11.627   1.231  0.00  0.00     0.275 HD
ENDBRANCH   6  11
ENDBRANCH   3   6
ENDBRANCH   1   2
BRANCH   1  15
HETATM   15  C           1     -21.487  -6.423  -2.838  0.00  0.00     0.197 C 
HETATM   16  O           1     -22.260  -5.776  -2.099  0.00  0.00    -0.646 OA
HETATM   17  O           1     -21.092  -5.928  -3.916  0.00  0.00    -0.646 OA
ENDBRANCH   1  15
BRANCH   1  18
HETATM   18  C           1     -20.955  -8.698  -3.659  0.00  0.00     0.074 C 
BRANCH  18  19
HETATM   19  C           1     -19.531  -9.091  -3.902  0.00  0.00    -0.056 A 
HETATM   20  C           1     -18.663  -9.268  -2.825  0.00  0.00     0.010 A 
HETATM   21  C           1     -17.335  -9.634  -3.051  0.00  0.00     0.038 A 
HETATM   22  C           1     -16.877  -9.821  -4.354  0.00  0.00     0.081 A 
HETATM   23  C           1     -17.744  -9.643  -5.432  0.00  0.00     0.038 A 
HETATM   24  C           1     -19.072  -9.277  -5.206  0.00  0.00     0.010 A 
BRANCH  22  25
HETATM   25  O           1     -15.587 -10.176  -4.574  0.00  0.00    -0.247 OA
BRANCH  25  26
HETATM   26  P           1     -15.294 -11.673  -5.105  0.00  0.00     0.411 P 
HETATM   27  O           1     -15.359 -11.694  -6.583  0.00  0.00    -0.624 OA
HETATM   28  O           1     -16.308 -12.600  -4.553  0.00  0.00    -0.624 OA
BRANCH  26  29
HETATM   29  O           1     -13.822 -12.135  -4.626  0.00  0.00    -0.300 OA
HETATM   30  H           1     -13.901 -13.056  -4.448  0.00  0.00     0.223 HD
ENDBRANCH  26  29
ENDBRANCH  25  26
ENDBRANCH  22  25
ENDBRANCH  18  19
ENDBRANCH   1  18
TORSDOF 11
ENDMDL
MODEL 9
REMARK VINA RESULT:      -6.2      3.910      7.535
REMARK  11 active torsions:
REMARK  status: ('A' for Active; 'I' for Inactive)
REMARK       I    between atoms: C_1  and  N_2 
REMARK    1  A    between atoms: C_1  and  C_26 
REMARK    2  A    between atoms: N_2  and  C_10 
REMARK    3  A    between atoms: O_5  and  C_8 
REMARK    4  A    between atoms: C_6  and  O_13 
REMARK    5  A    between atoms: C_8  and  C_26 
REMARK    6  A    between atoms: C_10  and  C_17 
REMARK    7  A    between atoms: C_10  and  C_18 
REMARK    8  A    between atoms: O_13  and  P_27 
REMARK    9  A    between atoms: C_18  and  C_19 
REMARK   10  A    between atoms: O_21  and  P_27 
REMARK   11  A    between atoms: N_24  and  C_26 
ROOT
HETATM    1  C           1     -21.357  -7.853  -2.235  0.00  0.00     0.189 C 
ENDROOT
BRANCH   1   2
HETATM    2  N           1     -21.220  -6.632  -3.006  0.00  0.00    -0.344 N 
HETATM    3  C           1     -21.618  -6.602  -4.315  0.00  0.00     0.251 C 
HETATM    4  O           1     -22.752  -6.292  -4.594  0.00  0.00    -0.271 OA
HETATM    5  H           1     -20.829  -5.804  -2.576  0.00  0.00     0.163 HD
BRANCH   3   6
HETATM    6  C           1     -20.640  -6.955  -5.409  0.00  0.00     0.302 C 
BRANCH   6   7
HETATM    7  C           1     -20.678  -5.882  -6.490  0.00  0.00     0.153 C 
HETATM    8  C           1     -20.051  -4.602  -5.954  0.00  0.00     0.042 C 
BRANCH   7   9
HETATM    9  O           1     -19.959  -6.320  -7.610  0.00  0.00    -0.393 OA
HETATM   10  H           1     -20.371  -7.112  -7.908  0.00  0.00     0.210 HD
ENDBRANCH   7   9
ENDBRANCH   6   7
BRANCH   6  11
HETATM   11  N           1     -21.016  -8.278  -6.006  0.00  0.00    -0.064 N 
HETATM   12  H           1     -20.695  -9.049  -5.377  0.00  0.00     0.275 HD
HETATM   13  H           1     -22.055  -8.328  -6.115  0.00  0.00     0.275 HD
HETATM   14  H           1     -20.562  -8.381  -6.942  0.00  0.00     0.275 HD
ENDBRANCH   6  11
ENDBRANCH   3   6
ENDBRANCH   1   2
BRANCH   1  15
HETATM   15  C           1     -22.242  -7.596  -1.040  0.00  0.00     0.197 C 
HETATM   16  O           1     -22.625  -6.433  -0.785  0.00  0.00    -0.646 OA
HETATM   17  O           1     -22.593  -8.545  -0.307  0.00  0.00    -0.646 OA
ENDBRANCH   1  15
BRANCH   1  18
HETATM   18  C           1     -19.984  -8.311  -1.761  0.00  0.00     0.074 C 
BRANCH  18  19
HETATM   19  C           1     -19.478  -9.391  -2.666  0.00  0.00    -0.056 A 
HETATM   20  C           1     -18.136  -9.409  -3.047  0.00  0.00     0.010 A 
HETATM   21  C           1     -17.664 -10.415  -3.891  0.00  0.00     0.038 A 
HETATM   22  C           1     -18.534 -11.401  -4.354  0.00  0.00     0.081 A 
HETATM   23  C           1     -19.876 -11.383  -3.974  0.00  0.00     0.038 A 
HETATM   24  C           1     -20.348 -10.376  -3.130  0.00  0.00     0.010 A 
BRANCH  22  25
HETATM   25  O           1     -18.076 -12.378  -5.174  0.00  0.00    -0.247 OA
BRANCH  25  26
HETATM   26  P           1     -18.418 -12.268  -6.749  0.00  0.00     0.411 P 
HETATM   27  O           1     -18.716 -10.859  -7.091  0.00  0.00    -0.624 OA
HETATM   28  O           1     -19.596 -13.110  -7.058  0.00  0.00    -0.624 OA
BRANCH  26  29
HETATM   29  O           1     -17.150 -12.774  -7.612  0.00  0.00    -0.300 OA
HETATM   30  H           1     -17.263 -12.385  -8.462  0.00  0.00     0.223 HD
ENDBRANCH  26  29
ENDBRANCH  25  26
ENDBRANCH  22  25
ENDBRANCH  18  19
ENDBRANCH   1  18
TORSDOF 11
ENDMDL
