MODEL 1
REMARK VINA RESULT:      -8.1      0.000      0.000
REMARK  9 active torsions:
REMARK  status: ('A' for Active; 'I' for Inactive)
REMARK    1  A    between atoms: C_3  and  Se_16 
REMARK    2  A    between atoms: C_3  and  C_10 
REMARK    3  A    between atoms: C_7  and  C_8 
REMARK    4  A    between atoms: C_8  and  C_9 
REMARK    5  A    between atoms: C_9  and  C_11 
REMARK    6  A    between atoms: C_9  and  N_24 
REMARK    7  A    between atoms: C_10  and  C_20 
REMARK       I    between atoms: C_11  and  N_15 
REMARK    8  A    between atoms: N_15  and  C_20 
REMARK    9  A    between atoms: C_20  and  C_26 
ROOT
HETATM    1  C           1     -21.007  -5.342  -6.525  0.00  0.00     0.278 C 
ENDROOT
BRANCH   1   2
HETATM    2  C           1     -22.142  -5.913  -5.686  0.00  0.00     0.083 C 
BRANCH   2   3
HETATM    3  C           1     -21.614  -7.009  -4.812  0.00  0.00    -0.028 A 
HETATM    4  C           1     -20.949  -8.136  -5.237  0.00  0.00     0.096 A 
HETATM    5  N           1     -20.636  -8.880  -4.130  0.00  0.00    -0.365 N 
HETATM    6  H           1     -20.126  -9.797  -4.147  0.00  0.00     0.165 HD
HETATM    7  C           1     -21.089  -8.253  -2.991  0.00  0.00     0.042 A 
HETATM    8  C           1     -20.997  -8.638  -1.648  0.00  0.00     0.030 A 
HETATM    9  C           1     -21.709  -7.069  -3.394  0.00  0.00    -0.002 A 
HETATM   10  C           1     -21.557  -7.786  -0.692  0.00  0.00     0.002 A 
HETATM   11  C           1     -22.183  -6.598  -1.064  0.00  0.00     0.001 A 
HETATM   12  C           1     -22.266  -6.227  -2.412  0.00  0.00     0.014 A 
ENDBRANCH   2   3
ENDBRANCH   1   2
BRANCH   1  13
HETATM   13  C           1     -21.563  -4.341  -7.509  0.00  0.00     0.249 C 
HETATM   14  N           1     -22.144  -4.773  -8.671  0.00  0.00    -0.345 N 
HETATM   15  H           1     -22.202  -5.764  -8.869  0.00  0.00     0.163 HD
HETATM   16  O           1     -21.495  -3.159  -7.271  0.00  0.00    -0.271 OA
BRANCH  14  17
HETATM   17  C           1     -22.678  -3.812  -9.616  0.00  0.00     0.185 C 
BRANCH  17  18
HETATM   18  C           1     -22.165  -4.134 -11.012  0.00  0.00     0.036 C 
BRANCH  18  19
HETATM   19  C           1     -22.283  -2.900 -11.897  0.00  0.00     0.003 C 
BRANCH  19  20
HETATM   20 Se           1     -23.863  -3.058 -13.027  0.00  0.00     0.000 Se
HETATM   21  C           1     -22.964  -2.455 -14.648  0.00  0.00     0.000 C 
ENDBRANCH  19  20
ENDBRANCH  18  19
ENDBRANCH  17  18
BRANCH  17  22
HETATM   22  C           1     -24.185  -3.881  -9.606  0.00  0.00     0.196 C 
HETATM   23  O           1     -24.762  -4.975  -9.794  0.00  0.00    -0.646 OA
HETATM   24  O           1     -24.858  -2.846  -9.411  0.00  0.00    -0.646 OA
ENDBRANCH  17  22
ENDBRANCH  14  17
ENDBRANCH   1  13
BRANCH   1  25
HETATM   25  N           1     -20.017  -4.661  -5.628  0.00  0.00    -0.066 N 
HETATM   26  H           1     -19.127  -5.208  -5.612  0.00  0.00     0.275 HD
HETATM   27  H           1     -20.406  -4.602  -4.660  0.00  0.00     0.275 HD
HETATM   28  H           1     -19.826  -3.698  -5.987  0.00  0.00     0.275 HD
ENDBRANCH   1  25
TORSDOF 9
ENDMDL
MODEL 2
REMARK VINA RESULT:      -7.5      3.883      8.412
REMARK  9 active torsions:
REMARK  status: ('A' for Active; 'I' for Inactive)
REMARK    1  A    between atoms: C_3  and  Se_16 
REMARK    2  A    between atoms: C_3  and  C_10 
REMARK    3  A    between atoms: C_7  and  C_8 
REMARK    4  A    between atoms: C_8  and  C_9 
REMARK    5  A    between atoms: C_9  and  C_11 
REMARK    6  A    between atoms: C_9  and  N_24 
REMARK    7  A    between atoms: C_10  and  C_20 
REMARK       I    between atoms: C_11  and  N_15 
REMARK    8  A    between atoms: N_15  and  C_20 
REMARK    9  A    between atoms: C_20  and  C_26 
ROOT
HETATM    1  C           1     -20.798  -5.492  -6.082  0.00  0.00     0.278 C 
ENDROOT
BRANCH   1   2
HETATM    2  C           1     -20.580  -5.051  -7.524  0.00  0.00     0.083 C 
BRANCH   2   3
HETATM    3  C           1     -21.872  -4.556  -8.095  0.00  0.00    -0.028 A 
HETATM    4  C           1     -23.066  -4.440  -7.420  0.00  0.00     0.096 A 
HETATM    5  N           1     -23.997  -3.951  -8.298  0.00  0.00    -0.365 N 
HETATM    6  H           1     -25.002  -3.759  -8.063  0.00  0.00     0.165 HD
HETATM    7  C           1     -23.426  -3.747  -9.535  0.00  0.00     0.042 A 
HETATM    8  C           1     -23.987  -3.265 -10.723  0.00  0.00     0.030 A 
HETATM    9  C           1     -22.085  -4.122  -9.432  0.00  0.00    -0.002 A 
HETATM   10  C           1     -23.150  -3.164 -11.838  0.00  0.00     0.002 A 
HETATM   11  C           1     -21.808  -3.530 -11.767  0.00  0.00     0.001 A 
HETATM   12  C           1     -21.262  -4.010 -10.570  0.00  0.00     0.014 A 
ENDBRANCH   2   3
ENDBRANCH   1   2
BRANCH   1  13
HETATM   13  C           1     -20.190  -6.858  -5.876  0.00  0.00     0.249 C 
HETATM   14  N           1     -20.597  -7.638  -4.827  0.00  0.00    -0.345 N 
HETATM   15  H           1     -21.308  -7.299  -4.191  0.00  0.00     0.163 HD
HETATM   16  O           1     -19.343  -7.263  -6.636  0.00  0.00    -0.271 OA
BRANCH  14  17
HETATM   17  C           1     -20.013  -8.950  -4.629  0.00  0.00     0.185 C 
BRANCH  17  18
HETATM   18  C           1     -19.735  -9.163  -3.147  0.00  0.00     0.036 C 
BRANCH  18  19
HETATM   19  C           1     -20.402  -8.058  -2.339  0.00  0.00     0.003 C 
BRANCH  19  20
HETATM   20 Se           1     -21.688  -8.842  -1.102  0.00  0.00     0.000 Se
HETATM   21  C           1     -22.478  -7.137  -0.585  0.00  0.00     0.000 C 
ENDBRANCH  19  20
ENDBRANCH  18  19
ENDBRANCH  17  18
BRANCH  17  22
HETATM   22  C           1     -20.972 -10.007  -5.117  0.00  0.00     0.196 C 
HETATM   23  O           1     -20.906 -10.413  -6.298  0.00  0.00    -0.646 OA
HETATM   24  O           1     -21.834 -10.476  -4.343  0.00  0.00    -0.646 OA
ENDBRANCH  17  22
ENDBRANCH  14  17
ENDBRANCH   1  13
BRANCH   1  25
HETATM   25  N           1     -20.146  -4.510  -5.156  0.00  0.00    -0.066 N 
HETATM   26  H           1     -20.750  -4.369  -4.315  0.00  0.00     0.275 HD
HETATM   27  H           1     -20.017  -3.598  -5.648  0.00  0.00     0.275 HD
HETATM   28  H           1     -19.214  -4.879  -4.857  0.00  0.00     0.275 HD
ENDBRANCH   1  25
TORSDOF 9
ENDMDL
MODEL 3
REMARK VINA RESULT:      -7.3      3.762      8.350
REMARK  9 active torsions:
REMARK  status: ('A' for Active; 'I' for Inactive)
REMARK    1  A    between atoms: C_3  and  Se_16 
REMARK    2  A    between atoms: C_3  and  C_10 
REMARK    3  A    between atoms: C_7  and  C_8 
REMARK    4  A    between atoms: C_8  and  C_9 
REMARK    5  A    between atoms: C_9  and  C_11 
REMARK    6  A    between atoms: C_9  and  N_24 
REMARK    7  A    between atoms: C_10  and  C_20 
REMARK       I    between atoms: C_11  and  N_15 
REMARK    8  A    between atoms: N_15  and  C_20 
REMARK    9  A    between atoms: C_20  and  C_26 
ROOT
HETATM    1  C           1     -22.187  -5.253  -6.973  0.00  0.00     0.278 C 
ENDROOT
BRANCH   1   2
HETATM    2  C           1     -21.468  -3.989  -7.425  0.00  0.00     0.083 C 
BRANCH   2   3
HETATM    3  C           1     -21.295  -4.018  -8.912  0.00  0.00    -0.028 A 
HETATM    4  C           1     -20.126  -4.284  -9.588  0.00  0.00     0.096 A 
HETATM    5  N           1     -20.393  -4.212 -10.929  0.00  0.00    -0.365 N 
HETATM    6  H           1     -19.688  -4.370 -11.691  0.00  0.00     0.165 HD
HETATM    7  C           1     -21.719  -3.903 -11.136  0.00  0.00     0.042 A 
HETATM    8  C           1     -22.433  -3.729 -12.327  0.00  0.00     0.030 A 
HETATM    9  C           1     -22.310  -3.776  -9.878  0.00  0.00    -0.002 A 
HETATM   10  C           1     -23.791  -3.415 -12.226  0.00  0.00     0.002 A 
HETATM   11  C           1     -24.409  -3.281 -10.985  0.00  0.00     0.001 A 
HETATM   12  C           1     -23.680  -3.459  -9.802  0.00  0.00     0.014 A 
ENDBRANCH   2   3
ENDBRANCH   1   2
BRANCH   1  13
HETATM   13  C           1     -21.366  -5.949  -5.914  0.00  0.00     0.249 C 
HETATM   14  N           1     -21.295  -7.315  -5.890  0.00  0.00    -0.345 N 
HETATM   15  H           1     -21.792  -7.860  -6.584  0.00  0.00     0.163 HD
HETATM   16  O           1     -20.772  -5.299  -5.087  0.00  0.00    -0.271 OA
BRANCH  14  17
HETATM   17  C           1     -20.506  -7.984  -4.874  0.00  0.00     0.185 C 
BRANCH  17  18
HETATM   18  C           1     -21.420  -8.456  -3.751  0.00  0.00     0.036 C 
BRANCH  18  19
HETATM   19  C           1     -20.619  -8.582  -2.462  0.00  0.00     0.003 C 
BRANCH  19  20
HETATM   20 Se           1     -21.646  -7.836  -0.982  0.00  0.00     0.000 Se
HETATM   21  C           1     -22.182  -6.231  -1.950  0.00  0.00     0.000 C 
ENDBRANCH  19  20
ENDBRANCH  18  19
ENDBRANCH  17  18
BRANCH  17  22
HETATM   22  C           1     -19.803  -9.171  -5.483  0.00  0.00     0.196 C 
HETATM   23  O           1     -20.438 -10.224  -5.710  0.00  0.00    -0.646 OA
HETATM   24  O           1     -18.586  -9.104  -5.759  0.00  0.00    -0.646 OA
ENDBRANCH  17  22
ENDBRANCH  14  17
ENDBRANCH   1  13
BRANCH   1  25
HETATM   25  N           1     -23.526  -4.889  -6.406  0.00  0.00    -0.066 N 
HETATM   26  H           1     -23.914  -5.702  -5.876  0.00  0.00     0.275 HD
HETATM   27  H           1     -24.178  -4.637  -7.183  0.00  0.00     0.275 HD
HETATM   28  H           1     -23.421  -4.073  -5.761  0.00  0.00     0.275 HD
ENDBRANCH   1  25
TORSDOF 9
ENDMDL
MODEL 4
REMARK VINA RESULT:      -7.2      3.604      8.452
REMARK  9 active torsions:
REMARK  status: ('A' for Active; 'I' for Inactive)
REMARK    1  A    between atoms: C_3  and  Se_16 
REMARK    2  A    between atoms: C_3  and  C_10 
REMARK    3  A    between atoms: C_7  and  C_8 
REMARK    4  A    between atoms: C_8  and  C_9 
REMARK    5  A    between atoms: C_9  and  C_11 
REMARK    6  A    between atoms: C_9  and  N_24 
REMARK    7  A    between atoms: C_10  and  C_20 
REMARK       I    between atoms: C_11  and  N_15 
REMARK    8  A    between atoms: N_15  and  C_20 
REMARK    9  A    between atoms: C_20  and  C_26 
ROOT
HETATM    1  C           1     -20.866  -5.163  -6.218  0.00  0.00     0.278 C 
ENDROOT
BRANCH   1   2
HETATM    2  C           1     -20.952  -5.517  -7.696  0.00  0.00     0.083 C 
BRANCH   2   3
HETATM    3  C           1     -22.085  -4.766  -8.324  0.00  0.00    -0.028 A 
HETATM    4  C           1     -23.259  -4.402  -7.704  0.00  0.00     0.096 A 
HETATM    5  N           1     -24.026  -3.733  -8.621  0.00  0.00    -0.365 N 
HETATM    6  H           1     -24.979  -3.336  -8.432  0.00  0.00     0.165 HD
HETATM    7  C           1     -23.368  -3.656  -9.828  0.00  0.00     0.042 A 
HETATM    8  C           1     -23.760  -3.071 -11.038  0.00  0.00     0.030 A 
HETATM    9  C           1     -22.140  -4.301  -9.666  0.00  0.00    -0.002 A 
HETATM   10  C           1     -22.870  -3.149 -12.112  0.00  0.00     0.002 A 
HETATM   11  C           1     -21.637  -3.786 -11.981  0.00  0.00     0.001 A 
HETATM   12  C           1     -21.260  -4.366 -10.764  0.00  0.00     0.014 A 
ENDBRANCH   2   3
ENDBRANCH   1   2
BRANCH   1  13
HETATM   13  C           1     -21.120  -6.399  -5.388  0.00  0.00     0.249 C 
HETATM   14  N           1     -21.036  -6.337  -4.024  0.00  0.00    -0.345 N 
HETATM   15  H           1     -20.805  -5.462  -3.570  0.00  0.00     0.163 HD
HETATM   16  O           1     -21.397  -7.443  -5.929  0.00  0.00    -0.271 OA
BRANCH  14  17
HETATM   17  C           1     -21.280  -7.523  -3.227  0.00  0.00     0.185 C 
BRANCH  17  18
HETATM   18  C           1     -19.957  -8.213  -2.925  0.00  0.00     0.036 C 
BRANCH  18  19
HETATM   19  C           1     -20.036  -9.675  -3.343  0.00  0.00     0.003 C 
BRANCH  19  20
HETATM   20 Se           1     -21.872 -10.114  -3.829  0.00  0.00     0.000 Se
HETATM   21  C           1     -22.218 -11.167  -2.226  0.00  0.00     0.000 C 
ENDBRANCH  19  20
ENDBRANCH  18  19
ENDBRANCH  17  18
BRANCH  17  22
HETATM   22  C           1     -21.949  -7.132  -1.933  0.00  0.00     0.196 C 
HETATM   23  O           1     -21.848  -7.869  -0.929  0.00  0.00    -0.646 OA
HETATM   24  O           1     -22.607  -6.071  -1.865  0.00  0.00    -0.646 OA
ENDBRANCH  17  22
ENDBRANCH  14  17
ENDBRANCH   1  13
BRANCH   1  25
HETATM   25  N           1     -19.499  -4.629  -5.911  0.00  0.00    -0.066 N 
HETATM   26  H           1     -18.942  -5.360  -5.413  0.00  0.00     0.275 HD
HETATM   27  H           1     -19.582  -3.782  -5.305  0.00  0.00     0.275 HD
HETATM   28  H           1     -19.017  -4.373  -6.803  0.00  0.00     0.275 HD
ENDBRANCH   1  25
TORSDOF 9
ENDMDL
MODEL 5
REMARK VINA RESULT:      -7.2      4.538      8.742
REMARK  9 active torsions:
REMARK  status: ('A' for Active; 'I' for Inactive)
REMARK    1  A    between atoms: C_3  and  Se_16 
REMARK    2  A    between atoms: C_3  and  C_10 
REMARK    3  A    between atoms: C_7  and  C_8 
REMARK    4  A    between atoms: C_8  and  C_9 
REMARK    5  A    between atoms: C_9  and  C_11 
REMARK    6  A    between atoms: C_9  and  N_24 
REMARK    7  A    between atoms: C_10  and  C_20 
REMARK       I    between atoms: C_11  and  N_15 
REMARK    8  A    between atoms: N_15  and  C_20 
REMARK    9  A    between atoms: C_20  and  C_26 
ROOT
HETATM    1  C           1     -21.354  -6.194  -5.628  0.00  0.00     0.278 C 
ENDROOT
BRANCH   1   2
HETATM    2  C           1     -20.914  -4.900  -6.298  0.00  0.00     0.083 C 
BRANCH   2   3
HETATM    3  C           1     -21.891  -4.537  -7.373  0.00  0.00    -0.028 A 
HETATM    4  C           1     -23.254  -4.417  -7.224  0.00  0.00     0.096 A 
HETATM    5  N           1     -23.779  -4.073  -8.441  0.00  0.00    -0.365 N 
HETATM    6  H           1     -24.800  -3.913  -8.632  0.00  0.00     0.165 HD
HETATM    7  C           1     -22.778  -3.968  -9.380  0.00  0.00     0.042 A 
HETATM    8  C           1     -22.843  -3.643 -10.740  0.00  0.00     0.030 A 
HETATM    9  C           1     -21.577  -4.256  -8.731  0.00  0.00    -0.002 A 
HETATM   10  C           1     -21.642  -3.613 -11.455  0.00  0.00     0.002 A 
HETATM   11  C           1     -20.427  -3.896 -10.834  0.00  0.00     0.001 A 
HETATM   12  C           1     -20.380  -4.219  -9.473  0.00  0.00     0.014 A 
ENDBRANCH   2   3
ENDBRANCH   1   2
BRANCH   1  13
HETATM   13  C           1     -20.227  -7.198  -5.681  0.00  0.00     0.249 C 
HETATM   14  N           1     -20.069  -8.105  -4.668  0.00  0.00    -0.345 N 
HETATM   15  H           1     -20.709  -8.104  -3.884  0.00  0.00     0.163 HD
HETATM   16  O           1     -19.464  -7.199  -6.618  0.00  0.00    -0.271 OA
BRANCH  14  17
HETATM   17  C           1     -18.987  -9.068  -4.720  0.00  0.00     0.185 C 
BRANCH  17  18
HETATM   18  C           1     -18.441  -9.294  -3.316  0.00  0.00     0.036 C 
BRANCH  18  19
HETATM   19  C           1     -16.956  -9.623  -3.394  0.00  0.00     0.003 C 
BRANCH  19  20
HETATM   20 Se           1     -16.546 -11.075  -2.160  0.00  0.00     0.000 Se
HETATM   21  C           1     -18.397 -11.353  -1.615  0.00  0.00     0.000 C 
ENDBRANCH  19  20
ENDBRANCH  18  19
ENDBRANCH  17  18
BRANCH  17  22
HETATM   22  C           1     -19.501 -10.373  -5.274  0.00  0.00     0.196 C 
HETATM   23  O           1     -19.112 -10.774  -6.393  0.00  0.00    -0.646 OA
HETATM   24  O           1     -20.317 -11.055  -4.617  0.00  0.00    -0.646 OA
ENDBRANCH  17  22
ENDBRANCH  14  17
ENDBRANCH   1  13
BRANCH   1  25
HETATM   25  N           1     -21.710  -5.920  -4.197  0.00  0.00    -0.066 N 
HETATM   26  H           1     -22.487  -5.222  -4.158  0.00  0.00     0.275 HD
HETATM   27  H           1     -20.875  -5.539  -3.697  0.00  0.00     0.275 HD
HETATM   28  H           1     -22.017  -6.808  -3.738  0.00  0.00     0.275 HD
ENDBRANCH   1  25
TORSDOF 9
ENDMDL
MODEL 6
REMARK VINA RESULT:      -7.1      3.722      8.472
REMARK  9 active torsions:
REMARK  status: ('A' for Active; 'I' for Inactive)
REMARK    1  A    between atoms: C_3  and  Se_16 
REMARK    2  A    between atoms: C_3  and  C_10 
REMARK    3  A    between atoms: C_7  and  C_8 
REMARK    4  A    between atoms: C_8  and  C_9 
REMARK    5  A    between atoms: C_9  and  C_11 
REMARK    6  A    between atoms: C_9  and  N_24 
REMARK    7  A    between atoms: C_10  and  C_20 
REMARK       I    between atoms: C_11  and  N_15 
REMARK    8  A    between atoms: N_15  and  C_20 
REMARK    9  A    between atoms: C_20  and  C_26 
ROOT
HETATM    1  C           1     -20.157  -4.625  -7.174  0.00  0.00     0.278 C 
ENDROOT
BRANCH   1   2
HETATM    2  C           1     -20.823  -5.399  -8.305  0.00  0.00     0.083 C 
BRANCH   2   3
HETATM    3  C           1     -22.082  -4.698  -8.714  0.00  0.00    -0.028 A 
HETATM    4  C           1     -23.159  -4.423  -7.901  0.00  0.00     0.096 A 
HETATM    5  N           1     -24.098  -3.774  -8.657  0.00  0.00    -0.365 N 
HETATM    6  H           1     -25.029  -3.440  -8.302  0.00  0.00     0.165 HD
HETATM    7  C           1     -23.649  -3.622  -9.949  0.00  0.00     0.042 A 
HETATM    8  C           1     -24.263  -3.026 -11.057  0.00  0.00     0.030 A 
HETATM    9  C           1     -22.378  -4.197 -10.011  0.00  0.00    -0.002 A 
HETATM   10  C           1     -23.554  -3.019 -12.262  0.00  0.00     0.002 A 
HETATM   11  C           1     -22.285  -3.585 -12.354  0.00  0.00     0.001 A 
HETATM   12  C           1     -21.685  -4.177 -11.237  0.00  0.00     0.014 A 
ENDBRANCH   2   3
ENDBRANCH   1   2
BRANCH   1  13
HETATM   13  C           1     -20.182  -5.455  -5.913  0.00  0.00     0.249 C 
HETATM   14  N           1     -20.064  -6.817  -5.987  0.00  0.00    -0.345 N 
HETATM   15  H           1     -19.960  -7.268  -6.888  0.00  0.00     0.163 HD
HETATM   16  O           1     -20.305  -4.917  -4.839  0.00  0.00    -0.271 OA
BRANCH  14  17
HETATM   17  C           1     -20.088  -7.614  -4.776  0.00  0.00     0.185 C 
BRANCH  17  18
HETATM   18  C           1     -21.528  -7.962  -4.426  0.00  0.00     0.036 C 
BRANCH  18  19
HETATM   19  C           1     -21.808  -7.580  -2.978  0.00  0.00     0.003 C 
BRANCH  19  20
HETATM   20 Se           1     -21.449  -9.106  -1.821  0.00  0.00     0.000 Se
HETATM   21  C           1     -21.577  -8.087  -0.164  0.00  0.00     0.000 C 
ENDBRANCH  19  20
ENDBRANCH  18  19
ENDBRANCH  17  18
BRANCH  17  22
HETATM   22  C           1     -19.303  -8.883  -4.994  0.00  0.00     0.196 C 
HETATM   23  O           1     -19.578  -9.632  -5.957  0.00  0.00    -0.646 OA
HETATM   24  O           1     -18.377  -9.188  -4.212  0.00  0.00    -0.646 OA
ENDBRANCH  17  22
ENDBRANCH  14  17
ENDBRANCH   1  13
BRANCH   1  25
HETATM   25  N           1     -18.735  -4.326  -7.546  0.00  0.00    -0.066 N 
HETATM   26  H           1     -18.613  -3.293  -7.651  0.00  0.00     0.275 HD
HETATM   27  H           1     -18.503  -4.797  -8.449  0.00  0.00     0.275 HD
HETATM   28  H           1     -18.098  -4.676  -6.795  0.00  0.00     0.275 HD
ENDBRANCH   1  25
TORSDOF 9
ENDMDL
MODEL 7
REMARK VINA RESULT:      -7.0      4.124      8.594
REMARK  9 active torsions:
REMARK  status: ('A' for Active; 'I' for Inactive)
REMARK    1  A    between atoms: C_3  and  Se_16 
REMARK    2  A    between atoms: C_3  and  C_10 
REMARK    3  A    between atoms: C_7  and  C_8 
REMARK    4  A    between atoms: C_8  and  C_9 
REMARK    5  A    between atoms: C_9  and  C_11 
REMARK    6  A    between atoms: C_9  and  N_24 
REMARK    7  A    between atoms: C_10  and  C_20 
REMARK       I    between atoms: C_11  and  N_15 
REMARK    8  A    between atoms: N_15  and  C_20 
REMARK    9  A    between atoms: C_20  and  C_26 
ROOT
HETATM    1  C           1     -20.296  -6.047  -5.877  0.00  0.00     0.278 C 
ENDROOT
BRANCH   1   2
HETATM    2  C           1     -20.741  -4.592  -5.943  0.00  0.00     0.083 C 
BRANCH   2   3
HETATM    3  C           1     -21.740  -4.425  -7.046  0.00  0.00    -0.028 A 
HETATM    4  C           1     -23.109  -4.475  -6.914  0.00  0.00     0.096 A 
HETATM    5  N           1     -23.656  -4.275  -8.154  0.00  0.00    -0.365 N 
HETATM    6  H           1     -24.685  -4.262  -8.362  0.00  0.00     0.165 HD
HETATM    7  C           1     -22.662  -4.095  -9.090  0.00  0.00     0.042 A 
HETATM    8  C           1     -22.747  -3.862 -10.467  0.00  0.00     0.030 A 
HETATM    9  C           1     -21.443  -4.185  -8.415  0.00  0.00    -0.002 A 
HETATM   10  C           1     -21.550  -3.717 -11.174  0.00  0.00     0.002 A 
HETATM   11  C           1     -20.318  -3.802 -10.528  0.00  0.00     0.001 A 
HETATM   12  C           1     -20.250  -4.035  -9.149  0.00  0.00     0.014 A 
ENDBRANCH   2   3
ENDBRANCH   1   2
BRANCH   1  13
HETATM   13  C           1     -21.123  -6.780  -4.847  0.00  0.00     0.249 C 
HETATM   14  N           1     -20.688  -6.862  -3.552  0.00  0.00    -0.345 N 
HETATM   15  H           1     -19.812  -6.431  -3.284  0.00  0.00     0.163 HD
HETATM   16  O           1     -22.169  -7.293  -5.167  0.00  0.00    -0.271 OA
BRANCH  14  17
HETATM   17  C           1     -21.482  -7.566  -2.564  0.00  0.00     0.185 C 
BRANCH  17  18
HETATM   18  C           1     -20.580  -8.479  -1.745  0.00  0.00     0.036 C 
BRANCH  18  19
HETATM   19  C           1     -21.169  -9.883  -1.714  0.00  0.00     0.003 C 
BRANCH  19  20
HETATM   20 Se           1     -21.692 -10.329   0.110  0.00  0.00     0.000 Se
HETATM   21  C           1     -23.590 -10.499  -0.303  0.00  0.00     0.000 C 
ENDBRANCH  19  20
ENDBRANCH  18  19
ENDBRANCH  17  18
BRANCH  17  22
HETATM   22  C           1     -22.149  -6.567  -1.651  0.00  0.00     0.196 C 
HETATM   23  O           1     -22.828  -6.965  -0.680  0.00  0.00    -0.646 OA
HETATM   24  O           1     -22.023  -5.342  -1.865  0.00  0.00    -0.646 OA
ENDBRANCH  17  22
ENDBRANCH  14  17
ENDBRANCH   1  13
BRANCH   1  25
HETATM   25  N           1     -20.488  -6.688  -7.218  0.00  0.00    -0.066 N 
HETATM   26  H           1     -20.437  -5.958  -7.964  0.00  0.00     0.275 HD
HETATM   27  H           1     -21.421  -7.156  -7.252  0.00  0.00     0.275 HD
HETATM   28  H           1     -19.736  -7.398  -7.375  0.00  0.00     0.275 HD
ENDBRANCH   1  25
TORSDOF 9
ENDMDL
MODEL 8
REMARK VINA RESULT:      -7.0      3.924      8.395
REMARK  9 active torsions:
REMARK  status: ('A' for Active; 'I' for Inactive)
REMARK    1  A    between atoms: C_3  and  Se_16 
REMARK    2  A    between atoms: C_3  and  C_10 
REMARK    3  A    between atoms: C_7  and  C_8 
REMARK    4  A    between atoms: C_8  and  C_9 
REMARK    5  A    between atoms: C_9  and  C_11 
REMARK    6  A    between atoms: C_9  and  N_24 
REMARK    7  A    between atoms: C_10  and  C_20 
REMARK       I    between atoms: C_11  and  N_15 
REMARK    8  A    between atoms: N_15  and  C_20 
REMARK    9  A    between atoms: C_20  and  C_26 
ROOT
HETATM    1  C           1     -21.153  -5.709  -5.860  0.00  0.00     0.278 C 
ENDROOT
BRANCH   1   2
HETATM    2  C           1     -20.794  -5.501  -7.325  0.00  0.00     0.083 C 
BRANCH   2   3
HETATM    3  C           1     -21.916  -4.792  -8.019  0.00  0.00    -0.028 A 
HETATM    4  C           1     -23.139  -4.479  -7.471  0.00  0.00     0.096 A 
HETATM    5  N           1     -23.874  -3.835  -8.431  0.00  0.00    -0.365 N 
HETATM    6  H           1     -24.853  -3.478  -8.299  0.00  0.00     0.165 HD
HETATM    7  C           1     -23.147  -3.725  -9.595  0.00  0.00     0.042 A 
HETATM    8  C           1     -23.488  -3.148 -10.824  0.00  0.00     0.030 A 
HETATM    9  C           1     -21.907  -4.321  -9.360  0.00  0.00    -0.002 A 
HETATM   10  C           1     -22.530  -3.184 -11.842  0.00  0.00     0.002 A 
HETATM   11  C           1     -21.284  -3.772 -11.637  0.00  0.00     0.001 A 
HETATM   12  C           1     -20.959  -4.344 -10.402  0.00  0.00     0.014 A 
ENDBRANCH   2   3
ENDBRANCH   1   2
BRANCH   1  13
HETATM   13  C           1     -20.957  -7.160  -5.494  0.00  0.00     0.249 C 
HETATM   14  N           1     -20.488  -7.496  -4.252  0.00  0.00    -0.345 N 
HETATM   15  H           1     -20.274  -6.771  -3.579  0.00  0.00     0.163 HD
HETATM   16  O           1     -21.214  -8.025  -6.297  0.00  0.00    -0.271 OA
BRANCH  14  17
HETATM   17  C           1     -20.300  -8.890  -3.900  0.00  0.00     0.185 C 
BRANCH  17  18
HETATM   18  C           1     -19.092  -9.023  -2.983  0.00  0.00     0.036 C 
BRANCH  18  19
HETATM   19  C           1     -18.133 -10.061  -3.551  0.00  0.00     0.003 C 
BRANCH  19  20
HETATM   20 Se           1     -18.462 -10.276  -5.460  0.00  0.00     0.000 Se
HETATM   21  C           1     -17.048 -11.593  -5.720  0.00  0.00     0.000 C 
ENDBRANCH  19  20
ENDBRANCH  18  19
ENDBRANCH  17  18
BRANCH  17  22
HETATM   22  C           1     -21.529  -9.400  -3.190  0.00  0.00     0.196 C 
HETATM   23  O           1     -22.281 -10.224  -3.755  0.00  0.00    -0.646 OA
HETATM   24  O           1     -21.797  -8.998  -2.037  0.00  0.00    -0.646 OA
ENDBRANCH  17  22
ENDBRANCH  14  17
ENDBRANCH   1  13
BRANCH   1  25
HETATM   25  N           1     -20.268  -4.854  -5.003  0.00  0.00    -0.066 N 
HETATM   26  H           1     -20.853  -4.176  -4.465  0.00  0.00     0.275 HD
HETATM   27  H           1     -19.596  -4.331  -5.609  0.00  0.00     0.275 HD
HETATM   28  H           1     -19.738  -5.461  -4.337  0.00  0.00     0.275 HD
ENDBRANCH   1  25
TORSDOF 9
ENDMDL
MODEL 9
REMARK VINA RESULT:      -6.6      3.601      8.122
REMARK  9 active torsions:
REMARK  status: ('A' for Active; 'I' for Inactive)
REMARK    1  A    between atoms: C_3  and  Se_16 
REMARK    2  A    between atoms: C_3  and  C_10 
REMARK    3  A    between atoms: C_7  and  C_8 
REMARK    4  A    between atoms: C_8  and  C_9 
REMARK    5  A    between atoms: C_9  and  C_11 
REMARK    6  A    between atoms: C_9  and  N_24 
REMARK    7  A    between atoms: C_10  and  C_20 
REMARK       I    between atoms: C_11  and  N_15 
REMARK    8  A    between atoms: N_15  and  C_20 
REMARK    9  A    between atoms: C_20  and  C_26 
ROOT
HETATM    1  C           1     -20.720  -5.355  -6.301  0.00  0.00     0.278 C 
ENDROOT
BRANCH   1   2
HETATM    2  C           1     -21.537  -4.171  -6.801  0.00  0.00     0.083 C 
BRANCH   2   3
HETATM    3  C           1     -21.333  -4.011  -8.276  0.00  0.00    -0.028 A 
HETATM    4  C           1     -20.124  -4.026  -8.934  0.00  0.00     0.096 A 
HETATM    5  N           1     -20.373  -3.849 -10.270  0.00  0.00    -0.365 N 
HETATM    6  H           1     -19.638  -3.816 -11.019  0.00  0.00     0.165 HD
HETATM    7  C           1     -21.726  -3.719 -10.490  0.00  0.00     0.042 A 
HETATM    8  C           1     -22.435  -3.523 -11.681  0.00  0.00     0.030 A 
HETATM    9  C           1     -22.354  -3.818  -9.247  0.00  0.00    -0.002 A 
HETATM   10  C           1     -23.827  -3.427 -11.596  0.00  0.00     0.002 A 
HETATM   11  C           1     -24.481  -3.522 -10.370  0.00  0.00     0.001 A 
HETATM   12  C           1     -23.757  -3.718  -9.188  0.00  0.00     0.014 A 
ENDBRANCH   2   3
ENDBRANCH   1   2
BRANCH   1  13
HETATM   13  C           1     -21.526  -6.131  -5.287  0.00  0.00     0.249 C 
HETATM   14  N           1     -20.894  -6.952  -4.393  0.00  0.00    -0.345 N 
HETATM   15  H           1     -19.885  -7.038  -4.411  0.00  0.00     0.163 HD
HETATM   16  O           1     -22.729  -6.026  -5.265  0.00  0.00    -0.271 OA
BRANCH  14  17
HETATM   17  C           1     -21.667  -7.696  -3.419  0.00  0.00     0.185 C 
BRANCH  17  18
HETATM   18  C           1     -21.058  -9.080  -3.237  0.00  0.00     0.036 C 
BRANCH  18  19
HETATM   19  C           1     -19.608  -9.064  -3.703  0.00  0.00     0.003 C 
BRANCH  19  20
HETATM   20 Se           1     -19.262 -10.633  -4.806  0.00  0.00     0.000 Se
HETATM   21  C           1     -17.861  -9.783  -5.862  0.00  0.00     0.000 C 
ENDBRANCH  19  20
ENDBRANCH  18  19
ENDBRANCH  17  18
BRANCH  17  22
HETATM   22  C           1     -21.654  -6.964  -2.100  0.00  0.00     0.196 C 
HETATM   23  O           1     -21.098  -7.478  -1.105  0.00  0.00    -0.646 OA
HETATM   24  O           1     -22.200  -5.844  -2.001  0.00  0.00    -0.646 OA
ENDBRANCH  17  22
ENDBRANCH  14  17
ENDBRANCH   1  13
BRANCH   1  25
HETATM   25  N           1     -20.379  -6.249  -7.456  0.00  0.00    -0.066 N 
HETATM   26  H           1     -21.172  -6.905  -7.636  0.00  0.00     0.275 HD
HETATM   27  H           1     -19.518  -6.797  -7.231  0.00  0.00     0.275 HD
HETATM   28  H           1     -20.209  -5.667  -8.308  0.00  0.00     0.275 HD
ENDBRANCH   1  25
TORSDOF 9
ENDMDL
