MODEL 1
REMARK VINA RESULT:      -6.2      0.000      0.000
REMARK  5 active torsions:
REMARK  status: ('A' for Active; 'I' for Inactive)
REMARK    1  A    between atoms: C_1  and  C_11 
REMARK    2  A    between atoms: C_1  and  C_2 
REMARK    3  A    between atoms: N_5  and  C_11 
REMARK    4  A    between atoms: C_7  and  C_15 
REMARK    5  A    between atoms: C_11  and  C_14 
REMARK       I    between atoms: N_13  and  C_14 
ROOT
HETATM    1  O           1     -22.249  -3.803  -7.496  0.00  0.00    -0.271 OA
HETATM    2  N           1     -21.452  -4.202  -9.544  0.00  0.00    -0.336 N 
HETATM    3  C           1     -21.393  -4.310  -8.180  0.00  0.00     0.251 C 
HETATM    4  C           1     -22.470  -3.519 -10.337  0.00  0.00     0.188 C 
HETATM    5  C           1     -20.513  -4.745 -10.521  0.00  0.00     0.127 C 
HETATM    6  C           1     -20.387  -3.640 -11.556  0.00  0.00     0.022 C 
HETATM    7  C           1     -21.673  -2.831 -11.433  0.00  0.00     0.038 C 
ENDROOT
BRANCH   3   8
HETATM    8  C           1     -20.256  -5.062  -7.532  0.00  0.00     0.275 C 
BRANCH   8   9
HETATM    9  C           1     -20.576  -5.299  -6.062  0.00  0.00     0.046 C 
BRANCH   9  10
HETATM   10  C           1     -21.152  -6.698  -5.887  0.00  0.00    -0.020 C 
HETATM   11  C           1     -20.072  -7.627  -5.348  0.00  0.00     0.009 C 
HETATM   12  C           1     -22.315  -6.649  -4.906  0.00  0.00     0.009 C 
ENDBRANCH   9  10
ENDBRANCH   8   9
BRANCH   8  13
HETATM   13  N           1     -18.996  -4.255  -7.645  0.00  0.00    -0.066 N 
HETATM   14  H           1     -18.477  -4.292  -6.739  0.00  0.00     0.275 HD
HETATM   15  H           1     -19.237  -3.262  -7.866  0.00  0.00     0.275 HD
HETATM   16  H           1     -18.398  -4.646  -8.406  0.00  0.00     0.275 HD
ENDBRANCH   8  13
ENDBRANCH   3   8
BRANCH   4  17
HETATM   17  C           1     -23.447  -4.507 -10.926  0.00  0.00     0.196 C 
HETATM   18  O           1     -24.065  -5.295 -10.178  0.00  0.00    -0.646 OA
HETATM   19  O           1     -23.637  -4.538 -12.161  0.00  0.00    -0.646 OA
ENDBRANCH   4  17
TORSDOF 5
ENDMDL
MODEL 2
REMARK VINA RESULT:      -6.1      1.824      2.634
REMARK  5 active torsions:
REMARK  status: ('A' for Active; 'I' for Inactive)
REMARK    1  A    between atoms: C_1  and  C_11 
REMARK    2  A    between atoms: C_1  and  C_2 
REMARK    3  A    between atoms: N_5  and  C_11 
REMARK    4  A    between atoms: C_7  and  C_15 
REMARK    5  A    between atoms: C_11  and  C_14 
REMARK       I    between atoms: N_13  and  C_14 
ROOT
HETATM    1  O           1     -20.619  -5.471  -8.497  0.00  0.00    -0.271 OA
HETATM    2  N           1     -22.349  -4.314  -9.307  0.00  0.00    -0.336 N 
HETATM    3  C           1     -21.581  -4.775  -8.272  0.00  0.00     0.251 C 
HETATM    4  C           1     -22.157  -4.558 -10.734  0.00  0.00     0.188 C 
HETATM    5  C           1     -23.538  -3.470  -9.225  0.00  0.00     0.127 C 
HETATM    6  C           1     -24.475  -4.060 -10.265  0.00  0.00     0.022 C 
HETATM    7  C           1     -23.567  -4.780 -11.255  0.00  0.00     0.038 C 
ENDROOT
BRANCH   3   8
HETATM    8  C           1     -21.936  -4.415  -6.850  0.00  0.00     0.275 C 
BRANCH   8   9
HETATM    9  C           1     -20.971  -5.106  -5.896  0.00  0.00     0.046 C 
BRANCH   9  10
HETATM   10  C           1     -21.701  -6.214  -5.147  0.00  0.00    -0.020 C 
HETATM   11  C           1     -21.229  -7.568  -5.660  0.00  0.00     0.009 C 
HETATM   12  C           1     -21.403  -6.102  -3.658  0.00  0.00     0.009 C 
ENDBRANCH   9  10
ENDBRANCH   8   9
BRANCH   8  13
HETATM   13  N           1     -23.337  -4.866  -6.557  0.00  0.00    -0.066 N 
HETATM   14  H           1     -23.964  -4.033  -6.493  0.00  0.00     0.275 HD
HETATM   15  H           1     -23.353  -5.383  -5.649  0.00  0.00     0.275 HD
HETATM   16  H           1     -23.668  -5.495  -7.322  0.00  0.00     0.275 HD
ENDBRANCH   8  13
ENDBRANCH   3   8
BRANCH   4  17
HETATM   17  C           1     -21.520  -3.365 -11.403  0.00  0.00     0.196 C 
HETATM   18  O           1     -22.146  -2.733 -12.282  0.00  0.00    -0.646 OA
HETATM   19  O           1     -20.366  -3.009 -11.079  0.00  0.00    -0.646 OA
ENDBRANCH   4  17
TORSDOF 5
ENDMDL
MODEL 3
REMARK VINA RESULT:      -5.7      2.998      6.190
REMARK  5 active torsions:
REMARK  status: ('A' for Active; 'I' for Inactive)
REMARK    1  A    between atoms: C_1  and  C_11 
REMARK    2  A    between atoms: C_1  and  C_2 
REMARK    3  A    between atoms: N_5  and  C_11 
REMARK    4  A    between atoms: C_7  and  C_15 
REMARK    5  A    between atoms: C_11  and  C_14 
REMARK       I    between atoms: N_13  and  C_14 
ROOT
HETATM    1  O           1     -19.341  -6.711  -6.963  0.00  0.00    -0.271 OA
HETATM    2  N           1     -21.007  -6.832  -5.480  0.00  0.00    -0.336 N 
HETATM    3  C           1     -20.418  -6.304  -6.598  0.00  0.00     0.251 C 
HETATM    4  C           1     -20.484  -7.886  -4.615  0.00  0.00     0.188 C 
HETATM    5  C           1     -22.293  -6.467  -4.895  0.00  0.00     0.127 C 
HETATM    6  C           1     -22.030  -6.481  -3.400  0.00  0.00     0.022 C 
HETATM    7  C           1     -20.837  -7.411  -3.215  0.00  0.00     0.038 C 
ENDROOT
BRANCH   3   8
HETATM    8  C           1     -21.114  -5.212  -7.372  0.00  0.00     0.275 C 
BRANCH   8   9
HETATM    9  C           1     -20.515  -5.120  -8.770  0.00  0.00     0.046 C 
BRANCH   9  10
HETATM   10  C           1     -21.300  -4.107  -9.593  0.00  0.00    -0.020 C 
HETATM   11  C           1     -20.619  -3.915 -10.942  0.00  0.00     0.009 C 
HETATM   12  C           1     -22.718  -4.616  -9.808  0.00  0.00     0.009 C 
ENDBRANCH   9  10
ENDBRANCH   8   9
BRANCH   8  13
HETATM   13  N           1     -20.930  -3.903  -6.663  0.00  0.00    -0.066 N 
HETATM   14  H           1     -20.517  -3.205  -7.322  0.00  0.00     0.275 HD
HETATM   15  H           1     -20.288  -4.035  -5.849  0.00  0.00     0.275 HD
HETATM   16  H           1     -21.856  -3.557  -6.324  0.00  0.00     0.275 HD
ENDBRANCH   8  13
ENDBRANCH   3   8
BRANCH   4  17
HETATM   17  C           1     -21.148  -9.208  -4.915  0.00  0.00     0.196 C 
HETATM   18  O           1     -21.770  -9.813  -4.016  0.00  0.00    -0.646 OA
HETATM   19  O           1     -21.074  -9.697  -6.063  0.00  0.00    -0.646 OA
ENDBRANCH   4  17
TORSDOF 5
ENDMDL
MODEL 4
REMARK VINA RESULT:      -5.7      5.585      7.718
REMARK  5 active torsions:
REMARK  status: ('A' for Active; 'I' for Inactive)
REMARK    1  A    between atoms: C_1  and  C_11 
REMARK    2  A    between atoms: C_1  and  C_2 
REMARK    3  A    between atoms: N_5  and  C_11 
REMARK    4  A    between atoms: C_7  and  C_15 
REMARK    5  A    between atoms: C_11  and  C_14 
REMARK       I    between atoms: N_13  and  C_14 
ROOT
HETATM    1  O           1     -19.837  -8.049  -1.291  0.00  0.00    -0.271 OA
HETATM    2  N           1     -20.948  -8.561  -3.160  0.00  0.00    -0.336 N 
HETATM    3  C           1     -20.489  -8.860  -1.905  0.00  0.00     0.251 C 
HETATM    4  C           1     -20.751  -7.321  -3.906  0.00  0.00     0.188 C 
HETATM    5  C           1     -21.743  -9.410  -4.042  0.00  0.00     0.127 C 
HETATM    6  C           1     -21.145  -9.165  -5.417  0.00  0.00     0.022 C 
HETATM    7  C           1     -20.489  -7.793  -5.327  0.00  0.00     0.038 C 
ENDROOT
BRANCH   3   8
HETATM    8  C           1     -20.795 -10.203  -1.290  0.00  0.00     0.275 C 
BRANCH   8   9
HETATM    9  C           1     -21.555 -10.003   0.014  0.00  0.00     0.046 C 
BRANCH   9  10
HETATM   10  C           1     -22.952  -9.476  -0.287  0.00  0.00    -0.020 C 
HETATM   11  C           1     -23.979 -10.558   0.019  0.00  0.00     0.009 C 
HETATM   12  C           1     -23.230  -8.253   0.576  0.00  0.00     0.009 C 
ENDBRANCH   9  10
ENDBRANCH   8   9
BRANCH   8  13
HETATM   13  N           1     -19.511 -10.930  -1.014  0.00  0.00    -0.066 N 
HETATM   14  H           1     -19.158 -11.359  -1.898  0.00  0.00     0.275 HD
HETATM   15  H           1     -19.682 -11.681  -0.307  0.00  0.00     0.275 HD
HETATM   16  H           1     -18.803 -10.257  -0.644  0.00  0.00     0.275 HD
ENDBRANCH   8  13
ENDBRANCH   3   8
BRANCH   4  17
HETATM   17  C           1     -21.986  -6.455  -3.848  0.00  0.00     0.196 C 
HETATM   18  O           1     -22.431  -6.077  -2.743  0.00  0.00    -0.646 OA
HETATM   19  O           1     -22.563  -6.118  -4.904  0.00  0.00    -0.646 OA
ENDBRANCH   4  17
TORSDOF 5
ENDMDL
MODEL 5
REMARK VINA RESULT:      -5.5      8.100     10.495
REMARK  5 active torsions:
REMARK  status: ('A' for Active; 'I' for Inactive)
REMARK    1  A    between atoms: C_1  and  C_11 
REMARK    2  A    between atoms: C_1  and  C_2 
REMARK    3  A    between atoms: N_5  and  C_11 
REMARK    4  A    between atoms: C_7  and  C_15 
REMARK    5  A    between atoms: C_11  and  C_14 
REMARK       I    between atoms: N_13  and  C_14 
ROOT
HETATM    1  O           1     -20.631 -10.326   1.237  0.00  0.00    -0.271 OA
HETATM    2  N           1     -21.314  -9.679  -0.789  0.00  0.00    -0.336 N 
HETATM    3  C           1     -21.071 -10.640   0.156  0.00  0.00     0.251 C 
HETATM    4  C           1     -21.105  -8.239  -0.666  0.00  0.00     0.188 C 
HETATM    5  C           1     -21.839  -9.871  -2.138  0.00  0.00     0.127 C 
HETATM    6  C           1     -21.021  -8.912  -2.985  0.00  0.00     0.022 C 
HETATM    7  C           1     -20.534  -7.841  -2.017  0.00  0.00     0.038 C 
ENDROOT
BRANCH   3   8
HETATM    8  C           1     -21.351 -12.090  -0.153  0.00  0.00     0.275 C 
BRANCH   8   9
HETATM    9  C           1     -21.738 -12.817   1.129  0.00  0.00     0.046 C 
BRANCH   9  10
HETATM   10  C           1     -23.241 -13.065   1.138  0.00  0.00    -0.020 C 
HETATM   11  C           1     -23.665 -13.659  -0.199  0.00  0.00     0.009 C 
HETATM   12  C           1     -23.587 -14.037   2.258  0.00  0.00     0.009 C 
ENDBRANCH   9  10
ENDBRANCH   8   9
BRANCH   8  13
HETATM   13  N           1     -20.121 -12.723  -0.734  0.00  0.00    -0.066 N 
HETATM   14  H           1     -19.282 -12.412  -0.195  0.00  0.00     0.275 HD
HETATM   15  H           1     -20.019 -12.432  -1.733  0.00  0.00     0.275 HD
HETATM   16  H           1     -20.206 -13.763  -0.681  0.00  0.00     0.275 HD
ENDBRANCH   8  13
ENDBRANCH   3   8
BRANCH   4  17
HETATM   17  C           1     -22.410  -7.527  -0.404  0.00  0.00     0.196 C 
HETATM   18  O           1     -22.700  -6.498  -1.051  0.00  0.00    -0.646 OA
HETATM   19  O           1     -23.198  -7.966   0.461  0.00  0.00    -0.646 OA
ENDBRANCH   4  17
TORSDOF 5
ENDMDL
MODEL 6
REMARK VINA RESULT:      -5.3     17.466     19.797
REMARK  5 active torsions:
REMARK  status: ('A' for Active; 'I' for Inactive)
REMARK    1  A    between atoms: C_1  and  C_11 
REMARK    2  A    between atoms: C_1  and  C_2 
REMARK    3  A    between atoms: N_5  and  C_11 
REMARK    4  A    between atoms: C_7  and  C_15 
REMARK    5  A    between atoms: C_11  and  C_14 
REMARK       I    between atoms: N_13  and  C_14 
ROOT
HETATM    1  O           1     -13.356   6.815 -19.493  0.00  0.00    -0.271 OA
HETATM    2  N           1     -11.557   7.481 -20.638  0.00  0.00    -0.336 N 
HETATM    3  C           1     -12.444   6.521 -20.230  0.00  0.00     0.251 C 
HETATM    4  C           1     -11.559   8.899 -20.288  0.00  0.00     0.188 C 
HETATM    5  C           1     -10.405   7.311 -21.518  0.00  0.00     0.127 C 
HETATM    6  C           1      -9.331   8.176 -20.882  0.00  0.00     0.022 C 
HETATM    7  C           1     -10.090   9.218 -20.069  0.00  0.00     0.038 C 
ENDROOT
BRANCH   3   8
HETATM    8  C           1     -12.283   5.096 -20.698  0.00  0.00     0.275 C 
BRANCH   8   9
HETATM    9  C           1     -13.617   4.371 -20.588  0.00  0.00     0.046 C 
BRANCH   9  10
HETATM   10  C           1     -14.084   3.951 -21.976  0.00  0.00    -0.020 C 
HETATM   11  C           1     -15.033   5.004 -22.532  0.00  0.00     0.009 C 
HETATM   12  C           1     -12.879   3.817 -22.897  0.00  0.00     0.009 C 
ENDBRANCH   9  10
ENDBRANCH   8   9
BRANCH   8  13
HETATM   13  N           1     -11.265   4.402 -19.842  0.00  0.00    -0.066 N 
HETATM   14  H           1     -11.151   4.925 -18.945  0.00  0.00     0.275 HD
HETATM   15  H           1     -10.349   4.371 -20.345  0.00  0.00     0.275 HD
HETATM   16  H           1     -11.585   3.428 -19.641  0.00  0.00     0.275 HD
ENDBRANCH   8  13
ENDBRANCH   3   8
BRANCH   4  17
HETATM   17  C           1     -12.127   9.730 -21.413  0.00  0.00     0.196 C 
HETATM   18  O           1     -11.455  10.665 -21.899  0.00  0.00    -0.646 OA
HETATM   19  O           1     -13.268   9.482 -21.858  0.00  0.00    -0.646 OA
ENDBRANCH   4  17
TORSDOF 5
ENDMDL
MODEL 7
REMARK VINA RESULT:      -5.2     17.544     19.461
REMARK  5 active torsions:
REMARK  status: ('A' for Active; 'I' for Inactive)
REMARK    1  A    between atoms: C_1  and  C_11 
REMARK    2  A    between atoms: C_1  and  C_2 
REMARK    3  A    between atoms: N_5  and  C_11 
REMARK    4  A    between atoms: C_7  and  C_15 
REMARK    5  A    between atoms: C_11  and  C_14 
REMARK       I    between atoms: N_13  and  C_14 
ROOT
HETATM    1  O           1     -12.667   6.497 -19.519  0.00  0.00    -0.271 OA
HETATM    2  N           1     -12.474   5.111 -21.259  0.00  0.00    -0.336 N 
HETATM    3  C           1     -12.491   6.363 -20.707  0.00  0.00     0.251 C 
HETATM    4  C           1     -12.647   3.834 -20.572  0.00  0.00     0.188 C 
HETATM    5  C           1     -12.277   4.760 -22.663  0.00  0.00     0.127 C 
HETATM    6  C           1     -13.269   3.634 -22.899  0.00  0.00     0.022 C 
HETATM    7  C           1     -13.516   3.027 -21.523  0.00  0.00     0.038 C 
ENDROOT
BRANCH   3   8
HETATM    8  C           1     -12.292   7.576 -21.582  0.00  0.00     0.275 C 
BRANCH   8   9
HETATM    9  C           1     -10.863   7.593 -22.109  0.00  0.00     0.046 C 
BRANCH   9  10
HETATM   10  C           1      -9.896   7.805 -20.951  0.00  0.00    -0.020 C 
HETATM   11  C           1      -9.016   6.572 -20.792  0.00  0.00     0.009 C 
HETATM   12  C           1      -9.022   9.019 -21.236  0.00  0.00     0.009 C 
ENDBRANCH   9  10
ENDBRANCH   8   9
BRANCH   8  13
HETATM   13  N           1     -12.541   8.818 -20.777  0.00  0.00    -0.066 N 
HETATM   14  H           1     -11.838   8.881 -20.007  0.00  0.00     0.275 HD
HETATM   15  H           1     -13.502   8.780 -20.367  0.00  0.00     0.275 HD
HETATM   16  H           1     -12.460   9.656 -21.395  0.00  0.00     0.275 HD
ENDBRANCH   8  13
ENDBRANCH   3   8
BRANCH   4  17
HETATM   17  C           1     -11.316   3.155 -20.355  0.00  0.00     0.196 C 
HETATM   18  O           1     -10.417   3.735 -19.709  0.00  0.00    -0.646 OA
HETATM   19  O           1     -11.115   2.013 -20.821  0.00  0.00    -0.646 OA
ENDBRANCH   4  17
TORSDOF 5
ENDMDL
MODEL 8
REMARK VINA RESULT:      -5.1      7.030      8.876
REMARK  5 active torsions:
REMARK  status: ('A' for Active; 'I' for Inactive)
REMARK    1  A    between atoms: C_1  and  C_11 
REMARK    2  A    between atoms: C_1  and  C_2 
REMARK    3  A    between atoms: N_5  and  C_11 
REMARK    4  A    between atoms: C_7  and  C_15 
REMARK    5  A    between atoms: C_11  and  C_14 
REMARK       I    between atoms: N_13  and  C_14 
ROOT
HETATM    1  O           1     -21.344  -7.457  -1.325  0.00  0.00    -0.271 OA
HETATM    2  N           1     -20.278  -9.285  -2.038  0.00  0.00    -0.336 N 
HETATM    3  C           1     -21.068  -8.619  -1.140  0.00  0.00     0.251 C 
HETATM    4  C           1     -19.687  -8.757  -3.265  0.00  0.00     0.188 C 
HETATM    5  C           1     -19.844 -10.678  -1.979  0.00  0.00     0.127 C 
HETATM    6  C           1     -18.398 -10.628  -2.441  0.00  0.00     0.022 C 
HETATM    7  C           1     -18.293  -9.362  -3.283  0.00  0.00     0.038 C 
ENDROOT
BRANCH   3   8
HETATM    8  C           1     -21.592  -9.334   0.080  0.00  0.00     0.275 C 
BRANCH   8   9
HETATM    9  C           1     -23.107  -9.460  -0.017  0.00  0.00     0.046 C 
BRANCH   9  10
HETATM   10  C           1     -23.485 -10.926  -0.188  0.00  0.00    -0.020 C 
HETATM   11  C           1     -23.616 -11.245  -1.671  0.00  0.00     0.009 C 
HETATM   12  C           1     -22.404 -11.804   0.427  0.00  0.00     0.009 C 
ENDBRANCH   9  10
ENDBRANCH   8   9
BRANCH   8  13
HETATM   13  N           1     -21.233  -8.553   1.310  0.00  0.00    -0.066 N 
HETATM   14  H           1     -21.497  -7.551   1.174  0.00  0.00     0.275 HD
HETATM   15  H           1     -20.204  -8.621   1.477  0.00  0.00     0.275 HD
HETATM   16  H           1     -21.747  -8.941   2.132  0.00  0.00     0.275 HD
ENDBRANCH   8  13
ENDBRANCH   3   8
BRANCH   4  17
HETATM   17  C           1     -20.477  -9.195  -4.475  0.00  0.00     0.196 C 
HETATM   18  O           1     -19.885  -9.654  -5.475  0.00  0.00    -0.646 OA
HETATM   19  O           1     -21.723  -9.098  -4.475  0.00  0.00    -0.646 OA
ENDBRANCH   4  17
TORSDOF 5
ENDMDL
MODEL 9
REMARK VINA RESULT:      -5.0      7.576     10.524
REMARK  5 active torsions:
REMARK  status: ('A' for Active; 'I' for Inactive)
REMARK    1  A    between atoms: C_1  and  C_11 
REMARK    2  A    between atoms: C_1  and  C_2 
REMARK    3  A    between atoms: N_5  and  C_11 
REMARK    4  A    between atoms: C_7  and  C_15 
REMARK    5  A    between atoms: C_11  and  C_14 
REMARK       I    between atoms: N_13  and  C_14 
ROOT
HETATM    1  O           1     -21.103  -8.934   0.738  0.00  0.00    -0.271 OA
HETATM    2  N           1     -22.225 -10.448  -0.461  0.00  0.00    -0.336 N 
HETATM    3  C           1     -21.734  -9.186  -0.261  0.00  0.00     0.251 C 
HETATM    4  C           1     -22.083 -11.606   0.417  0.00  0.00     0.188 C 
HETATM    5  C           1     -23.004 -10.930  -1.598  0.00  0.00     0.127 C 
HETATM    6  C           1     -24.052 -11.829  -0.966  0.00  0.00     0.022 C 
HETATM    7  C           1     -23.449 -12.271   0.362  0.00  0.00     0.038 C 
ENDROOT
BRANCH   3   8
HETATM    8  C           1     -21.983  -8.108  -1.288  0.00  0.00     0.275 C 
BRANCH   8   9
HETATM    9  C           1     -20.713  -7.875  -2.096  0.00  0.00     0.046 C 
BRANCH   9  10
HETATM   10  C           1     -21.050  -7.866  -3.581  0.00  0.00    -0.020 C 
HETATM   11  C           1     -21.309  -6.436  -4.035  0.00  0.00     0.009 C 
HETATM   12  C           1     -19.884  -8.445  -4.370  0.00  0.00     0.009 C 
ENDBRANCH   9  10
ENDBRANCH   8   9
BRANCH   8  13
HETATM   13  N           1     -22.374  -6.837  -0.593  0.00  0.00    -0.066 N 
HETATM   14  H           1     -21.522  -6.387  -0.187  0.00  0.00     0.275 HD
HETATM   15  H           1     -23.051  -7.053   0.174  0.00  0.00     0.275 HD
HETATM   16  H           1     -22.819  -6.188  -1.279  0.00  0.00     0.275 HD
ENDBRANCH   8  13
ENDBRANCH   3   8
BRANCH   4  17
HETATM   17  C           1     -21.012 -12.539  -0.092  0.00  0.00     0.196 C 
HETATM   18  O           1     -21.262 -13.754  -0.244  0.00  0.00    -0.646 OA
HETATM   19  O           1     -19.874 -12.096  -0.362  0.00  0.00    -0.646 OA
ENDBRANCH   4  17
TORSDOF 5
ENDMDL
