MODEL 1
REMARK VINA RESULT:      -6.1      0.000      0.000
REMARK  9 active torsions:
REMARK  status: ('A' for Active; 'I' for Inactive)
REMARK    1  A    between atoms: C_1  and  C_2 
REMARK    2  A    between atoms: C_2  and  C_4 
REMARK    3  A    between atoms: C_2  and  N_17 
REMARK    4  A    between atoms: C_4  and  C_5 
REMARK    5  A    between atoms: C_7  and  C_11 
REMARK    6  A    between atoms: C_7  and  C_8 
REMARK    7  A    between atoms: C_7  and  N_21 
REMARK    8  A    between atoms: C_8  and  C_9 
REMARK    9  A    between atoms: C_9  and  Se_10 
REMARK       I    between atoms: C_11  and  N_17 
ROOT
HETATM    1  C           1     -21.776  -4.703  -7.873  0.00  0.00     0.249 C 
HETATM    2  H           1     -22.441  -5.879  -9.441  0.00  0.00     0.163 HD
HETATM    3  O           1     -21.701  -3.577  -7.443  0.00  0.00    -0.271 OA
HETATM    4  N           1     -22.377  -4.935  -9.080  0.00  0.00    -0.344 N 
ENDROOT
BRANCH   1   5
HETATM    5  C           1     -21.207  -5.853  -7.080  0.00  0.00     0.274 C 
BRANCH   5   6
HETATM    6  C           1     -21.305  -5.543  -5.592  0.00  0.00     0.042 C 
BRANCH   6   7
HETATM    7  C           1     -22.205  -6.570  -4.918  0.00  0.00     0.003 C 
BRANCH   7   8
HETATM    8 Se           1     -21.272  -7.352  -3.395  0.00  0.00     0.000 Se
HETATM    9  C           1     -22.142  -6.216  -2.071  0.00  0.00     0.000 C 
ENDBRANCH   7   8
ENDBRANCH   6   7
ENDBRANCH   5   6
BRANCH   5  10
HETATM   10  N           1     -19.767  -6.053  -7.454  0.00  0.00    -0.067 N 
HETATM   11  H           1     -19.679  -6.903  -8.055  0.00  0.00     0.275 HD
HETATM   12  H           1     -19.197  -6.178  -6.587  0.00  0.00     0.275 HD
HETATM   13  H           1     -19.424  -5.218  -7.980  0.00  0.00     0.275 HD
ENDBRANCH   5  10
ENDBRANCH   1   5
BRANCH   4  14
HETATM   14  C           1     -22.925  -3.830  -9.843  0.00  0.00     0.189 C 
BRANCH  14  15
HETATM   15  C           1     -24.427  -3.813  -9.694  0.00  0.00     0.197 C 
HETATM   16  O           1     -25.017  -2.740  -9.444  0.00  0.00    -0.646 OA
HETATM   17  O           1     -25.080  -4.871  -9.822  0.00  0.00    -0.646 OA
ENDBRANCH  14  15
BRANCH  14  18
HETATM   18  C           1     -22.562  -3.998 -11.312  0.00  0.00     0.014 C 
HETATM   19  C           1     -22.925  -2.729 -12.073  0.00  0.00     0.012 C 
BRANCH  18  20
HETATM   20  C           1     -21.067  -4.256 -11.438  0.00  0.00     0.002 C 
HETATM   21  C           1     -20.302  -2.978 -11.118  0.00  0.00     0.005 C 
ENDBRANCH  18  20
ENDBRANCH  14  18
ENDBRANCH   4  14
TORSDOF 9
ENDMDL
MODEL 2
REMARK VINA RESULT:      -5.4      3.457      7.277
REMARK  9 active torsions:
REMARK  status: ('A' for Active; 'I' for Inactive)
REMARK    1  A    between atoms: C_1  and  C_2 
REMARK    2  A    between atoms: C_2  and  C_4 
REMARK    3  A    between atoms: C_2  and  N_17 
REMARK    4  A    between atoms: C_4  and  C_5 
REMARK    5  A    between atoms: C_7  and  C_11 
REMARK    6  A    between atoms: C_7  and  C_8 
REMARK    7  A    between atoms: C_7  and  N_21 
REMARK    8  A    between atoms: C_8  and  C_9 
REMARK    9  A    between atoms: C_9  and  Se_10 
REMARK       I    between atoms: C_11  and  N_17 
ROOT
HETATM    1  C           1     -21.022  -5.366  -6.224  0.00  0.00     0.249 C 
HETATM    2  H           1     -22.433  -6.808  -5.757  0.00  0.00     0.163 HD
HETATM    3  O           1     -19.892  -4.988  -6.030  0.00  0.00    -0.271 OA
HETATM    4  N           1     -21.485  -6.490  -5.596  0.00  0.00    -0.344 N 
ENDROOT
BRANCH   1   5
HETATM    5  C           1     -21.925  -4.598  -7.157  0.00  0.00     0.274 C 
BRANCH   5   6
HETATM    6  C           1     -21.716  -5.087  -8.585  0.00  0.00     0.042 C 
BRANCH   6   7
HETATM    7  C           1     -22.532  -4.227  -9.541  0.00  0.00     0.003 C 
BRANCH   7   8
HETATM    8 Se           1     -21.514  -3.929 -11.177  0.00  0.00     0.000 Se
HETATM    9  C           1     -22.807  -2.693 -11.950  0.00  0.00     0.000 C 
ENDBRANCH   7   8
ENDBRANCH   6   7
ENDBRANCH   5   6
BRANCH   5  10
HETATM   10  N           1     -21.598  -3.135  -7.078  0.00  0.00    -0.067 N 
HETATM   11  H           1     -20.647  -3.014  -6.662  0.00  0.00     0.275 HD
HETATM   12  H           1     -22.307  -2.653  -6.480  0.00  0.00     0.275 HD
HETATM   13  H           1     -21.613  -2.723  -8.038  0.00  0.00     0.275 HD
ENDBRANCH   5  10
ENDBRANCH   1   5
BRANCH   4  14
HETATM   14  C           1     -20.618  -7.229  -4.698  0.00  0.00     0.189 C 
BRANCH  14  15
HETATM   15  C           1     -20.189  -8.516  -5.360  0.00  0.00     0.197 C 
HETATM   16  O           1     -18.978  -8.729  -5.585  0.00  0.00    -0.646 OA
HETATM   17  O           1     -21.045  -9.369  -5.682  0.00  0.00    -0.646 OA
ENDBRANCH  14  15
BRANCH  14  18
HETATM   18  C           1     -21.370  -7.545  -3.412  0.00  0.00     0.014 C 
HETATM   19  C           1     -20.440  -8.269  -2.446  0.00  0.00     0.012 C 
BRANCH  18  20
HETATM   20  C           1     -21.854  -6.249  -2.776  0.00  0.00     0.002 C 
HETATM   21  C           1     -22.281  -6.516  -1.339  0.00  0.00     0.005 C 
ENDBRANCH  18  20
ENDBRANCH  14  18
ENDBRANCH   4  14
TORSDOF 9
ENDMDL
MODEL 3
REMARK VINA RESULT:      -5.2      2.391      3.207
REMARK  9 active torsions:
REMARK  status: ('A' for Active; 'I' for Inactive)
REMARK    1  A    between atoms: C_1  and  C_2 
REMARK    2  A    between atoms: C_2  and  C_4 
REMARK    3  A    between atoms: C_2  and  N_17 
REMARK    4  A    between atoms: C_4  and  C_5 
REMARK    5  A    between atoms: C_7  and  C_11 
REMARK    6  A    between atoms: C_7  and  C_8 
REMARK    7  A    between atoms: C_7  and  N_21 
REMARK    8  A    between atoms: C_8  and  C_9 
REMARK    9  A    between atoms: C_9  and  Se_10 
REMARK       I    between atoms: C_11  and  N_17 
ROOT
HETATM    1  C           1     -21.282  -5.835  -6.770  0.00  0.00     0.249 C 
HETATM    2  H           1     -22.446  -4.173  -7.181  0.00  0.00     0.163 HD
HETATM    3  O           1     -20.577  -6.692  -7.247  0.00  0.00    -0.271 OA
HETATM    4  N           1     -21.855  -4.892  -7.580  0.00  0.00    -0.344 N 
ENDROOT
BRANCH   1   5
HETATM    5  C           1     -21.532  -5.804  -5.283  0.00  0.00     0.274 C 
BRANCH   5   6
HETATM    6  C           1     -20.655  -6.844  -4.598  0.00  0.00     0.042 C 
BRANCH   6   7
HETATM    7  C           1     -21.534  -7.816  -3.821  0.00  0.00     0.003 C 
BRANCH   7   8
HETATM    8 Se           1     -20.964  -7.858  -1.956  0.00  0.00     0.000 Se
HETATM    9  C           1     -22.286  -6.560  -1.353  0.00  0.00     0.000 C 
ENDBRANCH   7   8
ENDBRANCH   6   7
ENDBRANCH   5   6
BRANCH   5  10
HETATM   10  N           1     -22.975  -6.111  -5.011  0.00  0.00    -0.067 N 
HETATM   11  H           1     -23.558  -5.781  -5.814  0.00  0.00     0.275 HD
HETATM   12  H           1     -23.276  -5.624  -4.137  0.00  0.00     0.275 HD
HETATM   13  H           1     -23.096  -7.143  -4.895  0.00  0.00     0.275 HD
ENDBRANCH   5  10
ENDBRANCH   1   5
BRANCH   4  14
HETATM   14  C           1     -21.615  -4.921  -9.010  0.00  0.00     0.189 C 
BRANCH  14  15
HETATM   15  C           1     -20.218  -4.428  -9.295  0.00  0.00     0.197 C 
HETATM   16  O           1     -19.659  -3.642  -8.501  0.00  0.00    -0.646 OA
HETATM   17  O           1     -19.619  -4.807 -10.325  0.00  0.00    -0.646 OA
ENDBRANCH  14  15
BRANCH  14  18
HETATM   18  C           1     -22.624  -4.022  -9.712  0.00  0.00     0.014 C 
HETATM   19  C           1     -23.146  -4.722 -10.960  0.00  0.00     0.012 C 
BRANCH  18  20
HETATM   20  C           1     -23.784  -3.730  -8.770  0.00  0.00     0.002 C 
HETATM   21  C           1     -25.009  -3.328  -9.581  0.00  0.00     0.005 C 
ENDBRANCH  18  20
ENDBRANCH  14  18
ENDBRANCH   4  14
TORSDOF 9
ENDMDL
MODEL 4
REMARK VINA RESULT:      -5.2      3.645      7.253
REMARK  9 active torsions:
REMARK  status: ('A' for Active; 'I' for Inactive)
REMARK    1  A    between atoms: C_1  and  C_2 
REMARK    2  A    between atoms: C_2  and  C_4 
REMARK    3  A    between atoms: C_2  and  N_17 
REMARK    4  A    between atoms: C_4  and  C_5 
REMARK    5  A    between atoms: C_7  and  C_11 
REMARK    6  A    between atoms: C_7  and  C_8 
REMARK    7  A    between atoms: C_7  and  N_21 
REMARK    8  A    between atoms: C_8  and  C_9 
REMARK    9  A    between atoms: C_9  and  Se_10 
REMARK       I    between atoms: C_11  and  N_17 
ROOT
HETATM    1  C           1     -21.422  -5.982  -5.450  0.00  0.00     0.249 C 
HETATM    2  H           1     -19.784  -6.863  -4.542  0.00  0.00     0.163 HD
HETATM    3  O           1     -22.628  -5.920  -5.470  0.00  0.00    -0.271 OA
HETATM    4  N           1     -20.794  -6.810  -4.559  0.00  0.00    -0.344 N 
ENDROOT
BRANCH   1   5
HETATM    5  C           1     -20.607  -5.147  -6.406  0.00  0.00     0.274 C 
BRANCH   5   6
HETATM    6  C           1     -21.514  -4.143  -7.106  0.00  0.00     0.042 C 
BRANCH   6   7
HETATM    7  C           1     -21.469  -4.379  -8.610  0.00  0.00     0.003 C 
BRANCH   7   8
HETATM    8 Se           1     -23.181  -3.878  -9.397  0.00  0.00     0.000 Se
HETATM    9  C           1     -22.418  -3.318 -11.101  0.00  0.00     0.000 C 
ENDBRANCH   7   8
ENDBRANCH   6   7
ENDBRANCH   5   6
BRANCH   5  10
HETATM   10  N           1     -19.969  -6.040  -7.430  0.00  0.00    -0.067 N 
HETATM   11  H           1     -19.287  -6.677  -6.959  0.00  0.00     0.275 HD
HETATM   12  H           1     -19.470  -5.455  -8.139  0.00  0.00     0.275 HD
HETATM   13  H           1     -20.706  -6.609  -7.904  0.00  0.00     0.275 HD
ENDBRANCH   5  10
ENDBRANCH   1   5
BRANCH   4  14
HETATM   14  C           1     -21.577  -7.613  -3.639  0.00  0.00     0.189 C 
BRANCH  14  15
HETATM   15  C           1     -21.646  -6.919  -2.301  0.00  0.00     0.197 C 
HETATM   16  O           1     -22.288  -5.854  -2.183  0.00  0.00    -0.646 OA
HETATM   17  O           1     -21.062  -7.411  -1.311  0.00  0.00    -0.646 OA
ENDBRANCH  14  15
BRANCH  14  18
HETATM   18  C           1     -20.921  -8.977  -3.472  0.00  0.00     0.014 C 
HETATM   19  C           1     -21.814 -10.048  -4.085  0.00  0.00     0.012 C 
BRANCH  18  20
HETATM   20  C           1     -19.570  -8.979  -4.173  0.00  0.00     0.002 C 
HETATM   21  C           1     -18.481  -9.354  -3.176  0.00  0.00     0.005 C 
ENDBRANCH  18  20
ENDBRANCH  14  18
ENDBRANCH   4  14
TORSDOF 9
ENDMDL
MODEL 5
REMARK VINA RESULT:      -5.0      5.117      9.393
REMARK  9 active torsions:
REMARK  status: ('A' for Active; 'I' for Inactive)
REMARK    1  A    between atoms: C_1  and  C_2 
REMARK    2  A    between atoms: C_2  and  C_4 
REMARK    3  A    between atoms: C_2  and  N_17 
REMARK    4  A    between atoms: C_4  and  C_5 
REMARK    5  A    between atoms: C_7  and  C_11 
REMARK    6  A    between atoms: C_7  and  C_8 
REMARK    7  A    between atoms: C_7  and  N_21 
REMARK    8  A    between atoms: C_8  and  C_9 
REMARK    9  A    between atoms: C_9  and  Se_10 
REMARK       I    between atoms: C_11  and  N_17 
ROOT
HETATM    1  C           1     -21.389  -7.834  -2.880  0.00  0.00     0.249 C 
HETATM    2  H           1     -22.113  -9.771  -2.778  0.00  0.00     0.163 HD
HETATM    3  O           1     -20.814  -6.960  -2.277  0.00  0.00    -0.271 OA
HETATM    4  N           1     -21.631  -9.038  -2.274  0.00  0.00    -0.344 N 
ENDROOT
BRANCH   1   5
HETATM    5  C           1     -21.843  -7.599  -4.299  0.00  0.00     0.274 C 
BRANCH   5   6
HETATM    6  C           1     -20.627  -7.433  -5.201  0.00  0.00     0.042 C 
BRANCH   6   7
HETATM    7  C           1     -20.967  -6.484  -6.342  0.00  0.00     0.003 C 
BRANCH   7   8
HETATM    8 Se           1     -19.975  -4.820  -6.120  0.00  0.00     0.000 Se
HETATM    9  C           1     -21.214  -3.749  -7.177  0.00  0.00     0.000 C 
ENDBRANCH   7   8
ENDBRANCH   6   7
ENDBRANCH   5   6
BRANCH   5  10
HETATM   10  N           1     -22.680  -6.355  -4.357  0.00  0.00    -0.067 N 
HETATM   11  H           1     -22.313  -5.657  -3.672  0.00  0.00     0.275 HD
HETATM   12  H           1     -23.670  -6.591  -4.119  0.00  0.00     0.275 HD
HETATM   13  H           1     -22.640  -5.952  -5.320  0.00  0.00     0.275 HD
ENDBRANCH   5  10
ENDBRANCH   1   5
BRANCH   4  14
HETATM   14  C           1     -21.194  -9.264  -0.910  0.00  0.00     0.189 C 
BRANCH  14  15
HETATM   15  C           1     -20.260 -10.448  -0.871  0.00  0.00     0.197 C 
HETATM   16  O           1     -19.724 -10.855  -1.924  0.00  0.00    -0.646 OA
HETATM   17  O           1     -20.021 -11.021   0.214  0.00  0.00    -0.646 OA
ENDBRANCH  14  15
BRANCH  14  18
HETATM   18  C           1     -22.406  -9.543  -0.030  0.00  0.00     0.014 C 
HETATM   19  C           1     -23.068  -8.226   0.355  0.00  0.00     0.012 C 
BRANCH  18  20
HETATM   20  C           1     -23.399 -10.407  -0.794  0.00  0.00     0.002 C 
HETATM   21  C           1     -23.742 -11.640   0.032  0.00  0.00     0.005 C 
ENDBRANCH  18  20
ENDBRANCH  14  18
ENDBRANCH   4  14
TORSDOF 9
ENDMDL
MODEL 6
REMARK VINA RESULT:      -5.0      2.276      3.389
REMARK  9 active torsions:
REMARK  status: ('A' for Active; 'I' for Inactive)
REMARK    1  A    between atoms: C_1  and  C_2 
REMARK    2  A    between atoms: C_2  and  C_4 
REMARK    3  A    between atoms: C_2  and  N_17 
REMARK    4  A    between atoms: C_4  and  C_5 
REMARK    5  A    between atoms: C_7  and  C_11 
REMARK    6  A    between atoms: C_7  and  C_8 
REMARK    7  A    between atoms: C_7  and  N_21 
REMARK    8  A    between atoms: C_8  and  C_9 
REMARK    9  A    between atoms: C_9  and  Se_10 
REMARK       I    between atoms: C_11  and  N_17 
ROOT
HETATM    1  C           1     -20.976  -6.380  -5.227  0.00  0.00     0.249 C 
HETATM    2  H           1     -20.993  -6.684  -7.274  0.00  0.00     0.163 HD
HETATM    3  O           1     -21.015  -5.551  -4.349  0.00  0.00    -0.271 OA
HETATM    4  N           1     -21.026  -5.990  -6.538  0.00  0.00    -0.344 N 
ENDROOT
BRANCH   1   5
HETATM    5  C           1     -20.870  -7.844  -4.879  0.00  0.00     0.274 C 
BRANCH   5   6
HETATM    6  C           1     -20.638  -7.995  -3.381  0.00  0.00     0.042 C 
BRANCH   6   7
HETATM    7  C           1     -21.403  -9.209  -2.869  0.00  0.00     0.003 C 
BRANCH   7   8
HETATM    8 Se           1     -22.000  -8.878  -1.042  0.00  0.00     0.000 Se
HETATM    9  C           1     -22.173  -6.951  -1.275  0.00  0.00     0.000 C 
ENDBRANCH   7   8
ENDBRANCH   6   7
ENDBRANCH   5   6
BRANCH   5  10
HETATM   10  N           1     -19.720  -8.454  -5.626  0.00  0.00    -0.067 N 
HETATM   11  H           1     -19.738  -9.491  -5.503  0.00  0.00     0.275 HD
HETATM   12  H           1     -18.822  -8.072  -5.252  0.00  0.00     0.275 HD
HETATM   13  H           1     -19.802  -8.222  -6.641  0.00  0.00     0.275 HD
ENDBRANCH   5  10
ENDBRANCH   1   5
BRANCH   4  14
HETATM   14  C           1     -21.127  -4.583  -6.873  0.00  0.00     0.189 C 
BRANCH  14  15
HETATM   15  C           1     -22.528  -4.279  -7.345  0.00  0.00     0.197 C 
HETATM   16  O           1     -22.706  -3.609  -8.385  0.00  0.00    -0.646 OA
HETATM   17  O           1     -23.511  -4.698  -6.696  0.00  0.00    -0.646 OA
ENDBRANCH  14  15
BRANCH  14  18
HETATM   18  C           1     -20.135  -4.253  -7.980  0.00  0.00     0.014 C 
HETATM   19  C           1     -18.722  -4.250  -7.411  0.00  0.00     0.012 C 
BRANCH  18  20
HETATM   20  C           1     -20.237  -5.299  -9.082  0.00  0.00     0.002 C 
HETATM   21  C           1     -20.080  -4.626 -10.439  0.00  0.00     0.005 C 
ENDBRANCH  18  20
ENDBRANCH  14  18
ENDBRANCH   4  14
TORSDOF 9
ENDMDL
MODEL 7
REMARK VINA RESULT:      -4.8      8.241      9.820
REMARK  9 active torsions:
REMARK  status: ('A' for Active; 'I' for Inactive)
REMARK    1  A    between atoms: C_1  and  C_2 
REMARK    2  A    between atoms: C_2  and  C_4 
REMARK    3  A    between atoms: C_2  and  N_17 
REMARK    4  A    between atoms: C_4  and  C_5 
REMARK    5  A    between atoms: C_7  and  C_11 
REMARK    6  A    between atoms: C_7  and  C_8 
REMARK    7  A    between atoms: C_7  and  N_21 
REMARK    8  A    between atoms: C_8  and  C_9 
REMARK    9  A    between atoms: C_9  and  Se_10 
REMARK       I    between atoms: C_11  and  N_17 
ROOT
HETATM    1  C           1     -19.808 -10.701  -1.349  0.00  0.00     0.249 C 
HETATM    2  H           1     -21.160  -9.666  -2.528  0.00  0.00     0.163 HD
HETATM    3  O           1     -19.597 -11.153  -0.250  0.00  0.00    -0.271 OA
HETATM    4  N           1     -20.982 -10.046  -1.606  0.00  0.00    -0.344 N 
ENDROOT
BRANCH   1   5
HETATM    5  C           1     -18.777 -10.855  -2.440  0.00  0.00     0.274 C 
BRANCH   5   6
HETATM    6  C           1     -18.223  -9.487  -2.815  0.00  0.00     0.042 C 
BRANCH   6   7
HETATM    7  C           1     -16.704  -9.557  -2.891  0.00  0.00     0.003 C 
BRANCH   7   8
HETATM    8 Se           1     -16.078 -11.133  -1.929  0.00  0.00     0.000 Se
HETATM    9  C           1     -15.055 -11.843  -3.429  0.00  0.00     0.000 C 
ENDBRANCH   7   8
ENDBRANCH   6   7
ENDBRANCH   5   6
BRANCH   5  10
HETATM   10  N           1     -19.414 -11.484  -3.645  0.00  0.00    -0.067 N 
HETATM   11  H           1     -18.793 -11.350  -4.475  0.00  0.00     0.275 HD
HETATM   12  H           1     -20.339 -11.032  -3.823  0.00  0.00     0.275 HD
HETATM   13  H           1     -19.551 -12.505  -3.473  0.00  0.00     0.275 HD
ENDBRANCH   5  10
ENDBRANCH   1   5
BRANCH   4  14
HETATM   14  C           1     -21.974  -9.897  -0.559  0.00  0.00     0.189 C 
BRANCH  14  15
HETATM   15  C           1     -23.224 -10.651  -0.940  0.00  0.00     0.197 C 
HETATM   16  O           1     -24.148 -10.789  -0.109  0.00  0.00    -0.646 OA
HETATM   17  O           1     -23.336 -11.138  -2.086  0.00  0.00    -0.646 OA
ENDBRANCH  14  15
BRANCH  14  18
HETATM   18  C           1     -22.305  -8.421  -0.380  0.00  0.00     0.014 C 
HETATM   19  C           1     -21.972  -7.995   1.044  0.00  0.00     0.012 C 
BRANCH  18  20
HETATM   20  C           1     -21.486  -7.596  -1.362  0.00  0.00     0.002 C 
HETATM   21  C           1     -22.244  -6.322  -1.712  0.00  0.00     0.005 C 
ENDBRANCH  18  20
ENDBRANCH  14  18
ENDBRANCH   4  14
TORSDOF 9
ENDMDL
MODEL 8
REMARK VINA RESULT:      -4.7      4.194      8.016
REMARK  9 active torsions:
REMARK  status: ('A' for Active; 'I' for Inactive)
REMARK    1  A    between atoms: C_1  and  C_2 
REMARK    2  A    between atoms: C_2  and  C_4 
REMARK    3  A    between atoms: C_2  and  N_17 
REMARK    4  A    between atoms: C_4  and  C_5 
REMARK    5  A    between atoms: C_7  and  C_11 
REMARK    6  A    between atoms: C_7  and  C_8 
REMARK    7  A    between atoms: C_7  and  N_21 
REMARK    8  A    between atoms: C_8  and  C_9 
REMARK    9  A    between atoms: C_9  and  Se_10 
REMARK       I    between atoms: C_11  and  N_17 
ROOT
HETATM    1  C           1     -20.788  -7.638  -5.273  0.00  0.00     0.249 C 
HETATM    2  H           1     -22.403  -7.708  -3.981  0.00  0.00     0.163 HD
HETATM    3  O           1     -19.728  -8.141  -5.561  0.00  0.00    -0.271 OA
HETATM    4  N           1     -21.515  -8.128  -4.222  0.00  0.00    -0.344 N 
ENDROOT
BRANCH   1   5
HETATM    5  C           1     -21.310  -6.470  -6.072  0.00  0.00     0.274 C 
BRANCH   5   6
HETATM    6  C           1     -20.239  -5.391  -6.156  0.00  0.00     0.042 C 
BRANCH   6   7
HETATM    7  C           1     -19.844  -5.179  -7.611  0.00  0.00     0.003 C 
BRANCH   7   8
HETATM    8 Se           1     -21.345  -4.402  -8.584  0.00  0.00     0.000 Se
HETATM    9  C           1     -20.435  -4.395 -10.308  0.00  0.00     0.000 C 
ENDBRANCH   7   8
ENDBRANCH   6   7
ENDBRANCH   5   6
BRANCH   5  10
HETATM   10  N           1     -22.530  -5.911  -5.400  0.00  0.00    -0.067 N 
HETATM   11  H           1     -22.810  -6.536  -4.611  0.00  0.00     0.275 HD
HETATM   12  H           1     -23.311  -5.850  -6.092  0.00  0.00     0.275 HD
HETATM   13  H           1     -22.317  -4.957  -5.029  0.00  0.00     0.275 HD
ENDBRANCH   5  10
ENDBRANCH   1   5
BRANCH   4  14
HETATM   14  C           1     -21.013  -9.252  -3.454  0.00  0.00     0.189 C 
BRANCH  14  15
HETATM   15  C           1     -21.646 -10.526  -3.956  0.00  0.00     0.197 C 
HETATM   16  O           1     -22.829 -10.797  -3.655  0.00  0.00    -0.646 OA
HETATM   17  O           1     -20.988 -11.311  -4.674  0.00  0.00    -0.646 OA
ENDBRANCH  14  15
BRANCH  14  18
HETATM   18  C           1     -21.361  -9.056  -1.984  0.00  0.00     0.014 C 
HETATM   19  C           1     -20.490  -9.971  -1.132  0.00  0.00     0.012 C 
BRANCH  18  20
HETATM   20  C           1     -21.111  -7.607  -1.593  0.00  0.00     0.002 C 
HETATM   21  C           1     -22.324  -7.065  -0.849  0.00  0.00     0.005 C 
ENDBRANCH  18  20
ENDBRANCH  14  18
ENDBRANCH   4  14
TORSDOF 9
ENDMDL
MODEL 9
REMARK VINA RESULT:      -4.7      5.365      9.405
REMARK  9 active torsions:
REMARK  status: ('A' for Active; 'I' for Inactive)
REMARK    1  A    between atoms: C_1  and  C_2 
REMARK    2  A    between atoms: C_2  and  C_4 
REMARK    3  A    between atoms: C_2  and  N_17 
REMARK    4  A    between atoms: C_4  and  C_5 
REMARK    5  A    between atoms: C_7  and  C_11 
REMARK    6  A    between atoms: C_7  and  C_8 
REMARK    7  A    between atoms: C_7  and  N_21 
REMARK    8  A    between atoms: C_8  and  C_9 
REMARK    9  A    between atoms: C_9  and  Se_10 
REMARK       I    between atoms: C_11  and  N_17 
ROOT
HETATM    1  C           1     -21.498  -7.882  -2.416  0.00  0.00     0.249 C 
HETATM    2  H           1     -21.024  -9.897  -2.385  0.00  0.00     0.163 HD
HETATM    3  O           1     -22.088  -6.995  -1.848  0.00  0.00    -0.271 OA
HETATM    4  N           1     -21.519  -9.153  -1.909  0.00  0.00    -0.344 N 
ENDROOT
BRANCH   1   5
HETATM    5  C           1     -20.737  -7.589  -3.686  0.00  0.00     0.274 C 
BRANCH   5   6
HETATM    6  C           1     -21.693  -7.621  -4.871  0.00  0.00     0.042 C 
BRANCH   6   7
HETATM    7  C           1     -22.073  -6.196  -5.255  0.00  0.00     0.003 C 
BRANCH   7   8
HETATM    8 Se           1     -20.456  -5.170  -5.622  0.00  0.00     0.000 Se
HETATM    9  C           1     -21.256  -4.111  -7.049  0.00  0.00     0.000 C 
ENDBRANCH   7   8
ENDBRANCH   6   7
ENDBRANCH   5   6
BRANCH   5  10
HETATM   10  N           1     -19.669  -8.626  -3.879  0.00  0.00    -0.067 N 
HETATM   11  H           1     -18.732  -8.197  -3.701  0.00  0.00     0.275 HD
HETATM   12  H           1     -19.708  -8.986  -4.859  0.00  0.00     0.275 HD
HETATM   13  H           1     -19.823  -9.414  -3.210  0.00  0.00     0.275 HD
ENDBRANCH   5  10
ENDBRANCH   1   5
BRANCH   4  14
HETATM   14  C           1     -22.250  -9.435  -0.689  0.00  0.00     0.189 C 
BRANCH  14  15
HETATM   15  C           1     -21.307  -9.374   0.487  0.00  0.00     0.197 C 
HETATM   16  O           1     -20.610 -10.368   0.781  0.00  0.00    -0.646 OA
HETATM   17  O           1     -21.222  -8.328   1.167  0.00  0.00    -0.646 OA
ENDBRANCH  14  15
BRANCH  14  18
HETATM   18  C           1     -22.865 -10.826  -0.776  0.00  0.00     0.014 C 
HETATM   19  C           1     -24.189 -10.844  -0.022  0.00  0.00     0.012 C 
BRANCH  18  20
HETATM   20  C           1     -23.106 -11.183  -2.236  0.00  0.00     0.002 C 
HETATM   21  C           1     -22.724 -12.638  -2.473  0.00  0.00     0.005 C 
ENDBRANCH  18  20
ENDBRANCH  14  18
ENDBRANCH   4  14
TORSDOF 9
ENDMDL
