MODEL 1
REMARK VINA RESULT:      -6.0      0.000      0.000
REMARK  8 active torsions:
REMARK  status: ('A' for Active; 'I' for Inactive)
REMARK    1  A    between atoms: C_2  and  C_17 
REMARK    2  A    between atoms: C_2  and  C_10 
REMARK       I    between atoms: C_9  and  N_13 
REMARK    3  A    between atoms: C_9  and  C_16 
REMARK    4  A    between atoms: C_10  and  N_11 
REMARK    5  A    between atoms: C_12  and  C_18 
REMARK    6  A    between atoms: C_12  and  N_13 
REMARK    7  A    between atoms: N_14  and  C_16 
REMARK    8  A    between atoms: C_16  and  C_17 
ROOT
HETATM    1  C           1     -23.235  -3.648  -9.107  0.00  0.00     0.274 C 
ENDROOT
BRANCH   1   2
HETATM    2  C           1     -24.154  -3.357 -10.269  0.00  0.00     0.248 C 
HETATM    3  O           1     -25.344  -3.260 -10.086  0.00  0.00    -0.271 OA
HETATM    4  N           1     -23.638  -3.204 -11.527  0.00  0.00    -0.349 N 
HETATM    5  H           1     -22.641  -3.286 -11.679  0.00  0.00     0.163 HD
BRANCH   4   6
HETATM    6  C           1     -24.522  -2.925 -12.643  0.00  0.00     0.235 C 
BRANCH   6   7
HETATM    7  C           1     -23.710  -2.438 -13.818  0.00  0.00     0.191 C 
HETATM    8  O           1     -22.562  -2.893 -14.015  0.00  0.00    -0.647 OA
HETATM    9  O           1     -24.184  -1.581 -14.594  0.00  0.00    -0.647 OA
ENDBRANCH   6   7
ENDBRANCH   4   6
ENDBRANCH   1   2
BRANCH   1  10
HETATM   10  N           1     -24.049  -4.070  -7.920  0.00  0.00    -0.067 N 
HETATM   11  H           1     -24.725  -4.813  -8.209  0.00  0.00     0.275 HD
HETATM   12  H           1     -23.416  -4.442  -7.178  0.00  0.00     0.275 HD
HETATM   13  H           1     -24.575  -3.247  -7.548  0.00  0.00     0.275 HD
ENDBRANCH   1  10
BRANCH   1  14
HETATM   14  C           1     -22.274  -4.768  -9.486  0.00  0.00     0.044 C 
BRANCH  14  15
HETATM   15  C           1     -20.847  -4.238  -9.477  0.00  0.00     0.030 C 
BRANCH  15  16
HETATM   16  C           1     -20.255  -4.342 -10.877  0.00  0.00     0.230 C 
BRANCH  16  17
HETATM   17  N           1     -20.418  -3.030 -11.586  0.00  0.00    -0.079 N 
HETATM   18  H           1     -20.507  -3.199 -12.614  0.00  0.00     0.274 HD
HETATM   19  H           1     -21.277  -2.549 -11.237  0.00  0.00     0.274 HD
HETATM   20  H           1     -19.583  -2.430 -11.403  0.00  0.00     0.274 HD
ENDBRANCH  16  17
ENDBRANCH  15  16
ENDBRANCH  14  15
ENDBRANCH   1  14
TORSDOF 8
ENDMDL
MODEL 2
REMARK VINA RESULT:      -5.8      1.289      2.844
REMARK  8 active torsions:
REMARK  status: ('A' for Active; 'I' for Inactive)
REMARK    1  A    between atoms: C_2  and  C_17 
REMARK    2  A    between atoms: C_2  and  C_10 
REMARK       I    between atoms: C_9  and  N_13 
REMARK    3  A    between atoms: C_9  and  C_16 
REMARK    4  A    between atoms: C_10  and  N_11 
REMARK    5  A    between atoms: C_12  and  C_18 
REMARK    6  A    between atoms: C_12  and  N_13 
REMARK    7  A    between atoms: N_14  and  C_16 
REMARK    8  A    between atoms: C_16  and  C_17 
ROOT
HETATM    1  C           1     -21.387  -4.246 -10.740  0.00  0.00     0.274 C 
ENDROOT
BRANCH   1   2
HETATM    2  C           1     -22.647  -3.663 -11.334  0.00  0.00     0.248 C 
HETATM    3  O           1     -23.659  -3.618 -10.676  0.00  0.00    -0.271 OA
HETATM    4  N           1     -22.642  -3.188 -12.618  0.00  0.00    -0.349 N 
HETATM    5  H           1     -21.794  -3.227 -13.168  0.00  0.00     0.163 HD
BRANCH   4   6
HETATM    6  C           1     -23.852  -2.629 -13.189  0.00  0.00     0.235 C 
BRANCH   6   7
HETATM    7  C           1     -23.551  -2.070 -14.557  0.00  0.00     0.191 C 
HETATM    8  O           1     -24.186  -1.079 -14.981  0.00  0.00    -0.647 OA
HETATM    9  O           1     -22.668  -2.597 -15.268  0.00  0.00    -0.647 OA
ENDBRANCH   6   7
ENDBRANCH   4   6
ENDBRANCH   1   2
BRANCH   1  10
HETATM   10  N           1     -20.198  -3.751 -11.510  0.00  0.00    -0.067 N 
HETATM   11  H           1     -19.770  -2.942 -11.005  0.00  0.00     0.275 HD
HETATM   12  H           1     -19.496  -4.519 -11.597  0.00  0.00     0.275 HD
HETATM   13  H           1     -20.501  -3.447 -12.462  0.00  0.00     0.275 HD
ENDBRANCH   1  10
BRANCH   1  14
HETATM   14  C           1     -21.265  -3.813  -9.285  0.00  0.00     0.044 C 
BRANCH  14  15
HETATM   15  C           1     -21.534  -5.005  -8.377  0.00  0.00     0.030 C 
BRANCH  15  16
HETATM   16  C           1     -22.413  -4.568  -7.211  0.00  0.00     0.230 C 
BRANCH  16  17
HETATM   17  N           1     -23.759  -4.154  -7.727  0.00  0.00    -0.079 N 
HETATM   18  H           1     -24.367  -4.998  -7.829  0.00  0.00     0.274 HD
HETATM   19  H           1     -24.199  -3.487  -7.054  0.00  0.00     0.274 HD
HETATM   20  H           1     -23.647  -3.690  -8.656  0.00  0.00     0.274 HD
ENDBRANCH  16  17
ENDBRANCH  15  16
ENDBRANCH  14  15
ENDBRANCH   1  14
TORSDOF 8
ENDMDL
MODEL 3
REMARK VINA RESULT:      -5.7     11.412     12.493
REMARK  8 active torsions:
REMARK  status: ('A' for Active; 'I' for Inactive)
REMARK    1  A    between atoms: C_2  and  C_17 
REMARK    2  A    between atoms: C_2  and  C_10 
REMARK       I    between atoms: C_9  and  N_13 
REMARK    3  A    between atoms: C_9  and  C_16 
REMARK    4  A    between atoms: C_10  and  N_11 
REMARK    5  A    between atoms: C_12  and  C_18 
REMARK    6  A    between atoms: C_12  and  N_13 
REMARK    7  A    between atoms: N_14  and  C_16 
REMARK    8  A    between atoms: C_16  and  C_17 
ROOT
HETATM    1  C           1     -34.474  -1.665 -12.017  0.00  0.00     0.274 C 
ENDROOT
BRANCH   1   2
HETATM    2  C           1     -35.409  -1.076 -13.044  0.00  0.00     0.248 C 
HETATM    3  O           1     -36.605  -1.166 -12.894  0.00  0.00    -0.271 OA
HETATM    4  N           1     -34.903  -0.439 -14.145  0.00  0.00    -0.349 N 
HETATM    5  H           1     -33.902  -0.364 -14.270  0.00  0.00     0.163 HD
BRANCH   4   6
HETATM    6  C           1     -35.802   0.127 -15.132  0.00  0.00     0.235 C 
BRANCH   6   7
HETATM    7  C           1     -35.873  -0.786 -16.331  0.00  0.00     0.191 C 
HETATM    8  O           1     -36.874  -0.758 -17.079  0.00  0.00    -0.647 OA
HETATM    9  O           1     -34.932  -1.572 -16.575  0.00  0.00    -0.647 OA
ENDBRANCH   6   7
ENDBRANCH   4   6
ENDBRANCH   1   2
BRANCH   1  10
HETATM   10  N           1     -35.080  -1.524 -10.651  0.00  0.00    -0.067 N 
HETATM   11  H           1     -35.484  -2.441 -10.355  0.00  0.00     0.275 HD
HETATM   12  H           1     -34.343  -1.230  -9.972  0.00  0.00     0.275 HD
HETATM   13  H           1     -35.836  -0.803 -10.678  0.00  0.00     0.275 HD
ENDBRANCH   1  10
BRANCH   1  14
HETATM   14  C           1     -34.249  -3.141 -12.321  0.00  0.00     0.044 C 
BRANCH  14  15
HETATM   15  C           1     -33.256  -3.719 -11.323  0.00  0.00     0.030 C 
BRANCH  15  16
HETATM   16  C           1     -33.669  -5.140 -10.959  0.00  0.00     0.230 C 
BRANCH  16  17
HETATM   17  N           1     -34.442  -5.743 -12.094  0.00  0.00    -0.079 N 
HETATM   18  H           1     -34.430  -5.089 -12.910  0.00  0.00     0.274 HD
HETATM   19  H           1     -34.005  -6.651 -12.370  0.00  0.00     0.274 HD
HETATM   20  H           1     -35.429  -5.908 -11.795  0.00  0.00     0.274 HD
ENDBRANCH  16  17
ENDBRANCH  15  16
ENDBRANCH  14  15
ENDBRANCH   1  14
TORSDOF 8
ENDMDL
MODEL 4
REMARK VINA RESULT:      -5.6      8.011     10.211
REMARK  8 active torsions:
REMARK  status: ('A' for Active; 'I' for Inactive)
REMARK    1  A    between atoms: C_2  and  C_17 
REMARK    2  A    between atoms: C_2  and  C_10 
REMARK       I    between atoms: C_9  and  N_13 
REMARK    3  A    between atoms: C_9  and  C_16 
REMARK    4  A    between atoms: C_10  and  N_11 
REMARK    5  A    between atoms: C_12  and  C_18 
REMARK    6  A    between atoms: C_12  and  N_13 
REMARK    7  A    between atoms: N_14  and  C_16 
REMARK    8  A    between atoms: C_16  and  C_17 
ROOT
HETATM    1  C           1     -29.963  -7.066 -18.425  0.00  0.00     0.274 C 
ENDROOT
BRANCH   1   2
HETATM    2  C           1     -28.614  -6.396 -18.322  0.00  0.00     0.248 C 
HETATM    3  O           1     -28.351  -5.457 -19.037  0.00  0.00    -0.271 OA
HETATM    4  N           1     -27.690  -6.851 -17.421  0.00  0.00    -0.349 N 
HETATM    5  H           1     -27.911  -7.637 -16.823  0.00  0.00     0.163 HD
BRANCH   4   6
HETATM    6  C           1     -26.394  -6.207 -17.323  0.00  0.00     0.235 C 
BRANCH   6   7
HETATM    7  C           1     -25.810  -6.459 -15.955  0.00  0.00     0.191 C 
HETATM    8  O           1     -24.996  -5.646 -15.465  0.00  0.00    -0.647 OA
HETATM    9  O           1     -26.139  -7.479 -15.312  0.00  0.00    -0.647 OA
ENDBRANCH   6   7
ENDBRANCH   4   6
ENDBRANCH   1   2
BRANCH   1  10
HETATM   10  N           1     -29.775  -8.518 -18.750  0.00  0.00    -0.067 N 
HETATM   11  H           1     -29.417  -8.611 -19.727  0.00  0.00     0.275 HD
HETATM   12  H           1     -29.088  -8.938 -18.085  0.00  0.00     0.275 HD
HETATM   13  H           1     -30.690  -9.015 -18.666  0.00  0.00     0.275 HD
ENDBRANCH   1  10
BRANCH   1  14
HETATM   14  C           1     -30.697  -6.934 -17.097  0.00  0.00     0.044 C 
BRANCH  14  15
HETATM   15  C           1     -31.947  -6.086 -17.289  0.00  0.00     0.030 C 
BRANCH  15  16
HETATM   16  C           1     -31.665  -4.657 -16.843  0.00  0.00     0.230 C 
BRANCH  16  17
HETATM   17  N           1     -32.830  -3.782 -17.204  0.00  0.00    -0.079 N 
HETATM   18  H           1     -32.479  -2.861 -17.551  0.00  0.00     0.274 HD
HETATM   19  H           1     -33.394  -4.245 -17.951  0.00  0.00     0.274 HD
HETATM   20  H           1     -33.427  -3.632 -16.359  0.00  0.00     0.274 HD
ENDBRANCH  16  17
ENDBRANCH  15  16
ENDBRANCH  14  15
ENDBRANCH   1  14
TORSDOF 8
ENDMDL
MODEL 5
REMARK VINA RESULT:      -5.6      1.826      2.039
REMARK  8 active torsions:
REMARK  status: ('A' for Active; 'I' for Inactive)
REMARK    1  A    between atoms: C_2  and  C_17 
REMARK    2  A    between atoms: C_2  and  C_10 
REMARK       I    between atoms: C_9  and  N_13 
REMARK    3  A    between atoms: C_9  and  C_16 
REMARK    4  A    between atoms: C_10  and  N_11 
REMARK    5  A    between atoms: C_12  and  C_18 
REMARK    6  A    between atoms: C_12  and  N_13 
REMARK    7  A    between atoms: N_14  and  C_16 
REMARK    8  A    between atoms: C_16  and  C_17 
ROOT
HETATM    1  C           1     -24.224  -3.334  -9.716  0.00  0.00     0.274 C 
ENDROOT
BRANCH   1   2
HETATM    2  C           1     -23.637  -3.750 -11.043  0.00  0.00     0.248 C 
HETATM    3  O           1     -23.678  -4.909 -11.384  0.00  0.00    -0.271 OA
HETATM    4  N           1     -23.061  -2.815 -11.860  0.00  0.00    -0.349 N 
HETATM    5  H           1     -23.027  -1.845 -11.574  0.00  0.00     0.163 HD
BRANCH   4   6
HETATM    6  C           1     -22.497  -3.216 -13.135  0.00  0.00     0.235 C 
BRANCH   6   7
HETATM    7  C           1     -23.224  -2.507 -14.251  0.00  0.00     0.191 C 
HETATM    8  O           1     -22.737  -2.490 -15.402  0.00  0.00    -0.647 OA
HETATM    9  O           1     -24.313  -1.936 -14.025  0.00  0.00    -0.647 OA
ENDBRANCH   6   7
ENDBRANCH   4   6
ENDBRANCH   1   2
BRANCH   1  10
HETATM   10  N           1     -25.704  -3.576  -9.727  0.00  0.00    -0.067 N 
HETATM   11  H           1     -25.980  -4.001 -10.641  0.00  0.00     0.275 HD
HETATM   12  H           1     -25.957  -4.225  -8.949  0.00  0.00     0.275 HD
HETATM   13  H           1     -26.207  -2.668  -9.600  0.00  0.00     0.275 HD
ENDBRANCH   1  10
BRANCH   1  14
HETATM   14  C           1     -23.585  -4.150  -8.600  0.00  0.00     0.044 C 
BRANCH  14  15
HETATM   15  C           1     -22.111  -3.787  -8.485  0.00  0.00     0.030 C 
BRANCH  15  16
HETATM   16  C           1     -21.319  -5.010  -8.038  0.00  0.00     0.230 C 
BRANCH  16  17
HETATM   17  N           1     -19.852  -4.735  -8.184  0.00  0.00    -0.079 N 
HETATM   18  H           1     -19.338  -5.146  -7.372  0.00  0.00     0.274 HD
HETATM   19  H           1     -19.503  -5.166  -9.070  0.00  0.00     0.274 HD
HETATM   20  H           1     -19.692  -3.703  -8.212  0.00  0.00     0.274 HD
ENDBRANCH  16  17
ENDBRANCH  15  16
ENDBRANCH  14  15
ENDBRANCH   1  14
TORSDOF 8
ENDMDL
MODEL 6
REMARK VINA RESULT:      -5.5      3.302      5.390
REMARK  8 active torsions:
REMARK  status: ('A' for Active; 'I' for Inactive)
REMARK    1  A    between atoms: C_2  and  C_17 
REMARK    2  A    between atoms: C_2  and  C_10 
REMARK       I    between atoms: C_9  and  N_13 
REMARK    3  A    between atoms: C_9  and  C_16 
REMARK    4  A    between atoms: C_10  and  N_11 
REMARK    5  A    between atoms: C_12  and  C_18 
REMARK    6  A    between atoms: C_12  and  N_13 
REMARK    7  A    between atoms: N_14  and  C_16 
REMARK    8  A    between atoms: C_16  and  C_17 
ROOT
HETATM    1  C           1     -23.954  -4.388  -9.580  0.00  0.00     0.274 C 
ENDROOT
BRANCH   1   2
HETATM    2  C           1     -22.584  -4.301  -8.953  0.00  0.00     0.248 C 
HETATM    3  O           1     -21.598  -4.444  -9.637  0.00  0.00    -0.271 OA
HETATM    4  N           1     -22.459  -4.059  -7.612  0.00  0.00    -0.349 N 
HETATM    5  H           1     -23.285  -3.938  -7.041  0.00  0.00     0.163 HD
BRANCH   4   6
HETATM    6  C           1     -21.142  -3.974  -7.010  0.00  0.00     0.235 C 
BRANCH   6   7
HETATM    7  C           1     -20.813  -5.283  -6.335  0.00  0.00     0.191 C 
HETATM    8  O           1     -20.470  -6.271  -7.020  0.00  0.00    -0.647 OA
HETATM    9  O           1     -20.883  -5.379  -5.091  0.00  0.00    -0.647 OA
ENDBRANCH   6   7
ENDBRANCH   4   6
ENDBRANCH   1   2
BRANCH   1  10
HETATM   10  N           1     -24.736  -3.153  -9.245  0.00  0.00    -0.067 N 
HETATM   11  H           1     -25.632  -3.153  -9.783  0.00  0.00     0.275 HD
HETATM   12  H           1     -24.943  -3.138  -8.222  0.00  0.00     0.275 HD
HETATM   13  H           1     -24.178  -2.307  -9.499  0.00  0.00     0.275 HD
ENDBRANCH   1  10
BRANCH   1  14
HETATM   14  C           1     -23.815  -4.506 -11.092  0.00  0.00     0.044 C 
BRANCH  14  15
HETATM   15  C           1     -24.133  -3.164 -11.737  0.00  0.00     0.030 C 
BRANCH  15  16
HETATM   16  C           1     -22.876  -2.601 -12.389  0.00  0.00     0.230 C 
BRANCH  16  17
HETATM   17  N           1     -21.905  -3.716 -12.647  0.00  0.00    -0.079 N 
HETATM   18  H           1     -21.057  -3.335 -13.123  0.00  0.00     0.274 HD
HETATM   19  H           1     -21.628  -4.153 -11.739  0.00  0.00     0.274 HD
HETATM   20  H           1     -22.355  -4.435 -13.256  0.00  0.00     0.274 HD
ENDBRANCH  16  17
ENDBRANCH  15  16
ENDBRANCH  14  15
ENDBRANCH   1  14
TORSDOF 8
ENDMDL
MODEL 7
REMARK VINA RESULT:      -5.4     11.226     12.159
REMARK  8 active torsions:
REMARK  status: ('A' for Active; 'I' for Inactive)
REMARK    1  A    between atoms: C_2  and  C_17 
REMARK    2  A    between atoms: C_2  and  C_10 
REMARK       I    between atoms: C_9  and  N_13 
REMARK    3  A    between atoms: C_9  and  C_16 
REMARK    4  A    between atoms: C_10  and  N_11 
REMARK    5  A    between atoms: C_12  and  C_18 
REMARK    6  A    between atoms: C_12  and  N_13 
REMARK    7  A    between atoms: N_14  and  C_16 
REMARK    8  A    between atoms: C_16  and  C_17 
ROOT
HETATM    1  C           1     -34.091  -4.158 -11.923  0.00  0.00     0.274 C 
ENDROOT
BRANCH   1   2
HETATM    2  C           1     -34.956  -2.928 -12.048  0.00  0.00     0.248 C 
HETATM    3  O           1     -35.885  -2.764 -11.292  0.00  0.00    -0.271 OA
HETATM    4  N           1     -34.689  -1.999 -13.017  0.00  0.00    -0.349 N 
HETATM    5  H           1     -33.911  -2.137 -13.649  0.00  0.00     0.163 HD
BRANCH   4   6
HETATM    6  C           1     -35.521  -0.817 -13.137  0.00  0.00     0.235 C 
BRANCH   6   7
HETATM    7  C           1     -35.587  -0.394 -14.583  0.00  0.00     0.191 C 
HETATM    8  O           1     -34.666   0.293 -15.076  0.00  0.00    -0.647 OA
HETATM    9  O           1     -36.562  -0.729 -15.290  0.00  0.00    -0.647 OA
ENDBRANCH   6   7
ENDBRANCH   4   6
ENDBRANCH   1   2
BRANCH   1  10
HETATM   10  N           1     -32.674  -3.746 -11.654  0.00  0.00    -0.067 N 
HETATM   11  H           1     -32.668  -2.825 -11.160  0.00  0.00     0.275 HD
HETATM   12  H           1     -32.209  -4.465 -11.056  0.00  0.00     0.275 HD
HETATM   13  H           1     -32.158  -3.659 -12.558  0.00  0.00     0.275 HD
ENDBRANCH   1  10
BRANCH   1  14
HETATM   14  C           1     -34.595  -5.020 -10.772  0.00  0.00     0.044 C 
BRANCH  14  15
HETATM   15  C           1     -33.833  -6.337 -10.752  0.00  0.00     0.030 C 
BRANCH  15  16
HETATM   16  C           1     -34.706  -7.422 -10.132  0.00  0.00     0.230 C 
BRANCH  16  17
HETATM   17  N           1     -33.970  -8.728 -10.154  0.00  0.00    -0.079 N 
HETATM   18  H           1     -33.004  -8.591  -9.778  0.00  0.00     0.274 HD
HETATM   19  H           1     -34.477  -9.424  -9.561  0.00  0.00     0.274 HD
HETATM   20  H           1     -33.915  -9.081 -11.136  0.00  0.00     0.274 HD
ENDBRANCH  16  17
ENDBRANCH  15  16
ENDBRANCH  14  15
ENDBRANCH   1  14
TORSDOF 8
ENDMDL
MODEL 8
REMARK VINA RESULT:      -5.4      2.239      2.985
REMARK  8 active torsions:
REMARK  status: ('A' for Active; 'I' for Inactive)
REMARK    1  A    between atoms: C_2  and  C_17 
REMARK    2  A    between atoms: C_2  and  C_10 
REMARK       I    between atoms: C_9  and  N_13 
REMARK    3  A    between atoms: C_9  and  C_16 
REMARK    4  A    between atoms: C_10  and  N_11 
REMARK    5  A    between atoms: C_12  and  C_18 
REMARK    6  A    between atoms: C_12  and  N_13 
REMARK    7  A    between atoms: N_14  and  C_16 
REMARK    8  A    between atoms: C_16  and  C_17 
ROOT
HETATM    1  C           1     -22.655  -3.589  -8.850  0.00  0.00     0.274 C 
ENDROOT
BRANCH   1   2
HETATM    2  C           1     -22.243  -3.744 -10.293  0.00  0.00     0.248 C 
HETATM    3  O           1     -21.356  -4.510 -10.589  0.00  0.00    -0.271 OA
HETATM    4  N           1     -22.875  -3.019 -11.267  0.00  0.00    -0.349 N 
HETATM    5  H           1     -23.618  -2.379 -11.019  0.00  0.00     0.163 HD
BRANCH   4   6
HETATM    6  C           1     -22.479  -3.168 -12.654  0.00  0.00     0.235 C 
BRANCH   6   7
HETATM    7  C           1     -23.684  -2.986 -13.543  0.00  0.00     0.191 C 
HETATM    8  O           1     -23.545  -2.955 -14.786  0.00  0.00    -0.647 OA
HETATM    9  O           1     -24.822  -2.865 -13.039  0.00  0.00    -0.647 OA
ENDBRANCH   6   7
ENDBRANCH   4   6
ENDBRANCH   1   2
BRANCH   1  10
HETATM   10  N           1     -24.139  -3.772  -8.731  0.00  0.00    -0.067 N 
HETATM   11  H           1     -24.350  -4.776  -8.531  0.00  0.00     0.275 HD
HETATM   12  H           1     -24.503  -3.177  -7.954  0.00  0.00     0.275 HD
HETATM   13  H           1     -24.598  -3.493  -9.628  0.00  0.00     0.275 HD
ENDBRANCH   1  10
BRANCH   1  14
HETATM   14  C           1     -21.946  -4.639  -8.003  0.00  0.00     0.044 C 
BRANCH  14  15
HETATM   15  C           1     -21.086  -3.948  -6.954  0.00  0.00     0.030 C 
BRANCH  15  16
HETATM   16  C           1     -20.655  -4.962  -5.901  0.00  0.00     0.230 C 
BRANCH  16  17
HETATM   17  N           1     -21.862  -5.679  -5.373  0.00  0.00    -0.079 N 
HETATM   18  H           1     -21.750  -6.707  -5.523  0.00  0.00     0.274 HD
HETATM   19  H           1     -21.964  -5.484  -4.352  0.00  0.00     0.274 HD
HETATM   20  H           1     -22.714  -5.344  -5.878  0.00  0.00     0.274 HD
ENDBRANCH  16  17
ENDBRANCH  15  16
ENDBRANCH  14  15
ENDBRANCH   1  14
TORSDOF 8
ENDMDL
MODEL 9
REMARK VINA RESULT:      -5.2      2.907      5.397
REMARK  8 active torsions:
REMARK  status: ('A' for Active; 'I' for Inactive)
REMARK    1  A    between atoms: C_2  and  C_17 
REMARK    2  A    between atoms: C_2  and  C_10 
REMARK       I    between atoms: C_9  and  N_13 
REMARK    3  A    between atoms: C_9  and  C_16 
REMARK    4  A    between atoms: C_10  and  N_11 
REMARK    5  A    between atoms: C_12  and  C_18 
REMARK    6  A    between atoms: C_12  and  N_13 
REMARK    7  A    between atoms: N_14  and  C_16 
REMARK    8  A    between atoms: C_16  and  C_17 
ROOT
HETATM    1  C           1     -21.798  -2.975 -11.682  0.00  0.00     0.274 C 
ENDROOT
BRANCH   1   2
HETATM    2  C           1     -20.866  -3.770 -10.801  0.00  0.00     0.248 C 
HETATM    3  O           1     -20.032  -4.490 -11.299  0.00  0.00    -0.271 OA
HETATM    4  N           1     -20.964  -3.676  -9.439  0.00  0.00    -0.349 N 
HETATM    5  H           1     -21.663  -3.073  -9.023  0.00  0.00     0.163 HD
BRANCH   4   6
HETATM    6  C           1     -20.068  -4.440  -8.593  0.00  0.00     0.235 C 
BRANCH   6   7
HETATM    7  C           1     -20.876  -5.322  -7.673  0.00  0.00     0.191 C 
HETATM    8  O           1     -20.401  -6.406  -7.271  0.00  0.00    -0.647 OA
HETATM    9  O           1     -22.019  -4.968  -7.312  0.00  0.00    -0.647 OA
ENDBRANCH   6   7
ENDBRANCH   4   6
ENDBRANCH   1   2
BRANCH   1  10
HETATM   10  N           1     -21.811  -3.569 -13.060  0.00  0.00    -0.067 N 
HETATM   11  H           1     -22.756  -3.437 -13.486  0.00  0.00     0.275 HD
HETATM   12  H           1     -21.092  -3.096 -13.650  0.00  0.00     0.275 HD
HETATM   13  H           1     -21.596  -4.590 -13.001  0.00  0.00     0.275 HD
ENDBRANCH   1  10
BRANCH   1  14
HETATM   14  C           1     -23.205  -3.014 -11.100  0.00  0.00     0.044 C 
BRANCH  14  15
HETATM   15  C           1     -23.718  -4.447 -11.108  0.00  0.00     0.030 C 
BRANCH  15  16
HETATM   16  C           1     -24.464  -4.728  -9.809  0.00  0.00     0.230 C 
BRANCH  16  17
HETATM   17  N           1     -24.320  -3.555  -8.886  0.00  0.00    -0.079 N 
HETATM   18  H           1     -23.384  -3.590  -8.422  0.00  0.00     0.274 HD
HETATM   19  H           1     -24.404  -2.669  -9.433  0.00  0.00     0.274 HD
HETATM   20  H           1     -25.071  -3.589  -8.160  0.00  0.00     0.274 HD
ENDBRANCH  16  17
ENDBRANCH  15  16
ENDBRANCH  14  15
ENDBRANCH   1  14
TORSDOF 8
ENDMDL
