MODEL 1
REMARK VINA RESULT:      -7.9      0.000      0.000
REMARK  7 active torsions:
REMARK  status: ('A' for Active; 'I' for Inactive)
REMARK    1  A    between atoms: C_2  and  C_12 
REMARK    2  A    between atoms: C_4  and  C_16 
REMARK    3  A    between atoms: C_4  and  N_21 
REMARK    4  A    between atoms: O_5  and  C_6 
REMARK    5  A    between atoms: C_10  and  C_11 
REMARK    6  A    between atoms: C_11  and  C_12 
REMARK    7  A    between atoms: C_11  and  N_17 
REMARK       I    between atoms: C_16  and  N_17 
ROOT
HETATM    1  C           1     -35.761  -1.220 -12.201  0.00  0.00     0.189 C 
ENDROOT
BRANCH   1   2
HETATM    2  C           1     -36.655  -0.515 -11.210  0.00  0.00     0.197 C 
HETATM    3  O           1     -37.777  -0.991 -10.931  0.00  0.00    -0.646 OA
HETATM    4  O           1     -36.274   0.546 -10.669  0.00  0.00    -0.646 OA
ENDBRANCH   1   2
BRANCH   1   5
HETATM    5  C           1     -34.404  -1.484 -11.562  0.00  0.00     0.074 C 
BRANCH   5   6
HETATM    6  C           1     -34.216  -2.957 -11.379  0.00  0.00    -0.056 A 
HETATM    7  C           1     -32.998  -3.553 -11.709  0.00  0.00     0.010 A 
HETATM    8  C           1     -32.825  -4.927 -11.538  0.00  0.00     0.037 A 
HETATM    9  C           1     -33.869  -5.704 -11.038  0.00  0.00     0.065 A 
HETATM   10  C           1     -35.087  -5.110 -10.709  0.00  0.00     0.037 A 
HETATM   11  C           1     -35.261  -3.736 -10.880  0.00  0.00     0.010 A 
BRANCH   9  12
HETATM   12  O           1     -33.700  -7.039 -10.873  0.00  0.00    -0.361 OA
HETATM   13  H           1     -34.293  -7.496 -11.493  0.00  0.00     0.217 HD
ENDBRANCH   9  12
ENDBRANCH   5   6
ENDBRANCH   1   5
BRANCH   1  14
HETATM   14  N           1     -35.589  -0.385 -13.374  0.00  0.00    -0.344 N 
HETATM   15  H           1     -34.726   0.126 -13.509  0.00  0.00     0.163 HD
HETATM   16  C           1     -36.593  -0.289 -14.300  0.00  0.00     0.248 C 
HETATM   17  O           1     -37.623  -0.900 -14.138  0.00  0.00    -0.271 OA
BRANCH  16  18
HETATM   18  C           1     -36.413   0.578 -15.520  0.00  0.00     0.270 C 
HETATM   19  C           1     -35.384   1.662 -15.228  0.00  0.00     0.050 C 
BRANCH  18  20
HETATM   20  N           1     -37.723   1.217 -15.877  0.00  0.00    -0.067 N 
HETATM   21  H           1     -38.476   0.831 -15.263  0.00  0.00     0.275 HD
HETATM   22  H           1     -37.655   2.251 -15.739  0.00  0.00     0.275 HD
HETATM   23  H           1     -37.950   1.012 -16.876  0.00  0.00     0.275 HD
ENDBRANCH  18  20
ENDBRANCH  16  18
ENDBRANCH   1  14
TORSDOF 7
ENDMDL
MODEL 2
REMARK VINA RESULT:      -7.0      2.770      4.311
REMARK  7 active torsions:
REMARK  status: ('A' for Active; 'I' for Inactive)
REMARK    1  A    between atoms: C_2  and  C_12 
REMARK    2  A    between atoms: C_4  and  C_16 
REMARK    3  A    between atoms: C_4  and  N_21 
REMARK    4  A    between atoms: O_5  and  C_6 
REMARK    5  A    between atoms: C_10  and  C_11 
REMARK    6  A    between atoms: C_11  and  C_12 
REMARK    7  A    between atoms: C_11  and  N_17 
REMARK       I    between atoms: C_16  and  N_17 
ROOT
HETATM    1  C           1     -36.083  -0.998 -10.621  0.00  0.00     0.189 C 
ENDROOT
BRANCH   1   2
HETATM    2  C           1     -36.186  -0.518 -12.048  0.00  0.00     0.197 C 
HETATM    3  O           1     -37.057  -0.997 -12.807  0.00  0.00    -0.646 OA
HETATM    4  O           1     -35.401   0.357 -12.473  0.00  0.00    -0.646 OA
ENDBRANCH   1   2
BRANCH   1   5
HETATM    5  C           1     -36.343  -2.498 -10.569  0.00  0.00     0.074 C 
BRANCH   5   6
HETATM    6  C           1     -35.110  -3.233 -10.992  0.00  0.00    -0.056 A 
HETATM    7  C           1     -33.878  -2.579 -11.007  0.00  0.00     0.010 A 
HETATM    8  C           1     -32.729  -3.265 -11.402  0.00  0.00     0.037 A 
HETATM    9  C           1     -32.813  -4.605 -11.782  0.00  0.00     0.065 A 
HETATM   10  C           1     -34.044  -5.259 -11.767  0.00  0.00     0.037 A 
HETATM   11  C           1     -35.194  -4.573 -11.372  0.00  0.00     0.010 A 
BRANCH   9  12
HETATM   12  O           1     -31.697  -5.271 -12.166  0.00  0.00    -0.361 OA
HETATM   13  H           1     -31.968  -6.136 -12.514  0.00  0.00     0.217 HD
ENDBRANCH   9  12
ENDBRANCH   5   6
ENDBRANCH   1   5
BRANCH   1  14
HETATM   14  N           1     -37.066  -0.308  -9.808  0.00  0.00    -0.344 N 
HETATM   15  H           1     -38.013  -0.197 -10.146  0.00  0.00     0.163 HD
HETATM   16  C           1     -36.713   0.191  -8.584  0.00  0.00     0.248 C 
HETATM   17  O           1     -35.582   0.058  -8.180  0.00  0.00    -0.271 OA
BRANCH  16  18
HETATM   18  C           1     -37.736   0.908  -7.738  0.00  0.00     0.270 C 
HETATM   19  C           1     -38.075   2.249  -8.375  0.00  0.00     0.050 C 
BRANCH  18  20
HETATM   20  N           1     -37.178   1.135  -6.364  0.00  0.00    -0.067 N 
HETATM   21  H           1     -36.558   1.977  -6.376  0.00  0.00     0.275 HD
HETATM   22  H           1     -37.962   1.289  -5.690  0.00  0.00     0.275 HD
HETATM   23  H           1     -36.624   0.300  -6.070  0.00  0.00     0.275 HD
ENDBRANCH  18  20
ENDBRANCH  16  18
ENDBRANCH   1  14
TORSDOF 7
ENDMDL
MODEL 3
REMARK VINA RESULT:      -6.8      2.691      5.789
REMARK  7 active torsions:
REMARK  status: ('A' for Active; 'I' for Inactive)
REMARK    1  A    between atoms: C_2  and  C_12 
REMARK    2  A    between atoms: C_4  and  C_16 
REMARK    3  A    between atoms: C_4  and  N_21 
REMARK    4  A    between atoms: O_5  and  C_6 
REMARK    5  A    between atoms: C_10  and  C_11 
REMARK    6  A    between atoms: C_11  and  C_12 
REMARK    7  A    between atoms: C_11  and  N_17 
REMARK       I    between atoms: C_16  and  N_17 
ROOT
HETATM    1  C           1     -36.280  -0.649 -10.422  0.00  0.00     0.189 C 
ENDROOT
BRANCH   1   2
HETATM    2  C           1     -36.609  -0.262  -9.000  0.00  0.00     0.197 C 
HETATM    3  O           1     -37.786  -0.339  -8.588  0.00  0.00    -0.646 OA
HETATM    4  O           1     -35.703   0.135  -8.235  0.00  0.00    -0.646 OA
ENDBRANCH   1   2
BRANCH   1   5
HETATM    5  C           1     -37.525  -0.505 -11.287  0.00  0.00     0.074 C 
BRANCH   5   6
HETATM    6  C           1     -37.123  -0.135 -12.681  0.00  0.00    -0.056 A 
HETATM    7  C           1     -38.065  -0.166 -13.710  0.00  0.00     0.010 A 
HETATM    8  C           1     -37.689   0.178 -15.009  0.00  0.00     0.037 A 
HETATM    9  C           1     -36.373   0.552 -15.279  0.00  0.00     0.065 A 
HETATM   10  C           1     -35.431   0.581 -14.251  0.00  0.00     0.037 A 
HETATM   11  C           1     -35.807   0.237 -12.951  0.00  0.00     0.010 A 
BRANCH   9  12
HETATM   12  O           1     -36.009   0.885 -16.541  0.00  0.00    -0.361 OA
HETATM   13  H           1     -35.395   0.206 -16.866  0.00  0.00     0.217 HD
ENDBRANCH   9  12
ENDBRANCH   5   6
ENDBRANCH   1   5
BRANCH   1  14
HETATM   14  N           1     -35.826  -2.025 -10.454  0.00  0.00    -0.344 N 
HETATM   15  H           1     -36.491  -2.780 -10.347  0.00  0.00     0.163 HD
HETATM   16  C           1     -34.498  -2.304 -10.631  0.00  0.00     0.248 C 
HETATM   17  O           1     -33.703  -1.402 -10.760  0.00  0.00    -0.271 OA
BRANCH  16  18
HETATM   18  C           1     -34.025  -3.736 -10.666  0.00  0.00     0.270 C 
HETATM   19  C           1     -32.887  -3.872 -11.669  0.00  0.00     0.050 C 
BRANCH  18  20
HETATM   20  N           1     -35.160  -4.627 -11.076  0.00  0.00    -0.067 N 
HETATM   21  H           1     -36.051  -4.080 -11.069  0.00  0.00     0.275 HD
HETATM   22  H           1     -34.984  -4.995 -12.038  0.00  0.00     0.275 HD
HETATM   23  H           1     -35.237  -5.425 -10.406  0.00  0.00     0.275 HD
ENDBRANCH  18  20
ENDBRANCH  16  18
ENDBRANCH   1  14
TORSDOF 7
ENDMDL
MODEL 4
REMARK VINA RESULT:      -6.4      9.680     11.781
REMARK  7 active torsions:
REMARK  status: ('A' for Active; 'I' for Inactive)
REMARK    1  A    between atoms: C_2  and  C_12 
REMARK    2  A    between atoms: C_4  and  C_16 
REMARK    3  A    between atoms: C_4  and  N_21 
REMARK    4  A    between atoms: O_5  and  C_6 
REMARK    5  A    between atoms: C_10  and  C_11 
REMARK    6  A    between atoms: C_11  and  C_12 
REMARK    7  A    between atoms: C_11  and  N_17 
REMARK       I    between atoms: C_16  and  N_17 
ROOT
HETATM    1  C           1     -27.626  -6.904 -17.104  0.00  0.00     0.189 C 
ENDROOT
BRANCH   1   2
HETATM    2  C           1     -27.218  -7.274 -15.699  0.00  0.00     0.197 C 
HETATM    3  O           1     -26.006  -7.344 -15.399  0.00  0.00    -0.646 OA
HETATM    4  O           1     -28.090  -7.512 -14.836  0.00  0.00    -0.646 OA
ENDBRANCH   1   2
BRANCH   1   5
HETATM    5  C           1     -26.552  -6.023 -17.730  0.00  0.00     0.074 C 
BRANCH   5   6
HETATM    6  C           1     -26.000  -6.699 -18.946  0.00  0.00    -0.056 A 
HETATM    7  C           1     -26.845  -7.029 -20.006  0.00  0.00     0.010 A 
HETATM    8  C           1     -26.329  -7.660 -21.139  0.00  0.00     0.037 A 
HETATM    9  C           1     -24.969  -7.960 -21.211  0.00  0.00     0.065 A 
HETATM   10  C           1     -24.124  -7.631 -20.152  0.00  0.00     0.037 A 
HETATM   11  C           1     -24.640  -7.000 -19.018  0.00  0.00     0.010 A 
BRANCH   9  12
HETATM   12  O           1     -24.469  -8.572 -22.312  0.00  0.00    -0.361 OA
HETATM   13  H           1     -23.832  -7.968 -22.728  0.00  0.00     0.217 HD
ENDBRANCH   9  12
ENDBRANCH   5   6
ENDBRANCH   1   5
BRANCH   1  14
HETATM   14  N           1     -28.883  -6.180 -17.066  0.00  0.00    -0.344 N 
HETATM   15  H           1     -28.917  -5.246 -16.677  0.00  0.00     0.163 HD
HETATM   16  C           1     -30.021  -6.758 -17.557  0.00  0.00     0.248 C 
HETATM   17  O           1     -29.980  -7.873 -18.022  0.00  0.00    -0.271 OA
BRANCH  16  18
HETATM   18  C           1     -31.328  -6.005 -17.518  0.00  0.00     0.270 C 
HETATM   19  C           1     -31.264  -4.931 -16.439  0.00  0.00     0.050 C 
BRANCH  18  20
HETATM   20  N           1     -32.445  -6.957 -17.207  0.00  0.00    -0.067 N 
HETATM   21  H           1     -32.201  -7.513 -16.356  0.00  0.00     0.275 HD
HETATM   22  H           1     -33.323  -6.418 -17.033  0.00  0.00     0.275 HD
HETATM   23  H           1     -32.587  -7.603 -18.016  0.00  0.00     0.275 HD
ENDBRANCH  18  20
ENDBRANCH  16  18
ENDBRANCH   1  14
TORSDOF 7
ENDMDL
MODEL 5
REMARK VINA RESULT:      -6.2     16.263     18.056
REMARK  7 active torsions:
REMARK  status: ('A' for Active; 'I' for Inactive)
REMARK    1  A    between atoms: C_2  and  C_12 
REMARK    2  A    between atoms: C_4  and  C_16 
REMARK    3  A    between atoms: C_4  and  N_21 
REMARK    4  A    between atoms: O_5  and  C_6 
REMARK    5  A    between atoms: C_10  and  C_11 
REMARK    6  A    between atoms: C_11  and  C_12 
REMARK    7  A    between atoms: C_11  and  N_17 
REMARK       I    between atoms: C_16  and  N_17 
ROOT
HETATM    1  C           1     -20.168  -7.753  -4.851  0.00  0.00     0.189 C 
ENDROOT
BRANCH   1   2
HETATM    2  C           1     -19.083  -8.796  -4.975  0.00  0.00     0.197 C 
HETATM    3  O           1     -18.822  -9.297  -6.091  0.00  0.00    -0.646 OA
HETATM    4  O           1     -18.447  -9.160  -3.963  0.00  0.00    -0.646 OA
ENDBRANCH   1   2
BRANCH   1   5
HETATM    5  C           1     -21.473  -8.425  -4.444  0.00  0.00     0.074 C 
BRANCH   5   6
HETATM    6  C           1     -21.684  -8.253  -2.972  0.00  0.00    -0.056 A 
HETATM    7  C           1     -21.668  -9.366  -2.130  0.00  0.00     0.010 A 
HETATM    8  C           1     -21.865  -9.205  -0.758  0.00  0.00     0.037 A 
HETATM    9  C           1     -22.078  -7.932  -0.229  0.00  0.00     0.065 A 
HETATM   10  C           1     -22.095  -6.820  -1.070  0.00  0.00     0.037 A 
HETATM   11  C           1     -21.898  -6.981  -2.442  0.00  0.00     0.010 A 
BRANCH   9  12
HETATM   12  O           1     -22.270  -7.777   1.104  0.00  0.00    -0.361 OA
HETATM   13  H           1     -22.873  -7.027   1.235  0.00  0.00     0.217 HD
ENDBRANCH   9  12
ENDBRANCH   5   6
ENDBRANCH   1   5
BRANCH   1  14
HETATM   14  N           1     -20.345  -7.088  -6.128  0.00  0.00    -0.344 N 
HETATM   15  H           1     -20.331  -7.626  -6.985  0.00  0.00     0.163 HD
HETATM   16  C           1     -20.532  -5.733  -6.173  0.00  0.00     0.248 C 
HETATM   17  O           1     -20.549  -5.091  -5.150  0.00  0.00    -0.271 OA
BRANCH  16  18
HETATM   18  C           1     -20.717  -5.041  -7.501  0.00  0.00     0.270 C 
HETATM   19  C           1     -19.420  -4.349  -7.899  0.00  0.00     0.050 C 
BRANCH  18  20
HETATM   20  N           1     -21.811  -4.021  -7.384  0.00  0.00    -0.067 N 
HETATM   21  H           1     -21.401  -3.063  -7.455  0.00  0.00     0.275 HD
HETATM   22  H           1     -22.503  -4.163  -8.155  0.00  0.00     0.275 HD
HETATM   23  H           1     -22.290  -4.128  -6.462  0.00  0.00     0.275 HD
ENDBRANCH  18  20
ENDBRANCH  16  18
ENDBRANCH   1  14
TORSDOF 7
ENDMDL
MODEL 6
REMARK VINA RESULT:      -6.2      8.967     11.161
REMARK  7 active torsions:
REMARK  status: ('A' for Active; 'I' for Inactive)
REMARK    1  A    between atoms: C_2  and  C_12 
REMARK    2  A    between atoms: C_4  and  C_16 
REMARK    3  A    between atoms: C_4  and  N_21 
REMARK    4  A    between atoms: O_5  and  C_6 
REMARK    5  A    between atoms: C_10  and  C_11 
REMARK    6  A    between atoms: C_11  and  C_12 
REMARK    7  A    between atoms: C_11  and  N_17 
REMARK       I    between atoms: C_16  and  N_17 
ROOT
HETATM    1  C           1     -26.641  -6.397 -16.603  0.00  0.00     0.189 C 
ENDROOT
BRANCH   1   2
HETATM    2  C           1     -25.444  -6.392 -15.684  0.00  0.00     0.197 C 
HETATM    3  O           1     -24.916  -5.308 -15.352  0.00  0.00    -0.646 OA
HETATM    4  O           1     -24.980  -7.470 -15.255  0.00  0.00    -0.646 OA
ENDBRANCH   1   2
BRANCH   1   5
HETATM    5  C           1     -27.681  -7.378 -16.076  0.00  0.00     0.074 C 
BRANCH   5   6
HETATM    6  C           1     -29.053  -6.841 -16.342  0.00  0.00    -0.056 A 
HETATM    7  C           1     -29.509  -5.719 -15.650  0.00  0.00     0.010 A 
HETATM    8  C           1     -30.788  -5.220 -15.898  0.00  0.00     0.037 A 
HETATM    9  C           1     -31.610  -5.843 -16.838  0.00  0.00     0.065 A 
HETATM   10  C           1     -31.154  -6.964 -17.529  0.00  0.00     0.037 A 
HETATM   11  C           1     -29.875  -7.464 -17.281  0.00  0.00     0.010 A 
BRANCH   9  12
HETATM   12  O           1     -32.852  -5.357 -17.078  0.00  0.00    -0.361 OA
HETATM   13  H           1     -32.812  -4.817 -17.885  0.00  0.00     0.217 HD
ENDBRANCH   9  12
ENDBRANCH   5   6
ENDBRANCH   1   5
BRANCH   1  14
HETATM   14  N           1     -26.226  -6.802 -17.932  0.00  0.00    -0.344 N 
HETATM   15  H           1     -25.481  -7.477 -18.046  0.00  0.00     0.163 HD
HETATM   16  C           1     -26.843  -6.272 -19.033  0.00  0.00     0.248 C 
HETATM   17  O           1     -27.734  -5.466 -18.896  0.00  0.00    -0.271 OA
BRANCH  16  18
HETATM   18  C           1     -26.412  -6.693 -20.416  0.00  0.00     0.270 C 
HETATM   19  C           1     -27.154  -7.962 -20.815  0.00  0.00     0.050 C 
BRANCH  18  20
HETATM   20  N           1     -24.935  -6.956 -20.421  0.00  0.00    -0.067 N 
HETATM   21  H           1     -24.763  -7.963 -20.641  0.00  0.00     0.275 HD
HETATM   22  H           1     -24.477  -6.357 -21.144  0.00  0.00     0.275 HD
HETATM   23  H           1     -24.538  -6.733 -19.480  0.00  0.00     0.275 HD
ENDBRANCH  18  20
ENDBRANCH  16  18
ENDBRANCH   1  14
TORSDOF 7
ENDMDL
MODEL 7
REMARK VINA RESULT:      -6.1     15.232     17.915
REMARK  7 active torsions:
REMARK  status: ('A' for Active; 'I' for Inactive)
REMARK    1  A    between atoms: C_2  and  C_12 
REMARK    2  A    between atoms: C_4  and  C_16 
REMARK    3  A    between atoms: C_4  and  N_21 
REMARK    4  A    between atoms: O_5  and  C_6 
REMARK    5  A    between atoms: C_10  and  C_11 
REMARK    6  A    between atoms: C_11  and  C_12 
REMARK    7  A    between atoms: C_11  and  N_17 
REMARK       I    between atoms: C_16  and  N_17 
ROOT
HETATM    1  C           1     -21.603  -7.898  -3.882  0.00  0.00     0.189 C 
ENDROOT
BRANCH   1   2
HETATM    2  C           1     -21.445  -9.225  -4.583  0.00  0.00     0.197 C 
HETATM    3  O           1     -21.964 -10.254  -4.098  0.00  0.00    -0.646 OA
HETATM    4  O           1     -20.794  -9.295  -5.648  0.00  0.00    -0.646 OA
ENDBRANCH   1   2
BRANCH   1   5
HETATM    5  C           1     -20.464  -6.971  -4.286  0.00  0.00     0.074 C 
BRANCH   5   6
HETATM    6  C           1     -20.955  -5.992  -5.307  0.00  0.00    -0.056 A 
HETATM    7  C           1     -22.303  -5.977  -5.667  0.00  0.00     0.010 A 
HETATM    8  C           1     -22.760  -5.065  -6.619  0.00  0.00     0.037 A 
HETATM    9  C           1     -21.870  -4.169  -7.210  0.00  0.00     0.065 A 
HETATM   10  C           1     -20.523  -4.183  -6.850  0.00  0.00     0.037 A 
HETATM   11  C           1     -20.065  -5.096  -5.898  0.00  0.00     0.010 A 
BRANCH   9  12
HETATM   12  O           1     -22.314  -3.283  -8.134  0.00  0.00    -0.361 OA
HETATM   13  H           1     -21.683  -3.277  -8.872  0.00  0.00     0.217 HD
ENDBRANCH   9  12
ENDBRANCH   5   6
ENDBRANCH   1   5
BRANCH   1  14
HETATM   14  N           1     -21.572  -8.104  -2.447  0.00  0.00    -0.344 N 
HETATM   15  H           1     -21.121  -8.925  -2.064  0.00  0.00     0.163 HD
HETATM   16  C           1     -22.150  -7.188  -1.611  0.00  0.00     0.248 C 
HETATM   17  O           1     -22.688  -6.207  -2.069  0.00  0.00    -0.271 OA
BRANCH  16  18
HETATM   18  C           1     -22.117  -7.402  -0.118  0.00  0.00     0.270 C 
HETATM   19  C           1     -21.115  -8.500   0.217  0.00  0.00     0.050 C 
BRANCH  18  20
HETATM   20  N           1     -23.480  -7.808   0.360  0.00  0.00    -0.067 N 
HETATM   21  H           1     -23.809  -8.634  -0.191  0.00  0.00     0.275 HD
HETATM   22  H           1     -23.433  -8.061   1.373  0.00  0.00     0.275 HD
HETATM   23  H           1     -24.146  -7.015   0.228  0.00  0.00     0.275 HD
ENDBRANCH  18  20
ENDBRANCH  16  18
ENDBRANCH   1  14
TORSDOF 7
ENDMDL
MODEL 8
REMARK VINA RESULT:      -6.1      2.277      5.300
REMARK  7 active torsions:
REMARK  status: ('A' for Active; 'I' for Inactive)
REMARK    1  A    between atoms: C_2  and  C_12 
REMARK    2  A    between atoms: C_4  and  C_16 
REMARK    3  A    between atoms: C_4  and  N_21 
REMARK    4  A    between atoms: O_5  and  C_6 
REMARK    5  A    between atoms: C_10  and  C_11 
REMARK    6  A    between atoms: C_11  and  C_12 
REMARK    7  A    between atoms: C_11  and  N_17 
REMARK       I    between atoms: C_16  and  N_17 
ROOT
HETATM    1  C           1     -35.749  -0.363 -11.285  0.00  0.00     0.189 C 
ENDROOT
BRANCH   1   2
HETATM    2  C           1     -37.196  -0.338 -10.859  0.00  0.00     0.197 C 
HETATM    3  O           1     -37.898  -1.367 -10.967  0.00  0.00    -0.646 OA
HETATM    4  O           1     -37.694   0.712 -10.398  0.00  0.00    -0.646 OA
ENDBRANCH   1   2
BRANCH   1   5
HETATM    5  C           1     -35.485   0.782 -12.255  0.00  0.00     0.074 C 
BRANCH   5   6
HETATM    6  C           1     -35.803   0.337 -13.649  0.00  0.00    -0.056 A 
HETATM    7  C           1     -34.771   0.101 -14.558  0.00  0.00     0.010 A 
HETATM    8  C           1     -35.068  -0.312 -15.857  0.00  0.00     0.037 A 
HETATM    9  C           1     -36.396  -0.489 -16.247  0.00  0.00     0.065 A 
HETATM   10  C           1     -37.427  -0.252 -15.338  0.00  0.00     0.037 A 
HETATM   11  C           1     -37.130   0.162 -14.039  0.00  0.00     0.010 A 
BRANCH   9  12
HETATM   12  O           1     -36.684  -0.890 -17.509  0.00  0.00    -0.361 OA
HETATM   13  H           1     -36.629  -0.114 -18.090  0.00  0.00     0.217 HD
ENDBRANCH   9  12
ENDBRANCH   5   6
ENDBRANCH   1   5
BRANCH   1  14
HETATM   14  N           1     -35.461  -1.626 -11.938  0.00  0.00    -0.344 N 
HETATM   15  H           1     -36.053  -1.952 -12.692  0.00  0.00     0.163 HD
HETATM   16  C           1     -34.388  -2.375 -11.538  0.00  0.00     0.248 C 
HETATM   17  O           1     -33.681  -1.985 -10.639  0.00  0.00    -0.271 OA
BRANCH  16  18
HETATM   18  C           1     -34.088  -3.687 -12.218  0.00  0.00     0.270 C 
HETATM   19  C           1     -32.678  -4.137 -11.858  0.00  0.00     0.050 C 
BRANCH  18  20
HETATM   20  N           1     -34.192  -3.515 -13.705  0.00  0.00    -0.067 N 
HETATM   21  H           1     -33.334  -3.033 -14.059  0.00  0.00     0.275 HD
HETATM   22  H           1     -34.278  -4.452 -14.159  0.00  0.00     0.275 HD
HETATM   23  H           1     -35.033  -2.939 -13.931  0.00  0.00     0.275 HD
ENDBRANCH  18  20
ENDBRANCH  16  18
ENDBRANCH   1  14
TORSDOF 7
ENDMDL
MODEL 9
REMARK VINA RESULT:      -6.0     15.788     17.821
REMARK  7 active torsions:
REMARK  status: ('A' for Active; 'I' for Inactive)
REMARK    1  A    between atoms: C_2  and  C_12 
REMARK    2  A    between atoms: C_4  and  C_16 
REMARK    3  A    between atoms: C_4  and  N_21 
REMARK    4  A    between atoms: O_5  and  C_6 
REMARK    5  A    between atoms: C_10  and  C_11 
REMARK    6  A    between atoms: C_11  and  C_12 
REMARK    7  A    between atoms: C_11  and  N_17 
REMARK       I    between atoms: C_16  and  N_17 
ROOT
HETATM    1  C           1     -21.435  -7.250  -4.073  0.00  0.00     0.189 C 
ENDROOT
BRANCH   1   2
HETATM    2  C           1     -21.588  -6.888  -2.616  0.00  0.00     0.197 C 
HETATM    3  O           1     -22.377  -5.980  -2.277  0.00  0.00    -0.646 OA
HETATM    4  O           1     -20.924  -7.496  -1.747  0.00  0.00    -0.646 OA
ENDBRANCH   1   2
BRANCH   1   5
HETATM    5  C           1     -22.410  -6.427  -4.905  0.00  0.00     0.074 C 
BRANCH   5   6
HETATM    6  C           1     -21.648  -5.608  -5.899  0.00  0.00    -0.056 A 
HETATM    7  C           1     -22.330  -4.897  -6.888  0.00  0.00     0.010 A 
HETATM    8  C           1     -21.619  -4.134  -7.814  0.00  0.00     0.037 A 
HETATM    9  C           1     -20.227  -4.082  -7.752  0.00  0.00     0.065 A 
HETATM   10  C           1     -19.544  -4.792  -6.765  0.00  0.00     0.037 A 
HETATM   11  C           1     -20.255  -5.556  -5.838  0.00  0.00     0.010 A 
BRANCH   9  12
HETATM   12  O           1     -19.537  -3.340  -8.653  0.00  0.00    -0.361 OA
HETATM   13  H           1     -18.819  -3.890  -9.008  0.00  0.00     0.217 HD
ENDBRANCH   9  12
ENDBRANCH   5   6
ENDBRANCH   1   5
BRANCH   1  14
HETATM   14  N           1     -21.719  -8.662  -4.251  0.00  0.00    -0.344 N 
HETATM   15  H           1     -22.510  -9.082  -3.779  0.00  0.00     0.163 HD
HETATM   16  C           1     -20.920  -9.424  -5.058  0.00  0.00     0.248 C 
HETATM   17  O           1     -19.977  -8.922  -5.622  0.00  0.00    -0.271 OA
BRANCH  16  18
HETATM   18  C           1     -21.217 -10.891  -5.245  0.00  0.00     0.270 C 
HETATM   19  C           1     -20.652 -11.678  -4.069  0.00  0.00     0.050 C 
BRANCH  18  20
HETATM   20  N           1     -20.582 -11.372  -6.516  0.00  0.00    -0.067 N 
HETATM   21  H           1     -20.289 -10.549  -7.091  0.00  0.00     0.275 HD
HETATM   22  H           1     -19.745 -11.955  -6.289  0.00  0.00     0.275 HD
HETATM   23  H           1     -21.270 -11.945  -7.055  0.00  0.00     0.275 HD
ENDBRANCH  18  20
ENDBRANCH  16  18
ENDBRANCH   1  14
TORSDOF 7
ENDMDL
