MODEL 1
REMARK VINA RESULT:      -6.2      0.000      0.000
REMARK  9 active torsions:
REMARK  status: ('A' for Active; 'I' for Inactive)
REMARK    1  A    between atoms: C_1  and  C_2 
REMARK    2  A    between atoms: C_1  and  C_8 
REMARK    3  A    between atoms: C_1  and  N_14 
REMARK       I    between atoms: C_2  and  N_3 
REMARK    4  A    between atoms: N_3  and  C_21 
REMARK    5  A    between atoms: Se_6  and  C_7 
REMARK    6  A    between atoms: C_7  and  C_8 
REMARK    7  A    between atoms: C_10  and  C_21 
REMARK    8  A    between atoms: C_18  and  C_20 
REMARK    9  A    between atoms: C_20  and  C_21 
ROOT
HETATM    1  C           1     -34.302  -2.326 -12.243  0.00  0.00     0.249 C 
HETATM    2  N           1     -35.027  -1.558 -13.113  0.00  0.00    -0.344 N 
HETATM    3  O           1     -33.861  -1.837 -11.230  0.00  0.00    -0.271 OA
HETATM    4  H           1     -35.397  -1.967 -13.962  0.00  0.00     0.163 HD
ENDROOT
BRANCH   1   5
HETATM    5  C           1     -34.052  -3.782 -12.549  0.00  0.00     0.274 C 
BRANCH   5   6
HETATM    6  C           1     -32.786  -4.241 -11.839  0.00  0.00     0.042 C 
BRANCH   6   7
HETATM    7  C           1     -33.003  -5.632 -11.259  0.00  0.00     0.003 C 
BRANCH   7   8
HETATM    8 Se           1     -34.779  -5.735 -10.463  0.00  0.00     0.000 Se
HETATM    9  C           1     -34.700  -7.654 -10.133  0.00  0.00     0.000 C 
ENDBRANCH   7   8
ENDBRANCH   6   7
ENDBRANCH   5   6
BRANCH   5  10
HETATM   10  N           1     -33.887  -3.961 -14.029  0.00  0.00    -0.067 N 
HETATM   11  H           1     -34.630  -4.603 -14.388  0.00  0.00     0.275 HD
HETATM   12  H           1     -33.972  -3.033 -14.502  0.00  0.00     0.275 HD
HETATM   13  H           1     -32.947  -4.370 -14.228  0.00  0.00     0.275 HD
ENDBRANCH   5  10
ENDBRANCH   1   5
BRANCH   2  14
HETATM   14  C           1     -35.267  -0.159 -12.819  0.00  0.00     0.195 C 
BRANCH  14  15
HETATM   15  C           1     -36.447  -0.035 -11.888  0.00  0.00     0.197 C 
HETATM   16  O           1     -37.573  -0.443 -12.249  0.00  0.00    -0.646 OA
HETATM   17  O           1     -36.300   0.473 -10.755  0.00  0.00    -0.646 OA
ENDBRANCH  14  15
BRANCH  14  18
HETATM   18  C           1     -35.560   0.589 -14.113  0.00  0.00     0.149 C 
BRANCH  18  19
HETATM   19  C           1     -35.774  -0.403 -15.230  0.00  0.00     0.175 C 
HETATM   20  O           1     -34.799  -0.822 -15.889  0.00  0.00    -0.648 OA
HETATM   21  O           1     -36.928  -0.805 -15.497  0.00  0.00    -0.648 OA
ENDBRANCH  18  19
ENDBRANCH  14  18
ENDBRANCH   2  14
TORSDOF 9
ENDMDL
MODEL 2
REMARK VINA RESULT:      -5.9      1.668      3.009
REMARK  9 active torsions:
REMARK  status: ('A' for Active; 'I' for Inactive)
REMARK    1  A    between atoms: C_1  and  C_2 
REMARK    2  A    between atoms: C_1  and  C_8 
REMARK    3  A    between atoms: C_1  and  N_14 
REMARK       I    between atoms: C_2  and  N_3 
REMARK    4  A    between atoms: N_3  and  C_21 
REMARK    5  A    between atoms: Se_6  and  C_7 
REMARK    6  A    between atoms: C_7  and  C_8 
REMARK    7  A    between atoms: C_10  and  C_21 
REMARK    8  A    between atoms: C_18  and  C_20 
REMARK    9  A    between atoms: C_20  and  C_21 
ROOT
HETATM    1  C           1     -34.517  -2.711 -12.753  0.00  0.00     0.249 C 
HETATM    2  N           1     -35.107  -1.513 -12.457  0.00  0.00    -0.344 N 
HETATM    3  O           1     -34.601  -3.166 -13.869  0.00  0.00    -0.271 OA
HETATM    4  H           1     -35.037  -1.132 -11.522  0.00  0.00     0.163 HD
ENDROOT
BRANCH   1   5
HETATM    5  C           1     -33.764  -3.466 -11.685  0.00  0.00     0.274 C 
BRANCH   5   6
HETATM    6  C           1     -34.680  -4.510 -11.060  0.00  0.00     0.042 C 
BRANCH   6   7
HETATM    7  C           1     -33.916  -5.815 -10.880  0.00  0.00     0.003 C 
BRANCH   7   8
HETATM    8 Se           1     -34.979  -7.050  -9.810  0.00  0.00     0.000 Se
HETATM    9  C           1     -33.795  -8.571 -10.090  0.00  0.00     0.000 C 
ENDBRANCH   7   8
ENDBRANCH   6   7
ENDBRANCH   5   6
BRANCH   5  10
HETATM   10  N           1     -33.303  -2.508 -10.627  0.00  0.00    -0.067 N 
HETATM   11  H           1     -34.063  -1.820 -10.425  0.00  0.00     0.275 HD
HETATM   12  H           1     -33.074  -3.038  -9.756  0.00  0.00     0.275 HD
HETATM   13  H           1     -32.453  -2.001 -10.962  0.00  0.00     0.275 HD
ENDBRANCH   5  10
ENDBRANCH   1   5
BRANCH   2  14
HETATM   14  C           1     -35.831  -0.787 -13.483  0.00  0.00     0.195 C 
BRANCH  14  15
HETATM   15  C           1     -34.929   0.259 -14.090  0.00  0.00     0.197 C 
HETATM   16  O           1     -34.621   1.277 -13.432  0.00  0.00    -0.646 OA
HETATM   17  O           1     -34.489   0.108 -15.250  0.00  0.00    -0.646 OA
ENDBRANCH  14  15
BRANCH  14  18
HETATM   18  C           1     -37.048  -0.113 -12.864  0.00  0.00     0.149 C 
BRANCH  18  19
HETATM   19  C           1     -37.028  -0.310 -11.369  0.00  0.00     0.175 C 
HETATM   20  O           1     -36.339   0.445 -10.648  0.00  0.00    -0.648 OA
HETATM   21  O           1     -37.700  -1.228 -10.849  0.00  0.00    -0.648 OA
ENDBRANCH  18  19
ENDBRANCH  14  18
ENDBRANCH   2  14
TORSDOF 9
ENDMDL
MODEL 3
REMARK VINA RESULT:      -5.6     12.503     14.346
REMARK  9 active torsions:
REMARK  status: ('A' for Active; 'I' for Inactive)
REMARK    1  A    between atoms: C_1  and  C_2 
REMARK    2  A    between atoms: C_1  and  C_8 
REMARK    3  A    between atoms: C_1  and  N_14 
REMARK       I    between atoms: C_2  and  N_3 
REMARK    4  A    between atoms: N_3  and  C_21 
REMARK    5  A    between atoms: Se_6  and  C_7 
REMARK    6  A    between atoms: C_7  and  C_8 
REMARK    7  A    between atoms: C_10  and  C_21 
REMARK    8  A    between atoms: C_18  and  C_20 
REMARK    9  A    between atoms: C_20  and  C_21 
ROOT
HETATM    1  C           1     -21.710  -4.762  -7.689  0.00  0.00     0.249 C 
HETATM    2  N           1     -22.307  -4.928  -8.909  0.00  0.00    -0.344 N 
HETATM    3  O           1     -21.591  -3.655  -7.221  0.00  0.00    -0.271 OA
HETATM    4  H           1     -22.407  -5.855  -9.302  0.00  0.00     0.163 HD
ENDROOT
BRANCH   1   5
HETATM    5  C           1     -21.198  -5.962  -6.930  0.00  0.00     0.274 C 
BRANCH   5   6
HETATM    6  C           1     -21.361  -5.724  -5.435  0.00  0.00     0.042 C 
BRANCH   6   7
HETATM    7  C           1     -22.056  -6.922  -4.802  0.00  0.00     0.003 C 
BRANCH   7   8
HETATM    8 Se           1     -21.145  -7.405  -3.148  0.00  0.00     0.000 Se
HETATM    9  C           1     -22.172  -6.182  -2.032  0.00  0.00     0.000 C 
ENDBRANCH   7   8
ENDBRANCH   6   7
ENDBRANCH   5   6
BRANCH   5  10
HETATM   10  N           1     -19.747  -6.172  -7.247  0.00  0.00    -0.067 N 
HETATM   11  H           1     -19.638  -7.030  -7.832  0.00  0.00     0.275 HD
HETATM   12  H           1     -19.383  -5.345  -7.772  0.00  0.00     0.275 HD
HETATM   13  H           1     -19.209  -6.286  -6.358  0.00  0.00     0.275 HD
ENDBRANCH   5  10
ENDBRANCH   1   5
BRANCH   2  14
HETATM   14  C           1     -22.799  -3.776  -9.639  0.00  0.00     0.195 C 
BRANCH  14  15
HETATM   15  C           1     -24.306  -3.810  -9.677  0.00  0.00     0.197 C 
HETATM   16  O           1     -24.960  -2.756  -9.522  0.00  0.00    -0.646 OA
HETATM   17  O           1     -24.903  -4.893  -9.863  0.00  0.00    -0.646 OA
ENDBRANCH  14  15
BRANCH  14  18
HETATM   18  C           1     -22.254  -3.805 -11.060  0.00  0.00     0.149 C 
BRANCH  18  19
HETATM   19  C           1     -20.750  -3.686 -11.026  0.00  0.00     0.175 C 
HETATM   20  O           1     -20.205  -2.583 -11.250  0.00  0.00    -0.648 OA
HETATM   21  O           1     -20.049  -4.690 -10.774  0.00  0.00    -0.648 OA
ENDBRANCH  18  19
ENDBRANCH  14  18
ENDBRANCH   2  14
TORSDOF 9
ENDMDL
MODEL 4
REMARK VINA RESULT:      -5.5     12.167     14.071
REMARK  9 active torsions:
REMARK  status: ('A' for Active; 'I' for Inactive)
REMARK    1  A    between atoms: C_1  and  C_2 
REMARK    2  A    between atoms: C_1  and  C_8 
REMARK    3  A    between atoms: C_1  and  N_14 
REMARK       I    between atoms: C_2  and  N_3 
REMARK    4  A    between atoms: N_3  and  C_21 
REMARK    5  A    between atoms: Se_6  and  C_7 
REMARK    6  A    between atoms: C_7  and  C_8 
REMARK    7  A    between atoms: C_10  and  C_21 
REMARK    8  A    between atoms: C_18  and  C_20 
REMARK    9  A    between atoms: C_20  and  C_21 
ROOT
HETATM    1  C           1     -20.691  -4.230  -9.334  0.00  0.00     0.249 C 
HETATM    2  N           1     -21.833  -3.762  -9.926  0.00  0.00    -0.344 N 
HETATM    3  O           1     -20.009  -5.051  -9.901  0.00  0.00    -0.271 OA
HETATM    4  H           1     -22.404  -3.074  -9.452  0.00  0.00     0.163 HD
ENDROOT
BRANCH   1   5
HETATM    5  C           1     -20.285  -3.722  -7.972  0.00  0.00     0.274 C 
BRANCH   5   6
HETATM    6  C           1     -19.481  -4.794  -7.249  0.00  0.00     0.042 C 
BRANCH   6   7
HETATM    7  C           1     -20.039  -4.990  -5.846  0.00  0.00     0.003 C 
BRANCH   7   8
HETATM    8 Se           1     -20.457  -6.874  -5.569  0.00  0.00     0.000 Se
HETATM    9  C           1     -22.275  -6.549  -4.947  0.00  0.00     0.000 C 
ENDBRANCH   7   8
ENDBRANCH   6   7
ENDBRANCH   5   6
BRANCH   5  10
HETATM   10  N           1     -21.512  -3.395  -7.174  0.00  0.00    -0.067 N 
HETATM   11  H           1     -21.233  -2.951  -6.271  0.00  0.00     0.275 HD
HETATM   12  H           1     -22.113  -2.734  -7.716  0.00  0.00     0.275 HD
HETATM   13  H           1     -22.045  -4.273  -6.980  0.00  0.00     0.275 HD
ENDBRANCH   5  10
ENDBRANCH   1   5
BRANCH   2  14
HETATM   14  C           1     -22.223  -4.250 -11.235  0.00  0.00     0.195 C 
BRANCH  14  15
HETATM   15  C           1     -22.210  -3.109 -12.221  0.00  0.00     0.197 C 
HETATM   16  O           1     -21.770  -1.990 -11.878  0.00  0.00    -0.646 OA
HETATM   17  O           1     -22.637  -3.282 -13.384  0.00  0.00    -0.646 OA
ENDBRANCH  14  15
BRANCH  14  18
HETATM   18  C           1     -23.625  -4.840 -11.159  0.00  0.00     0.149 C 
BRANCH  18  19
HETATM   19  C           1     -24.418  -4.119 -10.097  0.00  0.00     0.175 C 
HETATM   20  O           1     -25.215  -3.212 -10.421  0.00  0.00    -0.648 OA
HETATM   21  O           1     -24.279  -4.428  -8.893  0.00  0.00    -0.648 OA
ENDBRANCH  18  19
ENDBRANCH  14  18
ENDBRANCH   2  14
TORSDOF 9
ENDMDL
MODEL 5
REMARK VINA RESULT:      -5.3     12.163     14.091
REMARK  9 active torsions:
REMARK  status: ('A' for Active; 'I' for Inactive)
REMARK    1  A    between atoms: C_1  and  C_2 
REMARK    2  A    between atoms: C_1  and  C_8 
REMARK    3  A    between atoms: C_1  and  N_14 
REMARK       I    between atoms: C_2  and  N_3 
REMARK    4  A    between atoms: N_3  and  C_21 
REMARK    5  A    between atoms: Se_6  and  C_7 
REMARK    6  A    between atoms: C_7  and  C_8 
REMARK    7  A    between atoms: C_10  and  C_21 
REMARK    8  A    between atoms: C_18  and  C_20 
REMARK    9  A    between atoms: C_20  and  C_21 
ROOT
HETATM    1  C           1     -21.564  -4.763  -8.271  0.00  0.00     0.249 C 
HETATM    2  N           1     -22.278  -4.235  -9.313  0.00  0.00    -0.344 N 
HETATM    3  O           1     -20.668  -5.544  -8.488  0.00  0.00    -0.271 OA
HETATM    4  H           1     -23.028  -3.581  -9.131  0.00  0.00     0.163 HD
ENDROOT
BRANCH   1   5
HETATM    5  C           1     -21.897  -4.371  -6.853  0.00  0.00     0.274 C 
BRANCH   5   6
HETATM    6  C           1     -21.081  -5.219  -5.886  0.00  0.00     0.042 C 
BRANCH   6   7
HETATM    7  C           1     -21.979  -6.271  -5.249  0.00  0.00     0.003 C 
BRANCH   7   8
HETATM    8 Se           1     -21.566  -6.416  -3.350  0.00  0.00     0.000 Se
HETATM    9  C           1     -21.322  -8.349  -3.382  0.00  0.00     0.000 C 
ENDBRANCH   7   8
ENDBRANCH   6   7
ENDBRANCH   5   6
BRANCH   5  10
HETATM   10  N           1     -23.358  -4.594  -6.602  0.00  0.00    -0.067 N 
HETATM   11  H           1     -23.587  -5.603  -6.750  0.00  0.00     0.275 HD
HETATM   12  H           1     -23.587  -4.327  -5.618  0.00  0.00     0.275 HD
HETATM   13  H           1     -23.919  -4.010  -7.262  0.00  0.00     0.275 HD
ENDBRANCH   5  10
ENDBRANCH   1   5
BRANCH   2  14
HETATM   14  C           1     -21.958  -4.612 -10.676  0.00  0.00     0.195 C 
BRANCH  14  15
HETATM   15  C           1     -21.010  -3.600 -11.268  0.00  0.00     0.197 C 
HETATM   16  O           1     -19.804  -3.891 -11.427  0.00  0.00    -0.646 OA
HETATM   17  O           1     -21.429  -2.470 -11.602  0.00  0.00    -0.646 OA
ENDBRANCH  14  15
BRANCH  14  18
HETATM   18  C           1     -23.237  -4.656 -11.503  0.00  0.00     0.149 C 
BRANCH  18  19
HETATM   19  C           1     -24.372  -4.061 -10.707  0.00  0.00     0.175 C 
HETATM   20  O           1     -24.712  -2.873 -10.897  0.00  0.00    -0.648 OA
HETATM   21  O           1     -24.973  -4.755  -9.859  0.00  0.00    -0.648 OA
ENDBRANCH  18  19
ENDBRANCH  14  18
ENDBRANCH   2  14
TORSDOF 9
ENDMDL
MODEL 6
REMARK VINA RESULT:      -5.2      9.654     11.155
REMARK  9 active torsions:
REMARK  status: ('A' for Active; 'I' for Inactive)
REMARK    1  A    between atoms: C_1  and  C_2 
REMARK    2  A    between atoms: C_1  and  C_8 
REMARK    3  A    between atoms: C_1  and  N_14 
REMARK       I    between atoms: C_2  and  N_3 
REMARK    4  A    between atoms: N_3  and  C_21 
REMARK    5  A    between atoms: Se_6  and  C_7 
REMARK    6  A    between atoms: C_7  and  C_8 
REMARK    7  A    between atoms: C_10  and  C_21 
REMARK    8  A    between atoms: C_18  and  C_20 
REMARK    9  A    between atoms: C_20  and  C_21 
ROOT
HETATM    1  C           1     -27.034  -6.405 -17.535  0.00  0.00     0.249 C 
HETATM    2  N           1     -28.032  -6.775 -18.396  0.00  0.00    -0.344 N 
HETATM    3  O           1     -27.296  -6.140 -16.386  0.00  0.00    -0.271 OA
HETATM    4  H           1     -27.812  -6.997 -19.359  0.00  0.00     0.163 HD
ENDROOT
BRANCH   1   5
HETATM    5  C           1     -25.608  -6.326 -18.022  0.00  0.00     0.274 C 
BRANCH   5   6
HETATM    6  C           1     -25.550  -6.724 -19.490  0.00  0.00     0.042 C 
BRANCH   6   7
HETATM    7  C           1     -24.237  -7.443 -19.771  0.00  0.00     0.003 C 
BRANCH   7   8
HETATM    8 Se           1     -24.190  -8.009 -21.636  0.00  0.00     0.000 Se
HETATM    9  C           1     -22.360  -8.674 -21.559  0.00  0.00     0.000 C 
ENDBRANCH   7   8
ENDBRANCH   6   7
ENDBRANCH   5   6
BRANCH   5  10
HETATM   10  N           1     -24.753  -7.259 -17.217  0.00  0.00    -0.067 N 
HETATM   11  H           1     -24.101  -7.772 -17.853  0.00  0.00     0.275 HD
HETATM   12  H           1     -24.199  -6.710 -16.522  0.00  0.00     0.275 HD
HETATM   13  H           1     -25.361  -7.945 -16.716  0.00  0.00     0.275 HD
ENDBRANCH   5  10
ENDBRANCH   1   5
BRANCH   2  14
HETATM   14  C           1     -29.402  -6.851 -17.929  0.00  0.00     0.195 C 
BRANCH  14  15
HETATM   15  C           1     -30.128  -7.943 -18.675  0.00  0.00     0.197 C 
HETATM   16  O           1     -31.377  -7.990 -18.655  0.00  0.00    -0.646 OA
HETATM   17  O           1     -29.480  -8.801 -19.313  0.00  0.00    -0.646 OA
ENDBRANCH  14  15
BRANCH  14  18
HETATM   18  C           1     -30.097  -5.519 -18.177  0.00  0.00     0.149 C 
BRANCH  18  19
HETATM   19  C           1     -30.680  -5.006 -16.883  0.00  0.00     0.175 C 
HETATM   20  O           1     -31.524  -4.085 -16.900  0.00  0.00    -0.648 OA
HETATM   21  O           1     -30.320  -5.504 -15.794  0.00  0.00    -0.648 OA
ENDBRANCH  18  19
ENDBRANCH  14  18
ENDBRANCH   2  14
TORSDOF 9
ENDMDL
MODEL 7
REMARK VINA RESULT:      -5.2     12.092     13.801
REMARK  9 active torsions:
REMARK  status: ('A' for Active; 'I' for Inactive)
REMARK    1  A    between atoms: C_1  and  C_2 
REMARK    2  A    between atoms: C_1  and  C_8 
REMARK    3  A    between atoms: C_1  and  N_14 
REMARK       I    between atoms: C_2  and  N_3 
REMARK    4  A    between atoms: N_3  and  C_21 
REMARK    5  A    between atoms: Se_6  and  C_7 
REMARK    6  A    between atoms: C_7  and  C_8 
REMARK    7  A    between atoms: C_10  and  C_21 
REMARK    8  A    between atoms: C_18  and  C_20 
REMARK    9  A    between atoms: C_20  and  C_21 
ROOT
HETATM    1  C           1     -21.734  -4.774  -7.847  0.00  0.00     0.249 C 
HETATM    2  N           1     -22.209  -5.069  -9.096  0.00  0.00    -0.344 N 
HETATM    3  O           1     -21.755  -3.635  -7.446  0.00  0.00    -0.271 OA
HETATM    4  H           1     -22.191  -6.023  -9.432  0.00  0.00     0.163 HD
ENDROOT
BRANCH   1   5
HETATM    5  C           1     -21.181  -5.872  -6.971  0.00  0.00     0.274 C 
BRANCH   5   6
HETATM    6  C           1     -21.216  -5.427  -5.515  0.00  0.00     0.042 C 
BRANCH   6   7
HETATM    7  C           1     -20.940  -6.621  -4.612  0.00  0.00     0.003 C 
BRANCH   7   8
HETATM    8 Se           1     -21.613  -6.251  -2.820  0.00  0.00     0.000 Se
HETATM    9  C           1     -21.426  -8.086  -2.192  0.00  0.00     0.000 C 
ENDBRANCH   7   8
ENDBRANCH   6   7
ENDBRANCH   5   6
BRANCH   5  10
HETATM   10  N           1     -19.765  -6.165  -7.370  0.00  0.00    -0.067 N 
HETATM   11  H           1     -19.129  -5.973  -6.564  0.00  0.00     0.275 HD
HETATM   12  H           1     -19.683  -7.169  -7.647  0.00  0.00     0.275 HD
HETATM   13  H           1     -19.498  -5.557  -8.177  0.00  0.00     0.275 HD
ENDBRANCH   5  10
ENDBRANCH   1   5
BRANCH   2  14
HETATM   14  C           1     -22.740  -4.014  -9.937  0.00  0.00     0.195 C 
BRANCH  14  15
HETATM   15  C           1     -24.234  -3.927  -9.751  0.00  0.00     0.197 C 
HETATM   16  O           1     -24.941  -4.952  -9.869  0.00  0.00    -0.646 OA
HETATM   17  O           1     -24.768  -2.829  -9.477  0.00  0.00    -0.646 OA
ENDBRANCH  14  15
BRANCH  14  18
HETATM   18  C           1     -22.427  -4.322 -11.395  0.00  0.00     0.149 C 
BRANCH  18  19
HETATM   19  C           1     -23.012  -3.246 -12.275  0.00  0.00     0.175 C 
HETATM   20  O           1     -22.629  -2.062 -12.154  0.00  0.00    -0.648 OA
HETATM   21  O           1     -23.882  -3.537 -13.126  0.00  0.00    -0.648 OA
ENDBRANCH  18  19
ENDBRANCH  14  18
ENDBRANCH   2  14
TORSDOF 9
ENDMDL
MODEL 8
REMARK VINA RESULT:      -5.2      1.965      3.506
REMARK  9 active torsions:
REMARK  status: ('A' for Active; 'I' for Inactive)
REMARK    1  A    between atoms: C_1  and  C_2 
REMARK    2  A    between atoms: C_1  and  C_8 
REMARK    3  A    between atoms: C_1  and  N_14 
REMARK       I    between atoms: C_2  and  N_3 
REMARK    4  A    between atoms: N_3  and  C_21 
REMARK    5  A    between atoms: Se_6  and  C_7 
REMARK    6  A    between atoms: C_7  and  C_8 
REMARK    7  A    between atoms: C_10  and  C_21 
REMARK    8  A    between atoms: C_18  and  C_20 
REMARK    9  A    between atoms: C_20  and  C_21 
ROOT
HETATM    1  C           1     -35.819  -1.031 -12.968  0.00  0.00     0.249 C 
HETATM    2  N           1     -35.168  -0.601 -14.092  0.00  0.00    -0.344 N 
HETATM    3  O           1     -37.024  -0.968 -12.907  0.00  0.00    -0.271 OA
HETATM    4  H           1     -34.158  -0.655 -14.144  0.00  0.00     0.163 HD
ENDROOT
BRANCH   1   5
HETATM    5  C           1     -35.032  -1.582 -11.804  0.00  0.00     0.274 C 
BRANCH   5   6
HETATM    6  C           1     -34.541  -2.984 -12.141  0.00  0.00     0.042 C 
BRANCH   6   7
HETATM    7  C           1     -35.210  -3.993 -11.219  0.00  0.00     0.003 C 
BRANCH   7   8
HETATM    8 Se           1     -34.024  -5.517 -10.951  0.00  0.00     0.000 Se
HETATM    9  C           1     -32.515  -4.717 -11.890  0.00  0.00     0.000 C 
ENDBRANCH   7   8
ENDBRANCH   6   7
ENDBRANCH   5   6
BRANCH   5  10
HETATM   10  N           1     -35.910  -1.640 -10.589  0.00  0.00    -0.067 N 
HETATM   11  H           1     -35.802  -0.759 -10.038  0.00  0.00     0.275 HD
HETATM   12  H           1     -36.907  -1.744 -10.886  0.00  0.00     0.275 HD
HETATM   13  H           1     -35.634  -2.456  -9.999  0.00  0.00     0.275 HD
ENDBRANCH   5  10
ENDBRANCH   1   5
BRANCH   2  14
HETATM   14  C           1     -35.923  -0.072 -15.211  0.00  0.00     0.195 C 
BRANCH  14  15
HETATM   15  C           1     -35.725  -0.957 -16.416  0.00  0.00     0.197 C 
HETATM   16  O           1     -36.609  -1.020 -17.298  0.00  0.00    -0.646 OA
HETATM   17  O           1     -34.676  -1.627 -16.534  0.00  0.00    -0.646 OA
ENDBRANCH  14  15
BRANCH  14  18
HETATM   18  C           1     -35.439   1.336 -15.529  0.00  0.00     0.149 C 
BRANCH  18  19
HETATM   19  C           1     -36.536   2.102 -16.226  0.00  0.00     0.175 C 
HETATM   20  O           1     -36.259   3.117 -16.900  0.00  0.00    -0.648 OA
HETATM   21  O           1     -37.723   1.721 -16.129  0.00  0.00    -0.648 OA
ENDBRANCH  18  19
ENDBRANCH  14  18
ENDBRANCH   2  14
TORSDOF 9
ENDMDL
MODEL 9
REMARK VINA RESULT:      -5.1     14.281     16.921
REMARK  9 active torsions:
REMARK  status: ('A' for Active; 'I' for Inactive)
REMARK    1  A    between atoms: C_1  and  C_2 
REMARK    2  A    between atoms: C_1  and  C_8 
REMARK    3  A    between atoms: C_1  and  N_14 
REMARK       I    between atoms: C_2  and  N_3 
REMARK    4  A    between atoms: N_3  and  C_21 
REMARK    5  A    between atoms: Se_6  and  C_7 
REMARK    6  A    between atoms: C_7  and  C_8 
REMARK    7  A    between atoms: C_10  and  C_21 
REMARK    8  A    between atoms: C_18  and  C_20 
REMARK    9  A    between atoms: C_20  and  C_21 
ROOT
HETATM    1  C           1     -21.435  -5.811  -5.637  0.00  0.00     0.249 C 
HETATM    2  N           1     -20.875  -6.710  -4.770  0.00  0.00    -0.344 N 
HETATM    3  O           1     -22.632  -5.650  -5.649  0.00  0.00    -0.271 OA
HETATM    4  H           1     -19.873  -6.846  -4.759  0.00  0.00     0.163 HD
ENDROOT
BRANCH   1   5
HETATM    5  C           1     -20.557  -5.023  -6.578  0.00  0.00     0.274 C 
BRANCH   5   6
HETATM    6  C           1     -21.367  -3.894  -7.202  0.00  0.00     0.042 C 
BRANCH   6   7
HETATM    7  C           1     -21.681  -4.235  -8.652  0.00  0.00     0.003 C 
BRANCH   7   8
HETATM    8 Se           1     -23.583  -3.969  -8.985  0.00  0.00     0.000 Se
HETATM    9  C           1     -23.581  -4.897 -10.699  0.00  0.00     0.000 C 
ENDBRANCH   7   8
ENDBRANCH   6   7
ENDBRANCH   5   6
BRANCH   5  10
HETATM   10  N           1     -20.045  -5.928  -7.659  0.00  0.00    -0.067 N 
HETATM   11  H           1     -20.657  -6.772  -7.727  0.00  0.00     0.275 HD
HETATM   12  H           1     -20.055  -5.418  -8.571  0.00  0.00     0.275 HD
HETATM   13  H           1     -19.069  -6.223  -7.434  0.00  0.00     0.275 HD
ENDBRANCH   5  10
ENDBRANCH   1   5
BRANCH   2  14
HETATM   14  C           1     -21.719  -7.468  -3.866  0.00  0.00     0.195 C 
BRANCH  14  15
HETATM   15  C           1     -21.623  -6.882  -2.479  0.00  0.00     0.197 C 
HETATM   16  O           1     -22.293  -5.869  -2.180  0.00  0.00    -0.646 OA
HETATM   17  O           1     -20.874  -7.409  -1.628  0.00  0.00    -0.646 OA
ENDBRANCH  14  15
BRANCH  14  18
HETATM   18  C           1     -21.257  -8.919  -3.838  0.00  0.00     0.149 C 
BRANCH  18  19
HETATM   19  C           1     -19.964  -9.052  -4.603  0.00  0.00     0.175 C 
HETATM   20  O           1     -18.872  -8.881  -4.019  0.00  0.00    -0.648 OA
HETATM   21  O           1     -19.984  -9.332  -5.822  0.00  0.00    -0.648 OA
ENDBRANCH  18  19
ENDBRANCH  14  18
ENDBRANCH   2  14
TORSDOF 9
ENDMDL
