MODEL 1
REMARK VINA RESULT:      -5.3      0.000      0.000
REMARK  9 active torsions:
REMARK  status: ('A' for Active; 'I' for Inactive)
REMARK    1  A    between atoms: N_1  and  C_8 
REMARK       I    between atoms: N_1  and  C_3 
REMARK    2  A    between atoms: C_2  and  C_13 
REMARK    3  A    between atoms: C_2  and  C_8 
REMARK    4  A    between atoms: C_3  and  C_7 
REMARK    5  A    between atoms: O_4  and  C_11 
REMARK    6  A    between atoms: C_7  and  C_11 
REMARK    7  A    between atoms: C_7  and  N_18 
REMARK    8  A    between atoms: C_8  and  C_20 
REMARK    9  A    between atoms: C_13  and  Se_14 
ROOT
HETATM    1  N           1     -22.069  -4.768  -8.780  0.00  0.00    -0.345 N 
HETATM    2  C           1     -21.549  -4.361  -7.581  0.00  0.00     0.251 C 
HETATM    3  H           1     -22.062  -5.749  -9.028  0.00  0.00     0.163 HD
HETATM    4  O           1     -21.559  -3.190  -7.285  0.00  0.00    -0.271 OA
ENDROOT
BRANCH   1   5
HETATM    5  C           1     -22.631  -3.794  -9.695  0.00  0.00     0.185 C 
BRANCH   5   6
HETATM    6  C           1     -22.142  -4.084 -11.108  0.00  0.00     0.036 C 
BRANCH   6   7
HETATM    7  C           1     -22.345  -2.852 -11.979  0.00  0.00     0.003 C 
BRANCH   7   8
HETATM    8 Se           1     -23.830  -3.158 -13.204  0.00  0.00     0.000 Se
HETATM    9  C           1     -22.879  -2.513 -14.778  0.00  0.00     0.000 C 
ENDBRANCH   7   8
ENDBRANCH   6   7
ENDBRANCH   5   6
BRANCH   5  10
HETATM   10  C           1     -24.137  -3.878  -9.657  0.00  0.00     0.196 C 
HETATM   11  O           1     -24.815  -2.854  -9.420  0.00  0.00    -0.646 OA
HETATM   12  O           1     -24.707  -4.971  -9.860  0.00  0.00    -0.646 OA
ENDBRANCH   5  10
ENDBRANCH   1   5
BRANCH   2  13
HETATM   13  C           1     -20.965  -5.375  -6.628  0.00  0.00     0.297 C 
BRANCH  13  14
HETATM   14  C           1     -22.053  -5.876  -5.688  0.00  0.00     0.206 C 
BRANCH  14  15
HETATM   15  O           1     -23.277  -5.285  -6.031  0.00  0.00    -0.398 OA
HETATM   16  H           1     -23.083  -4.429  -6.371  0.00  0.00     0.209 HD
ENDBRANCH  14  15
ENDBRANCH  13  14
BRANCH  13  17
HETATM   17  N           1     -19.869  -4.734  -5.828  0.00  0.00    -0.064 N 
HETATM   18  H           1     -20.233  -4.479  -4.882  0.00  0.00     0.275 HD
HETATM   19  H           1     -19.075  -5.405  -5.725  0.00  0.00     0.275 HD
HETATM   20  H           1     -19.539  -3.873  -6.319  0.00  0.00     0.275 HD
ENDBRANCH  13  17
ENDBRANCH   2  13
TORSDOF 9
ENDMDL
MODEL 2
REMARK VINA RESULT:      -5.2      3.266      6.241
REMARK  9 active torsions:
REMARK  status: ('A' for Active; 'I' for Inactive)
REMARK    1  A    between atoms: N_1  and  C_8 
REMARK       I    between atoms: N_1  and  C_3 
REMARK    2  A    between atoms: C_2  and  C_13 
REMARK    3  A    between atoms: C_2  and  C_8 
REMARK    4  A    between atoms: C_3  and  C_7 
REMARK    5  A    between atoms: O_4  and  C_11 
REMARK    6  A    between atoms: C_7  and  C_11 
REMARK    7  A    between atoms: C_7  and  N_18 
REMARK    8  A    between atoms: C_8  and  C_20 
REMARK    9  A    between atoms: C_13  and  Se_14 
ROOT
HETATM    1  N           1     -23.174  -3.243 -11.784  0.00  0.00    -0.345 N 
HETATM    2  C           1     -23.675  -3.179 -13.057  0.00  0.00     0.251 C 
HETATM    3  H           1     -22.444  -2.603 -11.496  0.00  0.00     0.163 HD
HETATM    4  O           1     -24.546  -3.942 -13.401  0.00  0.00    -0.271 OA
ENDROOT
BRANCH   1   5
HETATM    5  C           1     -23.687  -4.226 -10.850  0.00  0.00     0.185 C 
BRANCH   5   6
HETATM    6  C           1     -22.525  -4.899 -10.133  0.00  0.00     0.036 C 
BRANCH   6   7
HETATM    7  C           1     -21.247  -4.108 -10.382  0.00  0.00     0.003 C 
BRANCH   7   8
HETATM    8 Se           1     -20.121  -4.173  -8.792  0.00  0.00     0.000 Se
HETATM    9  C           1     -21.317  -5.344  -7.793  0.00  0.00     0.000 C 
ENDBRANCH   7   8
ENDBRANCH   6   7
ENDBRANCH   5   6
BRANCH   5  10
HETATM   10  C           1     -24.576  -3.543  -9.840  0.00  0.00     0.196 C 
HETATM   11  O           1     -25.722  -3.167 -10.168  0.00  0.00    -0.646 OA
HETATM   12  O           1     -24.165  -3.353  -8.675  0.00  0.00    -0.646 OA
ENDBRANCH   5  10
ENDBRANCH   1   5
BRANCH   2  13
HETATM   13  C           1     -23.141  -2.156 -14.029  0.00  0.00     0.297 C 
BRANCH  13  14
HETATM   14  C           1     -24.301  -1.383 -14.642  0.00  0.00     0.206 C 
BRANCH  14  15
HETATM   15  O           1     -23.862  -0.110 -15.033  0.00  0.00    -0.398 OA
HETATM   16  H           1     -24.631   0.404 -15.207  0.00  0.00     0.209 HD
ENDBRANCH  14  15
ENDBRANCH  13  14
BRANCH  13  17
HETATM   17  N           1     -22.375  -2.852 -15.114  0.00  0.00    -0.064 N 
HETATM   18  H           1     -21.772  -2.160 -15.614  0.00  0.00     0.275 HD
HETATM   19  H           1     -21.775  -3.597 -14.694  0.00  0.00     0.275 HD
HETATM   20  H           1     -23.044  -3.283 -15.791  0.00  0.00     0.275 HD
ENDBRANCH  13  17
ENDBRANCH   2  13
TORSDOF 9
ENDMDL
MODEL 3
REMARK VINA RESULT:      -5.1      3.001      5.766
REMARK  9 active torsions:
REMARK  status: ('A' for Active; 'I' for Inactive)
REMARK    1  A    between atoms: N_1  and  C_8 
REMARK       I    between atoms: N_1  and  C_3 
REMARK    2  A    between atoms: C_2  and  C_13 
REMARK    3  A    between atoms: C_2  and  C_8 
REMARK    4  A    between atoms: C_3  and  C_7 
REMARK    5  A    between atoms: O_4  and  C_11 
REMARK    6  A    between atoms: C_7  and  C_11 
REMARK    7  A    between atoms: C_7  and  N_18 
REMARK    8  A    between atoms: C_8  and  C_20 
REMARK    9  A    between atoms: C_13  and  Se_14 
ROOT
HETATM    1  N           1     -22.278  -3.306 -10.381  0.00  0.00    -0.345 N 
HETATM    2  C           1     -22.656  -3.762 -11.616  0.00  0.00     0.251 C 
HETATM    3  H           1     -22.094  -2.321 -10.241  0.00  0.00     0.163 HD
HETATM    4  O           1     -22.876  -4.938 -11.784  0.00  0.00    -0.271 OA
ENDROOT
BRANCH   1   5
HETATM    5  C           1     -22.141  -4.235  -9.276  0.00  0.00     0.185 C 
BRANCH   5   6
HETATM    6  C           1     -20.910  -3.871  -8.458  0.00  0.00     0.036 C 
BRANCH   6   7
HETATM    7  C           1     -20.164  -5.142  -8.070  0.00  0.00     0.003 C 
BRANCH   7   8
HETATM    8 Se           1     -20.002  -5.235  -6.130  0.00  0.00     0.000 Se
HETATM    9  C           1     -21.094  -6.839  -5.952  0.00  0.00     0.000 C 
ENDBRANCH   7   8
ENDBRANCH   6   7
ENDBRANCH   5   6
BRANCH   5  10
HETATM   10  C           1     -23.369  -4.157  -8.401  0.00  0.00     0.196 C 
HETATM   11  O           1     -24.461  -3.790  -8.886  0.00  0.00    -0.646 OA
HETATM   12  O           1     -23.292  -4.459  -7.191  0.00  0.00    -0.646 OA
ENDBRANCH   5  10
ENDBRANCH   1   5
BRANCH   2  13
HETATM   13  C           1     -22.798  -2.796 -12.767  0.00  0.00     0.297 C 
BRANCH  13  14
HETATM   14  C           1     -24.274  -2.535 -13.032  0.00  0.00     0.206 C 
BRANCH  14  15
HETATM   15  O           1     -25.036  -3.012 -11.956  0.00  0.00    -0.398 OA
HETATM   16  H           1     -25.086  -2.315 -11.324  0.00  0.00     0.209 HD
ENDBRANCH  14  15
ENDBRANCH  13  14
BRANCH  13  17
HETATM   17  N           1     -22.167  -3.386 -13.993  0.00  0.00    -0.064 N 
HETATM   18  H           1     -21.555  -2.671 -14.448  0.00  0.00     0.275 HD
HETATM   19  H           1     -21.590  -4.214 -13.724  0.00  0.00     0.275 HD
HETATM   20  H           1     -22.913  -3.681 -14.661  0.00  0.00     0.275 HD
ENDBRANCH  13  17
ENDBRANCH   2  13
TORSDOF 9
ENDMDL
MODEL 4
REMARK VINA RESULT:      -4.8      3.389      6.273
REMARK  9 active torsions:
REMARK  status: ('A' for Active; 'I' for Inactive)
REMARK    1  A    between atoms: N_1  and  C_8 
REMARK       I    between atoms: N_1  and  C_3 
REMARK    2  A    between atoms: C_2  and  C_13 
REMARK    3  A    between atoms: C_2  and  C_8 
REMARK    4  A    between atoms: C_3  and  C_7 
REMARK    5  A    between atoms: O_4  and  C_11 
REMARK    6  A    between atoms: C_7  and  C_11 
REMARK    7  A    between atoms: C_7  and  N_18 
REMARK    8  A    between atoms: C_8  and  C_20 
REMARK    9  A    between atoms: C_13  and  Se_14 
ROOT
HETATM    1  N           1     -22.219  -5.282  -8.591  0.00  0.00    -0.345 N 
HETATM    2  C           1     -23.089  -4.308  -9.004  0.00  0.00     0.251 C 
HETATM    3  H           1     -22.302  -6.222  -8.955  0.00  0.00     0.163 HD
HETATM    4  O           1     -22.989  -3.186  -8.569  0.00  0.00    -0.271 OA
ENDROOT
BRANCH   1   5
HETATM    5  C           1     -21.180  -4.966  -7.630  0.00  0.00     0.185 C 
BRANCH   5   6
HETATM    6  C           1     -20.976  -6.151  -6.695  0.00  0.00     0.036 C 
BRANCH   6   7
HETATM    7  C           1     -21.159  -5.697  -5.253  0.00  0.00     0.003 C 
BRANCH   7   8
HETATM    8 Se           1     -21.486  -7.248  -4.119  0.00  0.00     0.000 Se
HETATM    9  C           1     -21.824  -6.204  -2.509  0.00  0.00     0.000 C 
ENDBRANCH   7   8
ENDBRANCH   6   7
ENDBRANCH   5   6
BRANCH   5  10
HETATM   10  C           1     -19.892  -4.674  -8.362  0.00  0.00     0.196 C 
HETATM   11  O           1     -19.835  -4.805  -9.604  0.00  0.00    -0.646 OA
HETATM   12  O           1     -18.883  -4.303  -7.725  0.00  0.00    -0.646 OA
ENDBRANCH   5  10
ENDBRANCH   1   5
BRANCH   2  13
HETATM   13  C           1     -24.171  -4.637 -10.004  0.00  0.00     0.297 C 
BRANCH  13  14
HETATM   14  C           1     -23.598  -4.571 -11.413  0.00  0.00     0.206 C 
BRANCH  14  15
HETATM   15  O           1     -22.223  -4.303 -11.348  0.00  0.00    -0.398 OA
HETATM   16  H           1     -21.831  -4.696 -12.109  0.00  0.00     0.209 HD
ENDBRANCH  14  15
ENDBRANCH  13  14
BRANCH  13  17
HETATM   17  N           1     -25.288  -3.645  -9.872  0.00  0.00    -0.064 N 
HETATM   18  H           1     -25.891  -3.683 -10.725  0.00  0.00     0.275 HD
HETATM   19  H           1     -25.863  -3.878  -9.031  0.00  0.00     0.275 HD
HETATM   20  H           1     -24.891  -2.684  -9.769  0.00  0.00     0.275 HD
ENDBRANCH  13  17
ENDBRANCH   2  13
TORSDOF 9
ENDMDL
MODEL 5
REMARK VINA RESULT:      -4.6      3.466      6.337
REMARK  9 active torsions:
REMARK  status: ('A' for Active; 'I' for Inactive)
REMARK    1  A    between atoms: N_1  and  C_8 
REMARK       I    between atoms: N_1  and  C_3 
REMARK    2  A    between atoms: C_2  and  C_13 
REMARK    3  A    between atoms: C_2  and  C_8 
REMARK    4  A    between atoms: C_3  and  C_7 
REMARK    5  A    between atoms: O_4  and  C_11 
REMARK    6  A    between atoms: C_7  and  C_11 
REMARK    7  A    between atoms: C_7  and  N_18 
REMARK    8  A    between atoms: C_8  and  C_20 
REMARK    9  A    between atoms: C_13  and  Se_14 
ROOT
HETATM    1  N           1     -22.568  -4.223 -10.869  0.00  0.00    -0.345 N 
HETATM    2  C           1     -22.834  -3.246 -11.791  0.00  0.00     0.251 C 
HETATM    3  H           1     -23.029  -5.121 -10.937  0.00  0.00     0.163 HD
HETATM    4  O           1     -22.284  -2.174 -11.711  0.00  0.00    -0.271 OA
ENDROOT
BRANCH   1   5
HETATM    5  C           1     -21.624  -3.970  -9.797  0.00  0.00     0.185 C 
BRANCH   5   6
HETATM    6  C           1     -22.096  -4.673  -8.531  0.00  0.00     0.036 C 
BRANCH   6   7
HETATM    7  C           1     -21.813  -3.789  -7.324  0.00  0.00     0.003 C 
BRANCH   7   8
HETATM    8 Se           1     -20.583  -4.704  -6.121  0.00  0.00     0.000 Se
HETATM    9  C           1     -21.891  -6.019  -5.520  0.00  0.00     0.000 C 
ENDBRANCH   7   8
ENDBRANCH   6   7
ENDBRANCH   5   6
BRANCH   5  10
HETATM   10  C           1     -20.265  -4.497 -10.190  0.00  0.00     0.196 C 
HETATM   11  O           1     -19.790  -4.226 -11.314  0.00  0.00    -0.646 OA
HETATM   12  O           1     -19.616  -5.205  -9.391  0.00  0.00    -0.646 OA
ENDBRANCH   5  10
ENDBRANCH   1   5
BRANCH   2  13
HETATM   13  C           1     -23.816  -3.508 -12.907  0.00  0.00     0.297 C 
BRANCH  13  14
HETATM   14  C           1     -23.435  -2.679 -14.125  0.00  0.00     0.206 C 
BRANCH  14  15
HETATM   15  O           1     -24.175  -1.488 -14.132  0.00  0.00    -0.398 OA
HETATM   16  H           1     -24.322  -1.261 -15.034  0.00  0.00     0.209 HD
ENDBRANCH  14  15
ENDBRANCH  13  14
BRANCH  13  17
HETATM   17  N           1     -25.196  -3.128 -12.456  0.00  0.00    -0.064 N 
HETATM   18  H           1     -25.882  -3.837 -12.802  0.00  0.00     0.275 HD
HETATM   19  H           1     -25.225  -3.098 -11.412  0.00  0.00     0.275 HD
HETATM   20  H           1     -25.441  -2.189 -12.841  0.00  0.00     0.275 HD
ENDBRANCH  13  17
ENDBRANCH   2  13
TORSDOF 9
ENDMDL
MODEL 6
REMARK VINA RESULT:      -4.4      2.428      3.175
REMARK  9 active torsions:
REMARK  status: ('A' for Active; 'I' for Inactive)
REMARK    1  A    between atoms: N_1  and  C_8 
REMARK       I    between atoms: N_1  and  C_3 
REMARK    2  A    between atoms: C_2  and  C_13 
REMARK    3  A    between atoms: C_2  and  C_8 
REMARK    4  A    between atoms: C_3  and  C_7 
REMARK    5  A    between atoms: O_4  and  C_11 
REMARK    6  A    between atoms: C_7  and  C_11 
REMARK    7  A    between atoms: C_7  and  N_18 
REMARK    8  A    between atoms: C_8  and  C_20 
REMARK    9  A    between atoms: C_13  and  Se_14 
ROOT
HETATM    1  N           1     -22.061  -4.838  -7.154  0.00  0.00    -0.345 N 
HETATM    2  C           1     -21.608  -5.956  -6.505  0.00  0.00     0.251 C 
HETATM    3  H           1     -22.481  -4.083  -6.628  0.00  0.00     0.163 HD
HETATM    4  O           1     -21.107  -6.857  -7.134  0.00  0.00    -0.271 OA
ENDROOT
BRANCH   1   5
HETATM    5  C           1     -21.940  -4.738  -8.596  0.00  0.00     0.185 C 
BRANCH   5   6
HETATM    6  C           1     -22.920  -3.694  -9.116  0.00  0.00     0.036 C 
BRANCH   6   7
HETATM    7  C           1     -24.024  -4.383  -9.907  0.00  0.00     0.003 C 
BRANCH   7   8
HETATM    8 Se           1     -23.474  -4.567 -11.767  0.00  0.00     0.000 Se
HETATM    9  C           1     -22.640  -2.808 -11.865  0.00  0.00     0.000 C 
ENDBRANCH   7   8
ENDBRANCH   6   7
ENDBRANCH   5   6
BRANCH   5  10
HETATM   10  C           1     -20.532  -4.330  -8.955  0.00  0.00     0.196 C 
HETATM   11  O           1     -20.055  -4.641 -10.068  0.00  0.00    -0.646 OA
HETATM   12  O           1     -19.843  -3.683  -8.138  0.00  0.00    -0.646 OA
ENDBRANCH   5  10
ENDBRANCH   1   5
BRANCH   2  13
HETATM   13  C           1     -21.734  -6.060  -5.005  0.00  0.00     0.297 C 
BRANCH  13  14
HETATM   14  C           1     -20.559  -5.352  -4.346  0.00  0.00     0.206 C 
BRANCH  14  15
HETATM   15  O           1     -19.857  -4.613  -5.309  0.00  0.00    -0.398 OA
HETATM   16  H           1     -18.940  -4.759  -5.151  0.00  0.00     0.209 HD
ENDBRANCH  14  15
ENDBRANCH  13  14
BRANCH  13  17
HETATM   17  N           1     -21.734  -7.506  -4.605  0.00  0.00    -0.064 N 
HETATM   18  H           1     -20.877  -7.972  -4.983  0.00  0.00     0.275 HD
HETATM   19  H           1     -21.737  -7.579  -3.563  0.00  0.00     0.275 HD
HETATM   20  H           1     -22.584  -7.974  -4.992  0.00  0.00     0.275 HD
ENDBRANCH  13  17
ENDBRANCH   2  13
TORSDOF 9
ENDMDL
MODEL 7
REMARK VINA RESULT:      -4.3      4.472      7.287
REMARK  9 active torsions:
REMARK  status: ('A' for Active; 'I' for Inactive)
REMARK    1  A    between atoms: N_1  and  C_8 
REMARK       I    between atoms: N_1  and  C_3 
REMARK    2  A    between atoms: C_2  and  C_13 
REMARK    3  A    between atoms: C_2  and  C_8 
REMARK    4  A    between atoms: C_3  and  C_7 
REMARK    5  A    between atoms: O_4  and  C_11 
REMARK    6  A    between atoms: C_7  and  C_11 
REMARK    7  A    between atoms: C_7  and  N_18 
REMARK    8  A    between atoms: C_8  and  C_20 
REMARK    9  A    between atoms: C_13  and  Se_14 
ROOT
HETATM    1  N           1     -21.204  -6.111  -6.000  0.00  0.00    -0.345 N 
HETATM    2  C           1     -20.793  -4.810  -6.120  0.00  0.00     0.251 C 
HETATM    3  H           1     -21.787  -6.525  -6.716  0.00  0.00     0.163 HD
HETATM    4  O           1     -20.096  -4.316  -5.266  0.00  0.00    -0.271 OA
ENDROOT
BRANCH   1   5
HETATM    5  C           1     -20.805  -6.894  -4.847  0.00  0.00     0.185 C 
BRANCH   5   6
HETATM    6  C           1     -21.956  -6.958  -3.853  0.00  0.00     0.036 C 
BRANCH   6   7
HETATM    7  C           1     -21.611  -6.134  -2.621  0.00  0.00     0.003 C 
BRANCH   7   8
HETATM    8 Se           1     -22.239  -7.056  -1.023  0.00  0.00     0.000 Se
HETATM    9  C           1     -21.694  -8.826  -1.631  0.00  0.00     0.000 C 
ENDBRANCH   7   8
ENDBRANCH   6   7
ENDBRANCH   5   6
BRANCH   5  10
HETATM   10  C           1     -20.443  -8.291  -5.290  0.00  0.00     0.196 C 
HETATM   11  O           1     -21.261  -9.225  -5.144  0.00  0.00    -0.646 OA
HETATM   12  O           1     -19.325  -8.514  -5.802  0.00  0.00    -0.646 OA
ENDBRANCH   5  10
ENDBRANCH   1   5
BRANCH   2  13
HETATM   13  C           1     -21.209  -3.995  -7.320  0.00  0.00     0.297 C 
BRANCH  13  14
HETATM   14  C           1     -22.544  -4.505  -7.843  0.00  0.00     0.206 C 
BRANCH  14  15
HETATM   15  O           1     -23.502  -4.446  -6.821  0.00  0.00    -0.398 OA
HETATM   16  H           1     -23.205  -3.799  -6.204  0.00  0.00     0.209 HD
ENDBRANCH  14  15
ENDBRANCH  13  14
BRANCH  13  17
HETATM   17  N           1     -20.169  -4.124  -8.394  0.00  0.00    -0.064 N 
HETATM   18  H           1     -19.673  -3.211  -8.510  0.00  0.00     0.275 HD
HETATM   19  H           1     -19.480  -4.861  -8.125  0.00  0.00     0.275 HD
HETATM   20  H           1     -20.630  -4.387  -9.294  0.00  0.00     0.275 HD
ENDBRANCH  13  17
ENDBRANCH   2  13
TORSDOF 9
ENDMDL
MODEL 8
REMARK VINA RESULT:      -4.3     17.163     18.990
REMARK  9 active torsions:
REMARK  status: ('A' for Active; 'I' for Inactive)
REMARK    1  A    between atoms: N_1  and  C_8 
REMARK       I    between atoms: N_1  and  C_3 
REMARK    2  A    between atoms: C_2  and  C_13 
REMARK    3  A    between atoms: C_2  and  C_8 
REMARK    4  A    between atoms: C_3  and  C_7 
REMARK    5  A    between atoms: O_4  and  C_11 
REMARK    6  A    between atoms: C_7  and  C_11 
REMARK    7  A    between atoms: C_7  and  N_18 
REMARK    8  A    between atoms: C_8  and  C_20 
REMARK    9  A    between atoms: C_13  and  Se_14 
ROOT
HETATM    1  N           1     -12.768   6.897 -19.857  0.00  0.00    -0.345 N 
HETATM    2  C           1     -12.292   7.947 -20.597  0.00  0.00     0.251 C 
HETATM    3  H           1     -12.912   7.004 -18.861  0.00  0.00     0.163 HD
HETATM    4  O           1     -12.122   7.819 -21.786  0.00  0.00    -0.271 OA
ENDROOT
BRANCH   1   5
HETATM    5  C           1     -13.066   5.632 -20.501  0.00  0.00     0.185 C 
BRANCH   5   6
HETATM    6  C           1     -12.429   4.498 -19.709  0.00  0.00     0.036 C 
BRANCH   6   7
HETATM    7  C           1     -11.035   4.217 -20.255  0.00  0.00     0.003 C 
BRANCH   7   8
HETATM    8 Se           1      -9.720   5.229 -19.234  0.00  0.00     0.000 Se
HETATM    9  C           1      -9.093   6.267 -20.760  0.00  0.00     0.000 C 
ENDBRANCH   7   8
ENDBRANCH   6   7
ENDBRANCH   5   6
BRANCH   5  10
HETATM   10  C           1     -14.561   5.434 -20.551  0.00  0.00     0.196 C 
HETATM   11  O           1     -15.155   5.430 -21.652  0.00  0.00    -0.646 OA
HETATM   12  O           1     -15.205   5.275 -19.493  0.00  0.00    -0.646 OA
ENDBRANCH   5  10
ENDBRANCH   1   5
BRANCH   2  13
HETATM   13  C           1     -11.983   9.263 -19.928  0.00  0.00     0.297 C 
BRANCH  13  14
HETATM   14  C           1     -10.535   9.266 -19.456  0.00  0.00     0.206 C 
BRANCH  14  15
HETATM   15  O           1     -10.436   8.573 -18.241  0.00  0.00    -0.398 OA
HETATM   16  H           1      -9.906   9.100 -17.667  0.00  0.00     0.209 HD
ENDBRANCH  14  15
ENDBRANCH  13  14
BRANCH  13  17
HETATM   17  N           1     -12.892   9.448 -18.749  0.00  0.00    -0.064 N 
HETATM   18  H           1     -12.346   9.328 -17.866  0.00  0.00     0.275 HD
HETATM   19  H           1     -13.304  10.408 -18.775  0.00  0.00     0.275 HD
HETATM   20  H           1     -13.657   8.738 -18.785  0.00  0.00     0.275 HD
ENDBRANCH  13  17
ENDBRANCH   2  13
TORSDOF 9
ENDMDL
MODEL 9
REMARK VINA RESULT:      -4.3      7.139      9.756
REMARK  9 active torsions:
REMARK  status: ('A' for Active; 'I' for Inactive)
REMARK    1  A    between atoms: N_1  and  C_8 
REMARK       I    between atoms: N_1  and  C_3 
REMARK    2  A    between atoms: C_2  and  C_13 
REMARK    3  A    between atoms: C_2  and  C_8 
REMARK    4  A    between atoms: C_3  and  C_7 
REMARK    5  A    between atoms: O_4  and  C_11 
REMARK    6  A    between atoms: C_7  and  C_11 
REMARK    7  A    between atoms: C_7  and  N_18 
REMARK    8  A    between atoms: C_8  and  C_20 
REMARK    9  A    between atoms: C_13  and  Se_14 
ROOT
HETATM    1  N           1     -21.763  -9.504  -1.032  0.00  0.00    -0.345 N 
HETATM    2  C           1     -21.635 -10.387   0.007  0.00  0.00     0.251 C 
HETATM    3  H           1     -22.216  -9.794  -1.889  0.00  0.00     0.163 HD
HETATM    4  O           1     -21.095 -10.041   1.030  0.00  0.00    -0.271 OA
ENDROOT
BRANCH   1   5
HETATM    5  C           1     -21.249  -8.154  -0.904  0.00  0.00     0.185 C 
BRANCH   5   6
HETATM    6  C           1     -20.459  -7.792  -2.154  0.00  0.00     0.036 C 
BRANCH   6   7
HETATM    7  C           1     -20.934  -8.646  -3.322  0.00  0.00     0.003 C 
BRANCH   7   8
HETATM    8 Se           1     -20.588  -7.711  -4.996  0.00  0.00     0.000 Se
HETATM    9  C           1     -22.208  -6.631  -4.918  0.00  0.00     0.000 C 
ENDBRANCH   7   8
ENDBRANCH   6   7
ENDBRANCH   5   6
BRANCH   5  10
HETATM   10  C           1     -22.401  -7.192  -0.740  0.00  0.00     0.196 C 
HETATM   11  O           1     -23.325  -7.455   0.060  0.00  0.00    -0.646 OA
HETATM   12  O           1     -22.429  -6.134  -1.404  0.00  0.00    -0.646 OA
ENDBRANCH   5  10
ENDBRANCH   1   5
BRANCH   2  13
HETATM   13  C           1     -22.170 -11.792  -0.126  0.00  0.00     0.297 C 
BRANCH  13  14
HETATM   14  C           1     -23.691 -11.764  -0.073  0.00  0.00     0.206 C 
BRANCH  14  15
HETATM   15  O           1     -24.129 -10.448   0.133  0.00  0.00    -0.398 OA
HETATM   16  H           1     -24.259 -10.066  -0.718  0.00  0.00     0.209 HD
ENDBRANCH  14  15
ENDBRANCH  13  14
BRANCH  13  17
HETATM   17  N           1     -21.645 -12.633   1.000  0.00  0.00    -0.064 N 
HETATM   18  H           1     -20.825 -12.156   1.438  0.00  0.00     0.275 HD
HETATM   19  H           1     -22.395 -12.762   1.716  0.00  0.00     0.275 HD
HETATM   20  H           1     -21.351 -13.565   0.631  0.00  0.00     0.275 HD
ENDBRANCH  13  17
ENDBRANCH   2  13
TORSDOF 9
ENDMDL
