MODEL 1
REMARK VINA RESULT:      -7.2      0.000      0.000
REMARK  8 active torsions:
REMARK  status: ('A' for Active; 'I' for Inactive)
REMARK    1  A    between atoms: C_1  and  C_19 
REMARK    2  A    between atoms: N_2  and  C_19 
REMARK       I    between atoms: N_2  and  C_13 
REMARK    3  A    between atoms: N_3  and  C_24 
REMARK    4  A    between atoms: C_9  and  C_20 
REMARK    5  A    between atoms: C_12  and  C_24 
REMARK    6  A    between atoms: C_12  and  C_28 
REMARK    7  A    between atoms: C_13  and  C_24 
REMARK    8  A    between atoms: C_19  and  C_20 
ROOT
HETATM    1  N           1     -20.767  -7.665  -5.999  0.00  0.00    -0.344 N 
HETATM    2  O           1     -19.289  -6.572  -7.264  0.00  0.00    -0.271 OA
HETATM    3  C           1     -20.237  -6.515  -6.519  0.00  0.00     0.249 C 
HETATM    4  H           1     -21.506  -8.150  -6.492  0.00  0.00     0.163 HD
ENDROOT
BRANCH   3   5
HETATM    5  C           1     -20.838  -5.179  -6.161  0.00  0.00     0.280 C 
BRANCH   5   6
HETATM    6  N           1     -20.119  -4.609  -4.974  0.00  0.00    -0.066 N 
HETATM    7  H           1     -20.759  -4.602  -4.148  0.00  0.00     0.275 HD
HETATM    8  H           1     -19.282  -5.196  -4.761  0.00  0.00     0.275 HD
HETATM    9  H           1     -19.816  -3.632  -5.187  0.00  0.00     0.275 HD
ENDBRANCH   5   6
BRANCH   5  10
HETATM   10  C           1     -20.699  -4.226  -7.342  0.00  0.00     0.101 C 
BRANCH  10  11
HETATM   11  C           1     -22.027  -4.063  -8.012  0.00  0.00     0.028 A 
HETATM   12  N           1     -22.202  -3.633  -9.302  0.00  0.00    -0.355 N 
HETATM   13  C           1     -23.501  -3.632  -9.494  0.00  0.00     0.180 A 
ATOM     14  HN          1     -21.477  -3.370  -9.970  1.00  0.00     0.166 HD
HETATM   15  N           1     -24.172  -4.046  -8.379  0.00  0.00    -0.360 N 
HETATM   16  H           1     -25.214  -4.133  -8.277  0.00  0.00     0.166 HD
HETATM   17  C           1     -23.239  -4.327  -7.419  0.00  0.00     0.114 A 
ENDBRANCH  10  11
ENDBRANCH   5  10
ENDBRANCH   3   5
BRANCH   1  18
HETATM   18  C           1     -20.271  -8.188  -4.741  0.00  0.00     0.189 C 
BRANCH  18  19
HETATM   19  C           1     -19.087  -9.087  -5.001  0.00  0.00     0.197 C 
HETATM   20  O           1     -19.044  -9.776  -6.043  0.00  0.00    -0.646 OA
HETATM   21  O           1     -18.151  -9.142  -4.175  0.00  0.00    -0.646 OA
ENDBRANCH  18  19
BRANCH  18  22
HETATM   22  C           1     -21.372  -8.984  -4.053  0.00  0.00     0.074 C 
BRANCH  22  23
HETATM   23  C           1     -21.715  -8.337  -2.747  0.00  0.00    -0.056 A 
HETATM   24  C           1     -21.853  -6.951  -2.671  0.00  0.00     0.007 A 
HETATM   25  C           1     -22.173  -6.347  -1.455  0.00  0.00     0.001 A 
HETATM   26  C           1     -22.354  -7.130  -0.315  0.00  0.00     0.000 A 
HETATM   27  C           1     -22.215  -8.516  -0.391  0.00  0.00     0.001 A 
HETATM   28  C           1     -21.896  -9.119  -1.607  0.00  0.00     0.007 A 
ENDBRANCH  22  23
ENDBRANCH  18  22
ENDBRANCH   1  18
TORSDOF 8
ENDMDL
MODEL 2
REMARK VINA RESULT:      -6.9      4.529      7.030
REMARK  8 active torsions:
REMARK  status: ('A' for Active; 'I' for Inactive)
REMARK    1  A    between atoms: C_1  and  C_19 
REMARK    2  A    between atoms: N_2  and  C_19 
REMARK       I    between atoms: N_2  and  C_13 
REMARK    3  A    between atoms: N_3  and  C_24 
REMARK    4  A    between atoms: C_9  and  C_20 
REMARK    5  A    between atoms: C_12  and  C_24 
REMARK    6  A    between atoms: C_12  and  C_28 
REMARK    7  A    between atoms: C_13  and  C_24 
REMARK    8  A    between atoms: C_19  and  C_20 
ROOT
HETATM    1  N           1     -21.864  -4.238 -10.517  0.00  0.00    -0.344 N 
HETATM    2  O           1     -21.820  -2.212 -11.455  0.00  0.00    -0.271 OA
HETATM    3  C           1     -22.194  -3.359 -11.514  0.00  0.00     0.249 C 
HETATM    4  H           1     -21.011  -4.779 -10.581  0.00  0.00     0.163 HD
ENDROOT
BRANCH   3   5
HETATM    5  C           1     -23.024  -3.824 -12.684  0.00  0.00     0.280 C 
BRANCH   5   6
HETATM    6  N           1     -23.569  -5.192 -12.399  0.00  0.00    -0.066 N 
HETATM    7  H           1     -24.451  -5.108 -11.845  0.00  0.00     0.275 HD
HETATM    8  H           1     -23.768  -5.681 -13.299  0.00  0.00     0.275 HD
HETATM    9  H           1     -22.866  -5.739 -11.852  0.00  0.00     0.275 HD
ENDBRANCH   5   6
BRANCH   5  10
HETATM   10  C           1     -24.178  -2.855 -12.906  0.00  0.00     0.101 C 
BRANCH  10  11
HETATM   11  C           1     -23.866  -1.962 -14.066  0.00  0.00     0.028 A 
HETATM   12  N           1     -24.550  -0.814 -14.372  0.00  0.00    -0.355 N 
HETATM   13  C           1     -23.964  -0.337 -15.446  0.00  0.00     0.180 A 
ATOM     14  HN          1     -25.345  -0.416 -13.872  1.00  0.00     0.166 HD
HETATM   15  N           1     -22.927  -1.132 -15.845  0.00  0.00    -0.360 N 
HETATM   16  H           1     -22.302  -0.969 -16.673  0.00  0.00     0.166 HD
HETATM   17  C           1     -22.851  -2.179 -14.969  0.00  0.00     0.114 A 
ENDBRANCH  10  11
ENDBRANCH   5  10
ENDBRANCH   3   5
BRANCH   1  18
HETATM   18  C           1     -22.737  -4.393  -9.370  0.00  0.00     0.189 C 
BRANCH  18  19
HETATM   19  C           1     -24.127  -3.929  -9.728  0.00  0.00     0.197 C 
HETATM   20  O           1     -24.416  -2.715  -9.662  0.00  0.00    -0.646 OA
HETATM   21  O           1     -24.989  -4.759 -10.091  0.00  0.00    -0.646 OA
ENDBRANCH  18  19
BRANCH  18  22
HETATM   22  C           1     -22.204  -3.559  -8.211  0.00  0.00     0.074 C 
BRANCH  22  23
HETATM   23  C           1     -21.623  -4.464  -7.170  0.00  0.00    -0.056 A 
HETATM   24  C           1     -22.459  -5.288  -6.417  0.00  0.00     0.007 A 
HETATM   25  C           1     -21.918  -6.131  -5.446  0.00  0.00     0.001 A 
HETATM   26  C           1     -20.540  -6.152  -5.231  0.00  0.00     0.000 A 
HETATM   27  C           1     -19.704  -5.328  -5.985  0.00  0.00     0.001 A 
HETATM   28  C           1     -20.246  -4.485  -6.955  0.00  0.00     0.007 A 
ENDBRANCH  22  23
ENDBRANCH  18  22
ENDBRANCH   1  18
TORSDOF 8
ENDMDL
MODEL 3
REMARK VINA RESULT:      -6.9      2.372      7.231
REMARK  8 active torsions:
REMARK  status: ('A' for Active; 'I' for Inactive)
REMARK    1  A    between atoms: C_1  and  C_19 
REMARK    2  A    between atoms: N_2  and  C_19 
REMARK       I    between atoms: N_2  and  C_13 
REMARK    3  A    between atoms: N_3  and  C_24 
REMARK    4  A    between atoms: C_9  and  C_20 
REMARK    5  A    between atoms: C_12  and  C_24 
REMARK    6  A    between atoms: C_12  and  C_28 
REMARK    7  A    between atoms: C_13  and  C_24 
REMARK    8  A    between atoms: C_19  and  C_20 
ROOT
HETATM    1  N           1     -22.212  -5.603  -5.646  0.00  0.00    -0.344 N 
HETATM    2  O           1     -20.879  -5.632  -3.856  0.00  0.00    -0.271 OA
HETATM    3  C           1     -21.569  -6.253  -4.627  0.00  0.00     0.249 C 
HETATM    4  H           1     -23.144  -5.235  -5.503  0.00  0.00     0.163 HD
ENDROOT
BRANCH   3   5
HETATM    5  C           1     -21.725  -7.745  -4.469  0.00  0.00     0.280 C 
BRANCH   5   6
HETATM    6  N           1     -21.356  -8.426  -5.754  0.00  0.00    -0.066 N 
HETATM    7  H           1     -21.925  -9.295  -5.865  0.00  0.00     0.275 HD
HETATM    8  H           1     -21.545  -7.782  -6.554  0.00  0.00     0.275 HD
HETATM    9  H           1     -20.341  -8.674  -5.738  0.00  0.00     0.275 HD
ENDBRANCH   5   6
BRANCH   5  10
HETATM   10  C           1     -20.809  -8.237  -3.355  0.00  0.00     0.101 C 
BRANCH  10  11
HETATM   11  C           1     -21.572  -8.291  -2.068  0.00  0.00     0.028 A 
HETATM   12  N           1     -21.919  -7.195  -1.321  0.00  0.00    -0.355 N 
HETATM   13  C           1     -22.570  -7.673  -0.287  0.00  0.00     0.180 A 
ATOM     14  HN          1     -21.714  -6.217  -1.527  1.00  0.00     0.166 HD
HETATM   15  N           1     -22.658  -9.035  -0.336  0.00  0.00    -0.360 N 
HETATM   16  H           1     -23.129  -9.653   0.371  0.00  0.00     0.166 HD
HETATM   17  C           1     -22.022  -9.447  -1.475  0.00  0.00     0.114 A 
ENDBRANCH  10  11
ENDBRANCH   5  10
ENDBRANCH   3   5
BRANCH   1  18
HETATM   18  C           1     -21.558  -5.441  -6.930  0.00  0.00     0.189 C 
BRANCH  18  19
HETATM   19  C           1     -20.064  -5.536  -6.748  0.00  0.00     0.197 C 
HETATM   20  O           1     -19.478  -6.622  -6.948  0.00  0.00    -0.646 OA
HETATM   21  O           1     -19.411  -4.529  -6.398  0.00  0.00    -0.646 OA
ENDBRANCH  18  19
BRANCH  18  22
HETATM   22  C           1     -21.914  -4.079  -7.511  0.00  0.00     0.074 C 
BRANCH  22  23
HETATM   23  C           1     -22.048  -4.190  -8.998  0.00  0.00    -0.056 A 
HETATM   24  C           1     -20.931  -4.006  -9.814  0.00  0.00     0.007 A 
HETATM   25  C           1     -21.054  -4.109 -11.199  0.00  0.00     0.001 A 
HETATM   26  C           1     -22.295  -4.398 -11.769  0.00  0.00     0.000 A 
HETATM   27  C           1     -23.411  -4.582 -10.953  0.00  0.00     0.001 A 
HETATM   28  C           1     -23.287  -4.478  -9.568  0.00  0.00     0.007 A 
ENDBRANCH  22  23
ENDBRANCH  18  22
ENDBRANCH   1  18
TORSDOF 8
ENDMDL
MODEL 4
REMARK VINA RESULT:      -6.6      3.447      4.882
REMARK  8 active torsions:
REMARK  status: ('A' for Active; 'I' for Inactive)
REMARK    1  A    between atoms: C_1  and  C_19 
REMARK    2  A    between atoms: N_2  and  C_19 
REMARK       I    between atoms: N_2  and  C_13 
REMARK    3  A    between atoms: N_3  and  C_24 
REMARK    4  A    between atoms: C_9  and  C_20 
REMARK    5  A    between atoms: C_12  and  C_24 
REMARK    6  A    between atoms: C_12  and  C_28 
REMARK    7  A    between atoms: C_13  and  C_24 
REMARK    8  A    between atoms: C_19  and  C_20 
ROOT
HETATM    1  N           1     -21.057  -7.590  -1.525  0.00  0.00    -0.344 N 
HETATM    2  O           1     -22.195  -5.905  -2.447  0.00  0.00    -0.271 OA
HETATM    3  C           1     -21.568  -6.924  -2.607  0.00  0.00     0.249 C 
HETATM    4  H           1     -20.128  -7.370  -1.188  0.00  0.00     0.163 HD
ENDROOT
BRANCH   3   5
HETATM    5  C           1     -21.345  -7.464  -3.998  0.00  0.00     0.280 C 
BRANCH   5   6
HETATM    6  N           1     -21.824  -8.884  -4.065  0.00  0.00    -0.066 N 
HETATM    7  H           1     -22.433  -9.008  -4.905  0.00  0.00     0.275 HD
HETATM    8  H           1     -21.002  -9.525  -4.134  0.00  0.00     0.275 HD
HETATM    9  H           1     -22.371  -9.108  -3.203  0.00  0.00     0.275 HD
ENDBRANCH   5   6
BRANCH   5  10
HETATM   10  C           1     -22.121  -6.620  -5.001  0.00  0.00     0.101 C 
BRANCH  10  11
HETATM   11  C           1     -21.163  -5.939  -5.928  0.00  0.00     0.028 A 
HETATM   12  N           1     -20.959  -6.295  -7.236  0.00  0.00    -0.355 N 
HETATM   13  C           1     -20.054  -5.457  -7.686  0.00  0.00     0.180 A 
ATOM     14  HN          1     -21.414  -7.049  -7.751  1.00  0.00     0.166 HD
HETATM   15  N           1     -19.666  -4.574  -6.719  0.00  0.00    -0.360 N 
HETATM   16  H           1     -18.956  -3.807  -6.827  0.00  0.00     0.166 HD
HETATM   17  C           1     -20.369  -4.870  -5.585  0.00  0.00     0.114 A 
ENDBRANCH  10  11
ENDBRANCH   5  10
ENDBRANCH   3   5
BRANCH   1  18
HETATM   18  C           1     -21.846  -8.609  -0.862  0.00  0.00     0.189 C 
BRANCH  18  19
HETATM   19  C           1     -22.406  -8.055   0.424  0.00  0.00     0.197 C 
HETATM   20  O           1     -23.591  -7.657   0.470  0.00  0.00    -0.646 OA
HETATM   21  O           1     -21.686  -7.992   1.444  0.00  0.00    -0.646 OA
ENDBRANCH  18  19
BRANCH  18  22
HETATM   22  C           1     -20.965  -9.813  -0.556  0.00  0.00     0.074 C 
BRANCH  22  23
HETATM   23  C           1     -21.826 -10.982  -0.188  0.00  0.00    -0.056 A 
HETATM   24  C           1     -23.045 -11.180  -0.837  0.00  0.00     0.007 A 
HETATM   25  C           1     -23.848 -12.268  -0.495  0.00  0.00     0.001 A 
HETATM   26  C           1     -23.431 -13.159   0.495  0.00  0.00     0.000 A 
HETATM   27  C           1     -22.212 -12.960   1.143  0.00  0.00     0.001 A 
HETATM   28  C           1     -21.410 -11.872   0.801  0.00  0.00     0.007 A 
ENDBRANCH  22  23
ENDBRANCH  18  22
ENDBRANCH   1  18
TORSDOF 8
ENDMDL
MODEL 5
REMARK VINA RESULT:      -6.5      2.424      7.346
REMARK  8 active torsions:
REMARK  status: ('A' for Active; 'I' for Inactive)
REMARK    1  A    between atoms: C_1  and  C_19 
REMARK    2  A    between atoms: N_2  and  C_19 
REMARK       I    between atoms: N_2  and  C_13 
REMARK    3  A    between atoms: N_3  and  C_24 
REMARK    4  A    between atoms: C_9  and  C_20 
REMARK    5  A    between atoms: C_12  and  C_24 
REMARK    6  A    between atoms: C_12  and  C_28 
REMARK    7  A    between atoms: C_13  and  C_24 
REMARK    8  A    between atoms: C_19  and  C_20 
ROOT
HETATM    1  N           1     -22.269  -5.798  -5.597  0.00  0.00    -0.344 N 
HETATM    2  O           1     -21.017  -5.833  -3.749  0.00  0.00    -0.271 OA
HETATM    3  C           1     -21.645  -6.455  -4.571  0.00  0.00     0.249 C 
HETATM    4  H           1     -23.222  -5.474  -5.485  0.00  0.00     0.163 HD
ENDROOT
BRANCH   3   5
HETATM    5  C           1     -21.743  -7.957  -4.468  0.00  0.00     0.280 C 
BRANCH   5   6
HETATM    6  N           1     -21.228  -8.579  -5.733  0.00  0.00    -0.066 N 
HETATM    7  H           1     -21.089  -9.604  -5.586  0.00  0.00     0.275 HD
HETATM    8  H           1     -21.920  -8.428  -6.500  0.00  0.00     0.275 HD
HETATM    9  H           1     -20.317  -8.139  -5.992  0.00  0.00     0.275 HD
ENDBRANCH   5   6
BRANCH   5  10
HETATM   10  C           1     -20.908  -8.441  -3.290  0.00  0.00     0.101 C 
BRANCH  10  11
HETATM   11  C           1     -21.747  -9.313  -2.408  0.00  0.00     0.028 A 
HETATM   12  N           1     -22.300 -10.507  -2.791  0.00  0.00    -0.355 N 
HETATM   13  C           1     -22.948 -10.943  -1.736  0.00  0.00     0.180 A 
ATOM     14  HN          1     -22.223 -10.960  -3.702  1.00  0.00     0.166 HD
HETATM   15  N           1     -22.835 -10.077  -0.686  0.00  0.00    -0.360 N 
HETATM   16  H           1     -23.260 -10.198   0.267  0.00  0.00     0.166 HD
HETATM   17  C           1     -22.066  -9.026  -1.101  0.00  0.00     0.114 A 
ENDBRANCH  10  11
ENDBRANCH   5  10
ENDBRANCH   3   5
BRANCH   1  18
HETATM   18  C           1     -21.566  -5.565  -6.844  0.00  0.00     0.189 C 
BRANCH  18  19
HETATM   19  C           1     -20.078  -5.600  -6.596  0.00  0.00     0.197 C 
HETATM   20  O           1     -19.496  -4.588  -6.149  0.00  0.00    -0.646 OA
HETATM   21  O           1     -19.429  -6.640  -6.838  0.00  0.00    -0.646 OA
ENDBRANCH  18  19
BRANCH  18  22
HETATM   22  C           1     -21.958  -4.202  -7.399  0.00  0.00     0.074 C 
BRANCH  22  23
HETATM   23  C           1     -21.905  -4.238  -8.895  0.00  0.00    -0.056 A 
HETATM   24  C           1     -23.065  -4.490  -9.627  0.00  0.00     0.007 A 
HETATM   25  C           1     -23.017  -4.524 -11.021  0.00  0.00     0.001 A 
HETATM   26  C           1     -21.808  -4.305 -11.682  0.00  0.00     0.000 A 
HETATM   27  C           1     -20.648  -4.054 -10.949  0.00  0.00     0.001 A 
HETATM   28  C           1     -20.697  -4.020  -9.555  0.00  0.00     0.007 A 
ENDBRANCH  22  23
ENDBRANCH  18  22
ENDBRANCH   1  18
TORSDOF 8
ENDMDL
MODEL 6
REMARK VINA RESULT:      -6.5      1.564      2.200
REMARK  8 active torsions:
REMARK  status: ('A' for Active; 'I' for Inactive)
REMARK    1  A    between atoms: C_1  and  C_19 
REMARK    2  A    between atoms: N_2  and  C_19 
REMARK       I    between atoms: N_2  and  C_13 
REMARK    3  A    between atoms: N_3  and  C_24 
REMARK    4  A    between atoms: C_9  and  C_20 
REMARK    5  A    between atoms: C_12  and  C_24 
REMARK    6  A    between atoms: C_12  and  C_28 
REMARK    7  A    between atoms: C_13  and  C_24 
REMARK    8  A    between atoms: C_19  and  C_20 
ROOT
HETATM    1  N           1     -21.091  -6.370  -3.958  0.00  0.00    -0.344 N 
HETATM    2  O           1     -22.840  -5.968  -5.286  0.00  0.00    -0.271 OA
HETATM    3  C           1     -21.642  -5.952  -5.140  0.00  0.00     0.249 C 
HETATM    4  H           1     -20.937  -5.707  -3.208  0.00  0.00     0.163 HD
ENDROOT
BRANCH   3   5
HETATM    5  C           1     -20.751  -5.469  -6.257  0.00  0.00     0.280 C 
BRANCH   5   6
HETATM    6  N           1     -20.941  -6.344  -7.461  0.00  0.00    -0.066 N 
HETATM    7  H           1     -21.274  -5.766  -8.264  0.00  0.00     0.275 HD
HETATM    8  H           1     -20.032  -6.795  -7.709  0.00  0.00     0.275 HD
HETATM    9  H           1     -21.649  -7.082  -7.246  0.00  0.00     0.275 HD
ENDBRANCH   5   6
BRANCH   5  10
HETATM   10  C           1     -21.114  -4.033  -6.613  0.00  0.00     0.101 C 
BRANCH  10  11
HETATM   11  C           1     -22.035  -4.028  -7.793  0.00  0.00     0.028 A 
HETATM   12  N           1     -23.400  -4.140  -7.716  0.00  0.00    -0.355 N 
HETATM   13  C           1     -23.821  -4.091  -8.959  0.00  0.00     0.180 A 
ATOM     14  HN          1     -23.966  -4.239  -6.874  1.00  0.00     0.166 HD
HETATM   15  N           1     -22.783  -3.951  -9.834  0.00  0.00    -0.360 N 
HETATM   16  H           1     -22.856  -3.888 -10.881  0.00  0.00     0.166 HD
HETATM   17  C           1     -21.629  -3.909  -9.101  0.00  0.00     0.114 A 
ENDBRANCH  10  11
ENDBRANCH   5  10
ENDBRANCH   3   5
BRANCH   1  18
HETATM   18  C           1     -20.728  -7.762  -3.780  0.00  0.00     0.189 C 
BRANCH  18  19
HETATM   19  C           1     -20.378  -8.366  -5.117  0.00  0.00     0.197 C 
HETATM   20  O           1     -21.253  -8.963  -5.781  0.00  0.00    -0.646 OA
HETATM   21  O           1     -19.214  -8.268  -5.561  0.00  0.00    -0.646 OA
ENDBRANCH  18  19
BRANCH  18  22
HETATM   22  C           1     -21.902  -8.518  -3.172  0.00  0.00     0.074 C 
BRANCH  22  23
HETATM   23  C           1     -21.685  -8.677  -1.699  0.00  0.00    -0.056 A 
HETATM   24  C           1     -21.000  -9.791  -1.213  0.00  0.00     0.007 A 
HETATM   25  C           1     -20.797  -9.940   0.160  0.00  0.00     0.001 A 
HETATM   26  C           1     -21.279  -8.975   1.044  0.00  0.00     0.000 A 
HETATM   27  C           1     -21.964  -7.862   0.557  0.00  0.00     0.001 A 
HETATM   28  C           1     -22.166  -7.713  -0.815  0.00  0.00     0.007 A 
ENDBRANCH  22  23
ENDBRANCH  18  22
ENDBRANCH   1  18
TORSDOF 8
ENDMDL
MODEL 7
REMARK VINA RESULT:      -6.5      2.484      3.649
REMARK  8 active torsions:
REMARK  status: ('A' for Active; 'I' for Inactive)
REMARK    1  A    between atoms: C_1  and  C_19 
REMARK    2  A    between atoms: N_2  and  C_19 
REMARK       I    between atoms: N_2  and  C_13 
REMARK    3  A    between atoms: N_3  and  C_24 
REMARK    4  A    between atoms: C_9  and  C_20 
REMARK    5  A    between atoms: C_12  and  C_24 
REMARK    6  A    between atoms: C_12  and  C_28 
REMARK    7  A    between atoms: C_13  and  C_24 
REMARK    8  A    between atoms: C_19  and  C_20 
ROOT
HETATM    1  N           1     -20.510  -6.504  -6.786  0.00  0.00    -0.344 N 
HETATM    2  O           1     -20.378  -4.306  -6.417  0.00  0.00    -0.271 OA
HETATM    3  C           1     -20.840  -5.207  -7.074  0.00  0.00     0.249 C 
HETATM    4  H           1     -19.706  -6.932  -7.227  0.00  0.00     0.163 HD
ENDROOT
BRANCH   3   5
HETATM    5  C           1     -21.779  -4.905  -8.215  0.00  0.00     0.280 C 
BRANCH   5   6
HETATM    6  N           1     -22.803  -3.903  -7.768  0.00  0.00    -0.066 N 
HETATM    7  H           1     -22.716  -3.751  -6.738  0.00  0.00     0.275 HD
HETATM    8  H           1     -22.645  -2.999  -8.268  0.00  0.00     0.275 HD
HETATM    9  H           1     -23.759  -4.261  -7.987  0.00  0.00     0.275 HD
ENDBRANCH   5   6
BRANCH   5  10
HETATM   10  C           1     -20.990  -4.334  -9.386  0.00  0.00     0.101 C 
BRANCH  10  11
HETATM   11  C           1     -21.918  -4.064 -10.530  0.00  0.00     0.028 A 
HETATM   12  N           1     -23.014  -4.826 -10.841  0.00  0.00    -0.355 N 
HETATM   13  C           1     -23.546  -4.254 -11.896  0.00  0.00     0.180 A 
ATOM     14  HN          1     -23.346  -5.659 -10.355  1.00  0.00     0.166 HD
HETATM   15  N           1     -22.836  -3.151 -12.279  0.00  0.00    -0.360 N 
HETATM   16  H           1     -23.055  -2.522 -13.091  0.00  0.00     0.166 HD
HETATM   17  C           1     -21.788  -3.016 -11.411  0.00  0.00     0.114 A 
ENDBRANCH  10  11
ENDBRANCH   5  10
ENDBRANCH   3   5
BRANCH   1  18
HETATM   18  C           1     -21.312  -7.265  -5.847  0.00  0.00     0.189 C 
BRANCH  18  19
HETATM   19  C           1     -22.073  -6.317  -4.953  0.00  0.00     0.197 C 
HETATM   20  O           1     -23.229  -5.959  -5.262  0.00  0.00    -0.646 OA
HETATM   21  O           1     -21.546  -5.891  -3.902  0.00  0.00    -0.646 OA
ENDBRANCH  18  19
BRANCH  18  22
HETATM   22  C           1     -20.402  -8.144  -4.999  0.00  0.00     0.074 C 
BRANCH  22  23
HETATM   23  C           1     -21.096  -9.436  -4.697  0.00  0.00    -0.056 A 
HETATM   24  C           1     -21.047 -10.484  -5.616  0.00  0.00     0.007 A 
HETATM   25  C           1     -21.693 -11.688  -5.336  0.00  0.00     0.001 A 
HETATM   26  C           1     -22.387 -11.843  -4.136  0.00  0.00     0.000 A 
HETATM   27  C           1     -22.436 -10.795  -3.218  0.00  0.00     0.001 A 
HETATM   28  C           1     -21.790  -9.591  -3.499  0.00  0.00     0.007 A 
ENDBRANCH  22  23
ENDBRANCH  18  22
ENDBRANCH   1  18
TORSDOF 8
ENDMDL
MODEL 8
REMARK VINA RESULT:      -6.4      3.360      6.718
REMARK  8 active torsions:
REMARK  status: ('A' for Active; 'I' for Inactive)
REMARK    1  A    between atoms: C_1  and  C_19 
REMARK    2  A    between atoms: N_2  and  C_19 
REMARK       I    between atoms: N_2  and  C_13 
REMARK    3  A    between atoms: N_3  and  C_24 
REMARK    4  A    between atoms: C_9  and  C_20 
REMARK    5  A    between atoms: C_12  and  C_24 
REMARK    6  A    between atoms: C_12  and  C_28 
REMARK    7  A    between atoms: C_13  and  C_24 
REMARK    8  A    between atoms: C_19  and  C_20 
ROOT
HETATM    1  N           1     -20.048  -8.219  -4.630  0.00  0.00    -0.344 N 
HETATM    2  O           1     -20.464 -10.004  -5.904  0.00  0.00    -0.271 OA
HETATM    3  C           1     -19.965  -9.559  -4.899  0.00  0.00     0.249 C 
HETATM    4  H           1     -19.328  -7.591  -4.962  0.00  0.00     0.163 HD
ENDROOT
BRANCH   3   5
HETATM    5  C           1     -19.251 -10.478  -3.939  0.00  0.00     0.280 C 
BRANCH   5   6
HETATM    6  N           1     -18.766 -11.691  -4.676  0.00  0.00    -0.066 N 
HETATM    7  H           1     -19.555 -12.108  -5.220  0.00  0.00     0.275 HD
HETATM    8  H           1     -17.999 -11.417  -5.330  0.00  0.00     0.275 HD
HETATM    9  H           1     -18.407 -12.394  -3.992  0.00  0.00     0.275 HD
ENDBRANCH   5   6
BRANCH   5  10
HETATM   10  C           1     -18.061  -9.748  -3.328  0.00  0.00     0.101 C 
BRANCH  10  11
HETATM   11  C           1     -17.430 -10.612  -2.280  0.00  0.00     0.028 A 
HETATM   12  N           1     -18.123 -11.316  -1.330  0.00  0.00    -0.355 N 
HETATM   13  C           1     -17.207 -11.933  -0.620  0.00  0.00     0.180 A 
ATOM     14  HN          1     -19.135 -11.354  -1.203  1.00  0.00     0.166 HD
HETATM   15  N           1     -15.950 -11.655  -1.074  0.00  0.00    -0.360 N 
HETATM   16  H           1     -15.050 -12.024  -0.677  0.00  0.00     0.166 HD
HETATM   17  C           1     -16.076 -10.808  -2.140  0.00  0.00     0.114 A 
ENDBRANCH  10  11
ENDBRANCH   5  10
ENDBRANCH   3   5
BRANCH   1  18
HETATM   18  C           1     -21.168  -7.700  -3.869  0.00  0.00     0.189 C 
BRANCH  18  19
HETATM   19  C           1     -21.657  -6.421  -4.503  0.00  0.00     0.197 C 
HETATM   20  O           1     -20.863  -5.475  -4.694  0.00  0.00    -0.646 OA
HETATM   21  O           1     -22.856  -6.308  -4.836  0.00  0.00    -0.646 OA
ENDBRANCH  18  19
BRANCH  18  22
HETATM   22  C           1     -20.724  -7.422  -2.439  0.00  0.00     0.074 C 
BRANCH  22  23
HETATM   23  C           1     -21.670  -8.083  -1.485  0.00  0.00    -0.056 A 
HETATM   24  C           1     -22.271  -7.336  -0.471  0.00  0.00     0.007 A 
HETATM   25  C           1     -23.153  -7.951   0.418  0.00  0.00     0.001 A 
HETATM   26  C           1     -23.433  -9.312   0.293  0.00  0.00     0.000 A 
HETATM   27  C           1     -22.831 -10.057  -0.720  0.00  0.00     0.001 A 
HETATM   28  C           1     -21.950  -9.442  -1.609  0.00  0.00     0.007 A 
ENDBRANCH  22  23
ENDBRANCH  18  22
ENDBRANCH   1  18
TORSDOF 8
ENDMDL
MODEL 9
REMARK VINA RESULT:      -6.4      2.133      3.292
REMARK  8 active torsions:
REMARK  status: ('A' for Active; 'I' for Inactive)
REMARK    1  A    between atoms: C_1  and  C_19 
REMARK    2  A    between atoms: N_2  and  C_19 
REMARK       I    between atoms: N_2  and  C_13 
REMARK    3  A    between atoms: N_3  and  C_24 
REMARK    4  A    between atoms: C_9  and  C_20 
REMARK    5  A    between atoms: C_12  and  C_24 
REMARK    6  A    between atoms: C_12  and  C_28 
REMARK    7  A    between atoms: C_13  and  C_24 
REMARK    8  A    between atoms: C_19  and  C_20 
ROOT
HETATM    1  N           1     -19.470 -10.192  -3.906  0.00  0.00    -0.344 N 
HETATM    2  O           1     -18.741  -9.017  -5.659  0.00  0.00    -0.271 OA
HETATM    3  C           1     -19.649  -9.274  -4.906  0.00  0.00     0.249 C 
HETATM    4  H           1     -19.669 -11.169  -4.075  0.00  0.00     0.163 HD
ENDROOT
BRANCH   3   5
HETATM    5  C           1     -20.981  -8.585  -5.066  0.00  0.00     0.280 C 
BRANCH   5   6
HETATM    6  N           1     -22.025  -9.327  -4.285  0.00  0.00    -0.066 N 
HETATM    7  H           1     -22.951  -9.228  -4.758  0.00  0.00     0.275 HD
HETATM    8  H           1     -21.767 -10.338  -4.234  0.00  0.00     0.275 HD
HETATM    9  H           1     -22.083  -8.932  -3.320  0.00  0.00     0.275 HD
ENDBRANCH   5   6
BRANCH   5  10
HETATM   10  C           1     -20.881  -7.156  -4.547  0.00  0.00     0.101 C 
BRANCH  10  11
HETATM   11  C           1     -20.593  -6.229  -5.687  0.00  0.00     0.028 A 
HETATM   12  N           1     -20.524  -6.609  -7.002  0.00  0.00    -0.355 N 
HETATM   13  C           1     -20.255  -5.509  -7.667  0.00  0.00     0.180 A 
ATOM     14  HN          1     -20.655  -7.546  -7.383  1.00  0.00     0.166 HD
HETATM   15  N           1     -20.148  -4.434  -6.832  0.00  0.00    -0.360 N 
HETATM   16  H           1     -19.940  -3.444  -7.117  0.00  0.00     0.166 HD
HETATM   17  C           1     -20.363  -4.880  -5.557  0.00  0.00     0.114 A 
ENDBRANCH  10  11
ENDBRANCH   5  10
ENDBRANCH   3   5
BRANCH   1  18
HETATM   18  C           1     -18.994  -9.763  -2.605  0.00  0.00     0.189 C 
BRANCH  18  19
HETATM   19  C           1     -17.520 -10.065  -2.484  0.00  0.00     0.197 C 
HETATM   20  O           1     -16.678  -9.255  -2.926  0.00  0.00    -0.646 OA
HETATM   21  O           1     -17.143 -11.126  -1.942  0.00  0.00    -0.646 OA
ENDBRANCH  18  19
BRANCH  18  22
HETATM   22  C           1     -19.757 -10.506  -1.516  0.00  0.00     0.074 C 
BRANCH  22  23
HETATM   23  C           1     -20.864  -9.639  -1.002  0.00  0.00    -0.056 A 
HETATM   24  C           1     -20.755  -8.250  -1.081  0.00  0.00     0.007 A 
HETATM   25  C           1     -21.785  -7.442  -0.602  0.00  0.00     0.001 A 
HETATM   26  C           1     -22.926  -8.022  -0.046  0.00  0.00     0.000 A 
HETATM   27  C           1     -23.034  -9.410   0.033  0.00  0.00     0.001 A 
HETATM   28  C           1     -22.003 -10.218  -0.446  0.00  0.00     0.007 A 
ENDBRANCH  22  23
ENDBRANCH  18  22
ENDBRANCH   1  18
TORSDOF 8
ENDMDL
