MODEL 1
REMARK VINA RESULT:      -8.0      0.000      0.000
REMARK  10 active torsions:
REMARK  status: ('A' for Active; 'I' for Inactive)
REMARK    1  A    between atoms: C_1  and  C_2 
REMARK    2  A    between atoms: C_2  and  C_5 
REMARK    3  A    between atoms: C_2  and  N_22 
REMARK    4  A    between atoms: C_5  and  C_6 
REMARK    5  A    between atoms: C_6  and  C_30 
REMARK       I    between atoms: N_7  and  C_8 
REMARK       I    between atoms: C_8  and  N_9 
REMARK    6  A    between atoms: N_15  and  C_20 
REMARK    7  A    between atoms: C_18  and  C_19 
REMARK    8  A    between atoms: C_19  and  C_20 
REMARK    9  A    between atoms: C_20  and  C_21 
REMARK       I    between atoms: C_21  and  N_22 
REMARK   10  A    between atoms: N_25  and  C_30 
ROOT
HETATM    1  H           1     -22.163  -5.827  -9.181  0.00  0.00     0.163 HD
HETATM    2  C           1     -21.606  -4.593  -7.616  0.00  0.00     0.249 C 
HETATM    3  N           1     -22.127  -4.870  -8.850  0.00  0.00    -0.345 N 
HETATM    4  O           1     -21.562  -3.452  -7.221  0.00  0.00    -0.271 OA
ENDROOT
BRANCH   3   5
HETATM    5  C           1     -22.627  -3.795  -9.685  0.00  0.00     0.185 C 
BRANCH   5   6
HETATM    6  C           1     -24.135  -3.850  -9.725  0.00  0.00     0.196 C 
HETATM    7  O           1     -24.805  -2.832  -9.446  0.00  0.00    -0.646 OA
HETATM    8  O           1     -24.712  -4.913 -10.038  0.00  0.00    -0.646 OA
ENDBRANCH   5   6
BRANCH   5   9
HETATM    9  C           1     -22.076  -3.948 -11.096  0.00  0.00     0.038 C 
BRANCH   9  10
HETATM   10  C           1     -22.299  -2.656 -11.872  0.00  0.00     0.023 C 
BRANCH  10  11
HETATM   11  C           1     -22.961  -2.973 -13.207  0.00  0.00     0.138 C 
BRANCH  11  12
HETATM   12  N           1     -23.867  -1.877 -13.577  0.00  0.00    -0.227 N 
HETATM   13  C           1     -23.745  -1.307 -14.702  0.00  0.00     0.665 C 
HETATM   14  N           1     -22.842  -1.681 -15.507  0.00  0.00    -0.235 N 
HETATM   15  N           1     -24.546  -0.337 -15.030  0.00  0.00    -0.235 N 
HETATM   16  H           1     -22.195  -2.464 -15.241  0.00  0.00     0.174 HD
HETATM   17  H           1     -22.740  -1.209 -16.439  0.00  0.00     0.174 HD
HETATM   18  H           1     -25.292  -0.028 -14.366  0.00  0.00     0.174 HD
HETATM   19  H           1     -24.446   0.133 -15.958  0.00  0.00     0.174 HD
HETATM   20  H           1     -24.616  -1.566 -12.911  0.00  0.00     0.177 HD
ENDBRANCH  11  12
ENDBRANCH  10  11
ENDBRANCH   9  10
ENDBRANCH   5   9
ENDBRANCH   3   5
BRANCH   2  21
HETATM   21  C           1     -21.085  -5.712  -6.747  0.00  0.00     0.280 C 
BRANCH  21  22
HETATM   22  N           1     -19.891  -6.340  -7.404  0.00  0.00    -0.066 N 
HETATM   23  H           1     -19.139  -5.622  -7.517  0.00  0.00     0.275 HD
HETATM   24  H           1     -20.164  -6.710  -8.342  0.00  0.00     0.275 HD
HETATM   25  H           1     -19.538  -7.124  -6.810  0.00  0.00     0.275 HD
ENDBRANCH  21  22
BRANCH  21  26
HETATM   26  C           1     -20.682  -5.156  -5.388  0.00  0.00     0.101 C 
BRANCH  26  27
HETATM   27  C           1     -21.031  -6.146  -4.320  0.00  0.00     0.028 A 
HETATM   28  N           1     -21.639  -5.830  -3.132  0.00  0.00    -0.355 N 
HETATM   29  C           1     -21.764  -6.970  -2.493  0.00  0.00     0.180 A 
ATOM     30  HN          1     -21.933  -4.906  -2.814  1.00  0.00     0.166 HD
HETATM   31  N           1     -21.261  -8.010  -3.221  0.00  0.00    -0.360 N 
HETATM   32  H           1     -21.242  -9.019  -2.931  0.00  0.00     0.166 HD
HETATM   33  C           1     -20.787  -7.496  -4.397  0.00  0.00     0.114 A 
ENDBRANCH  26  27
ENDBRANCH  21  26
ENDBRANCH   2  21
TORSDOF 10
ENDMDL
MODEL 2
REMARK VINA RESULT:      -7.8     12.099     13.616
REMARK  10 active torsions:
REMARK  status: ('A' for Active; 'I' for Inactive)
REMARK    1  A    between atoms: C_1  and  C_2 
REMARK    2  A    between atoms: C_2  and  C_5 
REMARK    3  A    between atoms: C_2  and  N_22 
REMARK    4  A    between atoms: C_5  and  C_6 
REMARK    5  A    between atoms: C_6  and  C_30 
REMARK       I    between atoms: N_7  and  C_8 
REMARK       I    between atoms: C_8  and  N_9 
REMARK    6  A    between atoms: N_15  and  C_20 
REMARK    7  A    between atoms: C_18  and  C_19 
REMARK    8  A    between atoms: C_19  and  C_20 
REMARK    9  A    between atoms: C_20  and  C_21 
REMARK       I    between atoms: C_21  and  N_22 
REMARK   10  A    between atoms: N_25  and  C_30 
ROOT
HETATM    1  H           1     -36.225  -2.504 -12.281  0.00  0.00     0.163 HD
HETATM    2  C           1     -34.311  -2.972 -11.649  0.00  0.00     0.249 C 
HETATM    3  N           1     -35.387  -2.147 -11.840  0.00  0.00    -0.345 N 
HETATM    4  O           1     -33.310  -2.548 -11.123  0.00  0.00    -0.271 OA
ENDROOT
BRANCH   3   5
HETATM    5  C           1     -35.325  -0.764 -11.410  0.00  0.00     0.185 C 
BRANCH   5   6
HETATM    6  C           1     -36.636  -0.378 -10.769  0.00  0.00     0.196 C 
HETATM    7  O           1     -37.635  -1.119 -10.893  0.00  0.00    -0.646 OA
HETATM    8  O           1     -36.722   0.683 -10.114  0.00  0.00    -0.646 OA
ENDBRANCH   5   6
BRANCH   5   9
HETATM    9  C           1     -35.066   0.132 -12.613  0.00  0.00     0.038 C 
BRANCH   9  10
HETATM   10  C           1     -36.281   0.113 -13.531  0.00  0.00     0.023 C 
BRANCH  10  11
HETATM   11  C           1     -35.832   0.317 -14.972  0.00  0.00     0.138 C 
BRANCH  11  12
HETATM   12  N           1     -35.070  -0.857 -15.419  0.00  0.00    -0.227 N 
HETATM   13  C           1     -35.328  -1.392 -16.538  0.00  0.00     0.665 C 
HETATM   14  N           1     -36.244  -0.916 -17.271  0.00  0.00    -0.235 N 
HETATM   15  N           1     -34.654  -2.431 -16.933  0.00  0.00    -0.235 N 
HETATM   16  H           1     -36.788  -0.077 -16.951  0.00  0.00     0.174 HD
HETATM   17  H           1     -36.459  -1.359 -18.198  0.00  0.00     0.174 HD
HETATM   18  H           1     -33.898  -2.825 -16.328  0.00  0.00     0.174 HD
HETATM   19  H           1     -34.867  -2.872 -17.856  0.00  0.00     0.174 HD
HETATM   20  H           1     -34.311  -1.253 -14.812  0.00  0.00     0.177 HD
ENDBRANCH  11  12
ENDBRANCH  10  11
ENDBRANCH   9  10
ENDBRANCH   5   9
ENDBRANCH   3   5
BRANCH   2  21
HETATM   21  C           1     -34.375  -4.412 -12.097  0.00  0.00     0.280 C 
BRANCH  21  22
HETATM   22  N           1     -34.196  -4.481 -13.585  0.00  0.00    -0.066 N 
HETATM   23  H           1     -35.130  -4.575 -14.044  0.00  0.00     0.275 HD
HETATM   24  H           1     -33.604  -5.308 -13.827  0.00  0.00     0.275 HD
HETATM   25  H           1     -33.729  -3.609 -13.921  0.00  0.00     0.275 HD
ENDBRANCH  21  22
BRANCH  21  26
HETATM   26  C           1     -33.268  -5.207 -11.417  0.00  0.00     0.101 C 
BRANCH  26  27
HETATM   27  C           1     -33.862  -6.384 -10.708  0.00  0.00     0.028 A 
HETATM   28  N           1     -33.273  -7.619 -10.618  0.00  0.00    -0.355 N 
HETATM   29  C           1     -34.111  -8.353  -9.922  0.00  0.00     0.180 A 
ATOM     30  HN          1     -32.375  -7.906 -11.007  1.00  0.00     0.166 HD
HETATM   31  N           1     -35.218  -7.640  -9.559  0.00  0.00    -0.360 N 
HETATM   32  H           1     -36.032  -7.998  -9.000  0.00  0.00     0.166 HD
HETATM   33  C           1     -35.072  -6.374 -10.055  0.00  0.00     0.114 A 
ENDBRANCH  26  27
ENDBRANCH  21  26
ENDBRANCH   2  21
TORSDOF 10
ENDMDL
MODEL 3
REMARK VINA RESULT:      -7.6     11.916     14.238
REMARK  10 active torsions:
REMARK  status: ('A' for Active; 'I' for Inactive)
REMARK    1  A    between atoms: C_1  and  C_2 
REMARK    2  A    between atoms: C_2  and  C_5 
REMARK    3  A    between atoms: C_2  and  N_22 
REMARK    4  A    between atoms: C_5  and  C_6 
REMARK    5  A    between atoms: C_6  and  C_30 
REMARK       I    between atoms: N_7  and  C_8 
REMARK       I    between atoms: C_8  and  N_9 
REMARK    6  A    between atoms: N_15  and  C_20 
REMARK    7  A    between atoms: C_18  and  C_19 
REMARK    8  A    between atoms: C_19  and  C_20 
REMARK    9  A    between atoms: C_20  and  C_21 
REMARK       I    between atoms: C_21  and  N_22 
REMARK   10  A    between atoms: N_25  and  C_30 
ROOT
HETATM    1  H           1     -32.374  -3.581 -14.286  0.00  0.00     0.163 HD
HETATM    2  C           1     -33.860  -4.517 -15.381  0.00  0.00     0.249 C 
HETATM    3  N           1     -33.309  -3.969 -14.255  0.00  0.00    -0.345 N 
HETATM    4  O           1     -34.975  -4.980 -15.345  0.00  0.00    -0.271 OA
ENDROOT
BRANCH   3   5
HETATM    5  C           1     -34.063  -3.945 -13.016  0.00  0.00     0.185 C 
BRANCH   5   6
HETATM    6  C           1     -34.886  -2.681 -12.954  0.00  0.00     0.196 C 
HETATM    7  O           1     -34.769  -1.814 -13.847  0.00  0.00    -0.646 OA
HETATM    8  O           1     -35.685  -2.502 -12.009  0.00  0.00    -0.646 OA
ENDBRANCH   5   6
BRANCH   5   9
HETATM    9  C           1     -33.103  -3.983 -11.835  0.00  0.00     0.038 C 
BRANCH   9  10
HETATM   10  C           1     -33.815  -4.568 -10.621  0.00  0.00     0.023 C 
BRANCH  10  11
HETATM   11  C           1     -34.651  -5.766 -11.050  0.00  0.00     0.138 C 
BRANCH  11  12
HETATM   12  N           1     -33.831  -6.983 -10.991  0.00  0.00    -0.227 N 
HETATM   13  C           1     -34.165  -7.937 -10.227  0.00  0.00     0.665 C 
HETATM   14  N           1     -35.207  -7.840  -9.514  0.00  0.00    -0.235 N 
HETATM   15  N           1     -33.439  -9.014 -10.174  0.00  0.00    -0.235 N 
HETATM   16  H           1     -35.793  -6.969  -9.557  0.00  0.00     0.174 HD
HETATM   17  H           1     -35.485  -8.629  -8.880  0.00  0.00     0.174 HD
HETATM   18  H           1     -32.579  -9.093 -10.763  0.00  0.00     0.174 HD
HETATM   19  H           1     -33.715  -9.800  -9.544  0.00  0.00     0.174 HD
HETATM   20  H           1     -32.967  -7.064 -11.582  0.00  0.00     0.177 HD
ENDBRANCH  11  12
ENDBRANCH  10  11
ENDBRANCH   9  10
ENDBRANCH   5   9
ENDBRANCH   3   5
BRANCH   2  21
HETATM   21  C           1     -33.075  -4.543 -16.670  0.00  0.00     0.280 C 
BRANCH  21  22
HETATM   22  N           1     -33.304  -3.263 -17.420  0.00  0.00    -0.066 N 
HETATM   23  H           1     -32.820  -3.311 -18.345  0.00  0.00     0.275 HD
HETATM   24  H           1     -32.921  -2.464 -16.867  0.00  0.00     0.275 HD
HETATM   25  H           1     -34.329  -3.125 -17.569  0.00  0.00     0.275 HD
ENDBRANCH  21  22
BRANCH  21  26
HETATM   26  C           1     -31.592  -4.690 -16.360  0.00  0.00     0.101 C 
BRANCH  26  27
HETATM   27  C           1     -31.058  -5.913 -17.039  0.00  0.00     0.028 A 
HETATM   28  N           1     -29.735  -6.269 -17.078  0.00  0.00    -0.355 N 
HETATM   29  C           1     -29.697  -7.390 -17.761  0.00  0.00     0.180 A 
ATOM     30  HN          1     -28.947  -5.770 -16.664  1.00  0.00     0.166 HD
HETATM   31  N           1     -30.944  -7.772 -18.164  0.00  0.00    -0.360 N 
HETATM   32  H           1     -31.182  -8.630 -18.722  0.00  0.00     0.166 HD
HETATM   33  C           1     -31.829  -6.834 -17.708  0.00  0.00     0.114 A 
ENDBRANCH  26  27
ENDBRANCH  21  26
ENDBRANCH   2  21
TORSDOF 10
ENDMDL
MODEL 4
REMARK VINA RESULT:      -6.9      3.283      9.396
REMARK  10 active torsions:
REMARK  status: ('A' for Active; 'I' for Inactive)
REMARK    1  A    between atoms: C_1  and  C_2 
REMARK    2  A    between atoms: C_2  and  C_5 
REMARK    3  A    between atoms: C_2  and  N_22 
REMARK    4  A    between atoms: C_5  and  C_6 
REMARK    5  A    between atoms: C_6  and  C_30 
REMARK       I    between atoms: N_7  and  C_8 
REMARK       I    between atoms: C_8  and  N_9 
REMARK    6  A    between atoms: N_15  and  C_20 
REMARK    7  A    between atoms: C_18  and  C_19 
REMARK    8  A    between atoms: C_19  and  C_20 
REMARK    9  A    between atoms: C_20  and  C_21 
REMARK       I    between atoms: C_21  and  N_22 
REMARK   10  A    between atoms: N_25  and  C_30 
ROOT
HETATM    1  H           1     -22.001  -6.608  -6.590  0.00  0.00     0.163 HD
HETATM    2  C           1     -20.821  -4.966  -6.151  0.00  0.00     0.249 C 
HETATM    3  N           1     -21.386  -6.187  -5.904  0.00  0.00    -0.345 N 
HETATM    4  O           1     -20.088  -4.463  -5.333  0.00  0.00    -0.271 OA
ENDROOT
BRANCH   3   5
HETATM    5  C           1     -21.105  -6.878  -4.660  0.00  0.00     0.185 C 
BRANCH   5   6
HETATM    6  C           1     -21.070  -8.367  -4.910  0.00  0.00     0.196 C 
HETATM    7  O           1     -20.360  -8.830  -5.828  0.00  0.00    -0.646 OA
HETATM    8  O           1     -21.752  -9.135  -4.198  0.00  0.00    -0.646 OA
ENDBRANCH   5   6
BRANCH   5   9
HETATM    9  C           1     -22.194  -6.560  -3.644  0.00  0.00     0.038 C 
BRANCH   9  10
HETATM   10  C           1     -21.555  -6.052  -2.358  0.00  0.00     0.023 C 
BRANCH  10  11
HETATM   11  C           1     -22.314  -6.608  -1.160  0.00  0.00     0.138 C 
BRANCH  11  12
HETATM   12  N           1     -22.114  -8.062  -1.084  0.00  0.00    -0.227 N 
HETATM   13  C           1     -22.725  -8.740  -0.206  0.00  0.00     0.665 C 
HETATM   14  N           1     -23.508  -8.166   0.607  0.00  0.00    -0.235 N 
HETATM   15  N           1     -22.548 -10.027  -0.139  0.00  0.00    -0.235 N 
HETATM   16  H           1     -23.650  -7.127   0.552  0.00  0.00     0.174 HD
HETATM   17  H           1     -24.014  -8.728   1.335  0.00  0.00     0.174 HD
HETATM   18  H           1     -21.902 -10.501  -0.809  0.00  0.00     0.174 HD
HETATM   19  H           1     -23.052 -10.586   0.585  0.00  0.00     0.174 HD
HETATM   20  H           1     -21.466  -8.539  -1.757  0.00  0.00     0.177 HD
ENDBRANCH  11  12
ENDBRANCH  10  11
ENDBRANCH   9  10
ENDBRANCH   5   9
ENDBRANCH   3   5
BRANCH   2  21
HETATM   21  C           1     -21.114  -4.245  -7.445  0.00  0.00     0.280 C 
BRANCH  21  22
HETATM   22  N           1     -19.832  -3.736  -8.034  0.00  0.00    -0.066 N 
HETATM   23  H           1     -19.359  -4.507  -8.558  0.00  0.00     0.275 HD
HETATM   24  H           1     -19.206  -3.401  -7.267  0.00  0.00     0.275 HD
HETATM   25  H           1     -20.038  -2.945  -8.685  0.00  0.00     0.275 HD
ENDBRANCH  21  22
BRANCH  21  26
HETATM   26  C           1     -21.775  -5.207  -8.424  0.00  0.00     0.101 C 
BRANCH  26  27
HETATM   27  C           1     -22.886  -4.504  -9.140  0.00  0.00     0.028 A 
HETATM   28  N           1     -23.855  -3.751  -8.528  0.00  0.00    -0.355 N 
HETATM   29  C           1     -24.624  -3.318  -9.501  0.00  0.00     0.180 A 
ATOM     30  HN          1     -23.956  -3.565  -7.530  1.00  0.00     0.166 HD
HETATM   31  N           1     -24.190  -3.763 -10.717  0.00  0.00    -0.360 N 
HETATM   32  H           1     -24.631  -3.557 -11.648  0.00  0.00     0.166 HD
HETATM   33  C           1     -23.074  -4.525 -10.501  0.00  0.00     0.114 A 
ENDBRANCH  26  27
ENDBRANCH  21  26
ENDBRANCH   2  21
TORSDOF 10
ENDMDL
MODEL 5
REMARK VINA RESULT:      -6.7     12.308     15.391
REMARK  10 active torsions:
REMARK  status: ('A' for Active; 'I' for Inactive)
REMARK    1  A    between atoms: C_1  and  C_2 
REMARK    2  A    between atoms: C_2  and  C_5 
REMARK    3  A    between atoms: C_2  and  N_22 
REMARK    4  A    between atoms: C_5  and  C_6 
REMARK    5  A    between atoms: C_6  and  C_30 
REMARK       I    between atoms: N_7  and  C_8 
REMARK       I    between atoms: C_8  and  N_9 
REMARK    6  A    between atoms: N_15  and  C_20 
REMARK    7  A    between atoms: C_18  and  C_19 
REMARK    8  A    between atoms: C_19  and  C_20 
REMARK    9  A    between atoms: C_20  and  C_21 
REMARK       I    between atoms: C_21  and  N_22 
REMARK   10  A    between atoms: N_25  and  C_30 
ROOT
HETATM    1  H           1     -34.163  -1.592 -13.544  0.00  0.00     0.163 HD
HETATM    2  C           1     -34.437  -3.372 -14.563  0.00  0.00     0.249 C 
HETATM    3  N           1     -34.401  -2.573 -13.453  0.00  0.00    -0.345 N 
HETATM    4  O           1     -34.720  -4.542 -14.456  0.00  0.00    -0.271 OA
ENDROOT
BRANCH   3   5
HETATM    5  C           1     -34.700  -3.129 -12.148  0.00  0.00     0.185 C 
BRANCH   5   6
HETATM    6  C           1     -35.457  -2.112 -11.330  0.00  0.00     0.196 C 
HETATM    7  O           1     -34.989  -0.965 -11.169  0.00  0.00    -0.646 OA
HETATM    8  O           1     -36.554  -2.418 -10.814  0.00  0.00    -0.646 OA
ENDBRANCH   5   6
BRANCH   5   9
HETATM    9  C           1     -33.401  -3.486 -11.437  0.00  0.00     0.038 C 
BRANCH   9  10
HETATM   10  C           1     -33.655  -4.623 -10.456  0.00  0.00     0.023 C 
BRANCH  10  11
HETATM   11  C           1     -34.474  -5.710 -11.139  0.00  0.00     0.138 C 
BRANCH  11  12
HETATM   12  N           1     -33.768  -6.995 -11.036  0.00  0.00    -0.227 N 
HETATM   13  C           1     -34.192  -7.890 -10.246  0.00  0.00     0.665 C 
HETATM   14  N           1     -35.225  -7.677  -9.545  0.00  0.00    -0.235 N 
HETATM   15  N           1     -33.568  -9.026 -10.154  0.00  0.00    -0.235 N 
HETATM   16  H           1     -35.729  -6.759  -9.619  0.00  0.00     0.174 HD
HETATM   17  H           1     -35.577  -8.418  -8.890  0.00  0.00     0.174 HD
HETATM   18  H           1     -32.715  -9.202 -10.732  0.00  0.00     0.174 HD
HETATM   19  H           1     -33.918  -9.764  -9.503  0.00  0.00     0.174 HD
HETATM   20  H           1     -32.912  -7.172 -11.616  0.00  0.00     0.177 HD
ENDBRANCH  11  12
ENDBRANCH  10  11
ENDBRANCH   9  10
ENDBRANCH   5   9
ENDBRANCH   3   5
BRANCH   2  21
HETATM   21  C           1     -34.125  -2.793 -15.922  0.00  0.00     0.280 C 
BRANCH  21  22
HETATM   22  N           1     -33.602  -3.877 -16.818  0.00  0.00    -0.066 N 
HETATM   23  H           1     -33.060  -4.566 -16.250  0.00  0.00     0.275 HD
HETATM   24  H           1     -32.979  -3.457 -17.544  0.00  0.00     0.275 HD
HETATM   25  H           1     -34.403  -4.361 -17.284  0.00  0.00     0.275 HD
ENDBRANCH  21  22
BRANCH  21  26
HETATM   26  C           1     -35.392  -2.204 -16.527  0.00  0.00     0.101 C 
BRANCH  26  27
HETATM   27  C           1     -35.650  -0.856 -15.929  0.00  0.00     0.028 A 
HETATM   28  N           1     -34.678  -0.020 -15.442  0.00  0.00    -0.355 N 
HETATM   29  C           1     -35.319   1.045 -15.015  0.00  0.00     0.180 A 
ATOM     30  HN          1     -33.673  -0.188 -15.416  1.00  0.00     0.166 HD
HETATM   31  N           1     -36.666   0.930 -15.208  0.00  0.00    -0.360 N 
HETATM   32  H           1     -37.393   1.643 -14.954  0.00  0.00     0.166 HD
HETATM   33  C           1     -36.894  -0.285 -15.795  0.00  0.00     0.114 A 
ENDBRANCH  26  27
ENDBRANCH  21  26
ENDBRANCH   2  21
TORSDOF 10
ENDMDL
MODEL 6
REMARK VINA RESULT:      -6.7      2.682      9.536
REMARK  10 active torsions:
REMARK  status: ('A' for Active; 'I' for Inactive)
REMARK    1  A    between atoms: C_1  and  C_2 
REMARK    2  A    between atoms: C_2  and  C_5 
REMARK    3  A    between atoms: C_2  and  N_22 
REMARK    4  A    between atoms: C_5  and  C_6 
REMARK    5  A    between atoms: C_6  and  C_30 
REMARK       I    between atoms: N_7  and  C_8 
REMARK       I    between atoms: C_8  and  N_9 
REMARK    6  A    between atoms: N_15  and  C_20 
REMARK    7  A    between atoms: C_18  and  C_19 
REMARK    8  A    between atoms: C_19  and  C_20 
REMARK    9  A    between atoms: C_20  and  C_21 
REMARK       I    between atoms: C_21  and  N_22 
REMARK   10  A    between atoms: N_25  and  C_30 
ROOT
HETATM    1  H           1     -22.635  -6.694  -6.440  0.00  0.00     0.163 HD
HETATM    2  C           1     -21.679  -4.902  -6.834  0.00  0.00     0.249 C 
HETATM    3  N           1     -21.932  -6.040  -6.118  0.00  0.00    -0.345 N 
HETATM    4  O           1     -20.841  -4.121  -6.451  0.00  0.00    -0.271 OA
ENDROOT
BRANCH   3   5
HETATM    5  C           1     -21.195  -6.309  -4.898  0.00  0.00     0.185 C 
BRANCH   5   6
HETATM    6  C           1     -20.206  -7.422  -5.145  0.00  0.00     0.196 C 
HETATM    7  O           1     -19.988  -8.273  -4.256  0.00  0.00    -0.646 OA
HETATM    8  O           1     -19.604  -7.492  -6.238  0.00  0.00    -0.646 OA
ENDBRANCH   5   6
BRANCH   5   9
HETATM    9  C           1     -22.164  -6.726  -3.800  0.00  0.00     0.038 C 
BRANCH   9  10
HETATM   10  C           1     -21.813  -5.997  -2.509  0.00  0.00     0.023 C 
BRANCH  10  11
HETATM   11  C           1     -22.055  -6.920  -1.323  0.00  0.00     0.138 C 
BRANCH  11  12
HETATM   12  N           1     -21.047  -7.989  -1.318  0.00  0.00    -0.227 N 
HETATM   13  C           1     -21.377  -9.171  -1.006  0.00  0.00     0.665 C 
HETATM   14  N           1     -22.577  -9.432  -0.697  0.00  0.00    -0.235 N 
HETATM   15  N           1     -20.485 -10.117  -1.002  0.00  0.00    -0.235 N 
HETATM   16  H           1     -23.297  -8.668  -0.701  0.00  0.00     0.174 HD
HETATM   17  H           1     -22.852 -10.412  -0.438  0.00  0.00     0.174 HD
HETATM   18  H           1     -19.494  -9.901  -1.256  0.00  0.00     0.174 HD
HETATM   19  H           1     -20.757 -11.092  -0.744  0.00  0.00     0.174 HD
HETATM   20  H           1     -20.052  -7.774  -1.574  0.00  0.00     0.177 HD
ENDBRANCH  11  12
ENDBRANCH  10  11
ENDBRANCH   9  10
ENDBRANCH   5   9
ENDBRANCH   3   5
BRANCH   2  21
HETATM   21  C           1     -22.446  -4.622  -8.104  0.00  0.00     0.280 C 
BRANCH  21  22
HETATM   22  N           1     -23.789  -4.048  -7.759  0.00  0.00    -0.066 N 
HETATM   23  H           1     -24.092  -3.394  -8.515  0.00  0.00     0.275 HD
HETATM   24  H           1     -23.723  -3.529  -6.854  0.00  0.00     0.275 HD
HETATM   25  H           1     -24.485  -4.822  -7.667  0.00  0.00     0.275 HD
ENDBRANCH  21  22
BRANCH  21  26
HETATM   26  C           1     -21.673  -3.624  -8.956  0.00  0.00     0.101 C 
BRANCH  26  27
HETATM   27  C           1     -22.103  -3.749 -10.384  0.00  0.00     0.028 A 
HETATM   28  N           1     -21.747  -2.881 -11.385  0.00  0.00    -0.355 N 
HETATM   29  C           1     -22.326  -3.345 -12.468  0.00  0.00     0.180 A 
ATOM     30  HN          1     -21.158  -2.053 -11.305  1.00  0.00     0.166 HD
HETATM   31  N           1     -23.041  -4.479 -12.207  0.00  0.00    -0.360 N 
HETATM   32  H           1     -23.593  -5.040 -12.903  0.00  0.00     0.166 HD
HETATM   33  C           1     -22.906  -4.752 -10.873  0.00  0.00     0.114 A 
ENDBRANCH  26  27
ENDBRANCH  21  26
ENDBRANCH   2  21
TORSDOF 10
ENDMDL
MODEL 7
REMARK VINA RESULT:      -6.6      2.038      8.700
REMARK  10 active torsions:
REMARK  status: ('A' for Active; 'I' for Inactive)
REMARK    1  A    between atoms: C_1  and  C_2 
REMARK    2  A    between atoms: C_2  and  C_5 
REMARK    3  A    between atoms: C_2  and  N_22 
REMARK    4  A    between atoms: C_5  and  C_6 
REMARK    5  A    between atoms: C_6  and  C_30 
REMARK       I    between atoms: N_7  and  C_8 
REMARK       I    between atoms: C_8  and  N_9 
REMARK    6  A    between atoms: N_15  and  C_20 
REMARK    7  A    between atoms: C_18  and  C_19 
REMARK    8  A    between atoms: C_19  and  C_20 
REMARK    9  A    between atoms: C_20  and  C_21 
REMARK       I    between atoms: C_21  and  N_22 
REMARK   10  A    between atoms: N_25  and  C_30 
ROOT
HETATM    1  H           1     -21.350  -5.183  -9.299  0.00  0.00     0.163 HD
HETATM    2  C           1     -23.113  -4.479  -8.475  0.00  0.00     0.249 C 
HETATM    3  N           1     -21.827  -4.944  -8.437  0.00  0.00    -0.345 N 
HETATM    4  O           1     -23.683  -4.194  -7.449  0.00  0.00    -0.271 OA
ENDROOT
BRANCH   3   5
HETATM    5  C           1     -21.148  -5.097  -7.166  0.00  0.00     0.185 C 
BRANCH   5   6
HETATM    6  C           1     -19.734  -4.581  -7.286  0.00  0.00     0.196 C 
HETATM    7  O           1     -19.322  -4.136  -8.379  0.00  0.00    -0.646 OA
HETATM    8  O           1     -18.976  -4.601  -6.292  0.00  0.00    -0.646 OA
ENDBRANCH   5   6
BRANCH   5   9
HETATM    9  C           1     -21.119  -6.570  -6.778  0.00  0.00     0.038 C 
BRANCH   9  10
HETATM   10  C           1     -21.488  -6.715  -5.307  0.00  0.00     0.023 C 
BRANCH  10  11
HETATM   11  C           1     -20.465  -7.603  -4.612  0.00  0.00     0.138 C 
BRANCH  11  12
HETATM   12  N           1     -19.649  -8.293  -5.620  0.00  0.00    -0.227 N 
HETATM   13  C           1     -18.808  -9.171  -5.262  0.00  0.00     0.665 C 
HETATM   14  N           1     -18.671  -9.454  -4.036  0.00  0.00    -0.235 N 
HETATM   15  N           1     -18.086  -9.782  -6.154  0.00  0.00    -0.235 N 
HETATM   16  H           1     -19.255  -8.960  -3.316  0.00  0.00     0.174 HD
HETATM   17  H           1     -17.975 -10.181  -3.739  0.00  0.00     0.174 HD
HETATM   18  H           1     -18.199  -9.549  -7.167  0.00  0.00     0.174 HD
HETATM   19  H           1     -17.393 -10.506  -5.859  0.00  0.00     0.174 HD
HETATM   20  H           1     -19.761  -8.060  -6.637  0.00  0.00     0.177 HD
ENDBRANCH  11  12
ENDBRANCH  10  11
ENDBRANCH   9  10
ENDBRANCH   5   9
ENDBRANCH   3   5
BRANCH   2  21
HETATM   21  C           1     -23.821  -4.320  -9.799  0.00  0.00     0.280 C 
BRANCH  21  22
HETATM   22  N           1     -25.288  -4.576  -9.615  0.00  0.00    -0.066 N 
HETATM   23  H           1     -25.466  -5.606  -9.630  0.00  0.00     0.275 HD
HETATM   24  H           1     -25.820  -4.119 -10.388  0.00  0.00     0.275 HD
HETATM   25  H           1     -25.598  -4.182  -8.698  0.00  0.00     0.275 HD
ENDBRANCH  21  22
BRANCH  21  26
HETATM   26  C           1     -23.616  -2.904 -10.319  0.00  0.00     0.101 C 
BRANCH  26  27
HETATM   27  C           1     -23.249  -2.953 -11.770  0.00  0.00     0.028 A 
HETATM   28  N           1     -24.017  -2.447 -12.786  0.00  0.00    -0.355 N 
HETATM   29  C           1     -23.343  -2.692 -13.886  0.00  0.00     0.180 A 
ATOM     30  HN          1     -24.920  -1.979 -12.706  1.00  0.00     0.166 HD
HETATM   31  N           1     -22.169  -3.337 -13.620  0.00  0.00    -0.360 N 
HETATM   32  H           1     -21.454  -3.643 -14.326  0.00  0.00     0.166 HD
HETATM   33  C           1     -22.094  -3.511 -12.265  0.00  0.00     0.114 A 
ENDBRANCH  26  27
ENDBRANCH  21  26
ENDBRANCH   2  21
TORSDOF 10
ENDMDL
MODEL 8
REMARK VINA RESULT:      -6.6      2.265      3.562
REMARK  10 active torsions:
REMARK  status: ('A' for Active; 'I' for Inactive)
REMARK    1  A    between atoms: C_1  and  C_2 
REMARK    2  A    between atoms: C_2  and  C_5 
REMARK    3  A    between atoms: C_2  and  N_22 
REMARK    4  A    between atoms: C_5  and  C_6 
REMARK    5  A    between atoms: C_6  and  C_30 
REMARK       I    between atoms: N_7  and  C_8 
REMARK       I    between atoms: C_8  and  N_9 
REMARK    6  A    between atoms: N_15  and  C_20 
REMARK    7  A    between atoms: C_18  and  C_19 
REMARK    8  A    between atoms: C_19  and  C_20 
REMARK    9  A    between atoms: C_20  and  C_21 
REMARK       I    between atoms: C_21  and  N_22 
REMARK   10  A    between atoms: N_25  and  C_30 
ROOT
HETATM    1  H           1     -21.465  -4.450  -5.681  0.00  0.00     0.163 HD
HETATM    2  C           1     -21.220  -6.499  -5.843  0.00  0.00     0.249 C 
HETATM    3  N           1     -21.418  -5.232  -6.323  0.00  0.00    -0.345 N 
HETATM    4  O           1     -21.165  -7.433  -6.607  0.00  0.00    -0.271 OA
ENDROOT
BRANCH   3   5
HETATM    5  C           1     -21.561  -5.011  -7.749  0.00  0.00     0.185 C 
BRANCH   5   6
HETATM    6  C           1     -20.242  -4.549  -8.320  0.00  0.00     0.196 C 
HETATM    7  O           1     -20.099  -4.444  -9.557  0.00  0.00    -0.646 OA
HETATM    8  O           1     -19.293  -4.274  -7.555  0.00  0.00    -0.646 OA
ENDBRANCH   5   6
BRANCH   5   9
HETATM    9  C           1     -22.620  -3.945  -7.994  0.00  0.00     0.038 C 
BRANCH   9  10
HETATM   10  C           1     -23.566  -4.412  -9.093  0.00  0.00     0.023 C 
BRANCH  10  11
HETATM   11  C           1     -23.680  -3.331 -10.159  0.00  0.00     0.138 C 
BRANCH  11  12
HETATM   12  N           1     -22.704  -3.589 -11.226  0.00  0.00    -0.227 N 
HETATM   13  C           1     -22.916  -3.157 -12.398  0.00  0.00     0.665 C 
HETATM   14  N           1     -23.971  -2.503 -12.650  0.00  0.00    -0.235 N 
HETATM   15  N           1     -22.052  -3.386 -13.342  0.00  0.00    -0.235 N 
HETATM   16  H           1     -24.668  -2.319 -11.886  0.00  0.00     0.174 HD
HETATM   17  H           1     -24.147  -2.145 -13.620  0.00  0.00     0.174 HD
HETATM   18  H           1     -21.182  -3.926 -13.135  0.00  0.00     0.174 HD
HETATM   19  H           1     -22.228  -3.029 -14.308  0.00  0.00     0.174 HD
HETATM   20  H           1     -21.830  -4.132 -11.018  0.00  0.00     0.177 HD
ENDBRANCH  11  12
ENDBRANCH  10  11
ENDBRANCH   9  10
ENDBRANCH   5   9
ENDBRANCH   3   5
BRANCH   2  21
HETATM   21  C           1     -21.072  -6.730  -4.359  0.00  0.00     0.280 C 
BRANCH  21  22
HETATM   22  N           1     -22.300  -6.238  -3.652  0.00  0.00    -0.066 N 
HETATM   23  H           1     -22.072  -6.049  -2.649  0.00  0.00     0.275 HD
HETATM   24  H           1     -23.049  -6.965  -3.708  0.00  0.00     0.275 HD
HETATM   25  H           1     -22.634  -5.358  -4.105  0.00  0.00     0.275 HD
ENDBRANCH  21  22
BRANCH  21  26
HETATM   26  C           1     -20.895  -8.218  -4.091  0.00  0.00     0.101 C 
BRANCH  26  27
HETATM   27  C           1     -21.110  -8.492  -2.635  0.00  0.00     0.028 A 
HETATM   28  N           1     -22.016  -9.393  -2.136  0.00  0.00    -0.355 N 
HETATM   29  C           1     -21.887  -9.328  -0.831  0.00  0.00     0.180 A 
ATOM     30  HN          1     -22.654  -9.987  -2.665  1.00  0.00     0.166 HD
HETATM   31  N           1     -20.932  -8.421  -0.467  0.00  0.00    -0.360 N 
HETATM   32  H           1     -20.641  -8.185   0.514  0.00  0.00     0.166 HD
HETATM   33  C           1     -20.424  -7.877  -1.615  0.00  0.00     0.114 A 
ENDBRANCH  26  27
ENDBRANCH  21  26
ENDBRANCH   2  21
TORSDOF 10
ENDMDL
MODEL 9
REMARK VINA RESULT:      -6.5      1.885      8.793
REMARK  10 active torsions:
REMARK  status: ('A' for Active; 'I' for Inactive)
REMARK    1  A    between atoms: C_1  and  C_2 
REMARK    2  A    between atoms: C_2  and  C_5 
REMARK    3  A    between atoms: C_2  and  N_22 
REMARK    4  A    between atoms: C_5  and  C_6 
REMARK    5  A    between atoms: C_6  and  C_30 
REMARK       I    between atoms: N_7  and  C_8 
REMARK       I    between atoms: C_8  and  N_9 
REMARK    6  A    between atoms: N_15  and  C_20 
REMARK    7  A    between atoms: C_18  and  C_19 
REMARK    8  A    between atoms: C_19  and  C_20 
REMARK    9  A    between atoms: C_20  and  C_21 
REMARK       I    between atoms: C_21  and  N_22 
REMARK   10  A    between atoms: N_25  and  C_30 
ROOT
HETATM    1  H           1     -21.293  -5.520  -8.637  0.00  0.00     0.163 HD
HETATM    2  C           1     -22.987  -4.626  -7.853  0.00  0.00     0.249 C 
HETATM    3  N           1     -21.793  -5.292  -7.786  0.00  0.00    -0.345 N 
HETATM    4  O           1     -23.585  -4.353  -6.840  0.00  0.00    -0.271 OA
ENDROOT
BRANCH   3   5
HETATM    5  C           1     -21.246  -5.671  -6.498  0.00  0.00     0.185 C 
BRANCH   5   6
HETATM    6  C           1     -20.012  -4.849  -6.216  0.00  0.00     0.196 C 
HETATM    7  O           1     -19.159  -4.672  -7.112  0.00  0.00    -0.646 OA
HETATM    8  O           1     -19.842  -4.347  -5.083  0.00  0.00    -0.646 OA
ENDBRANCH   5   6
BRANCH   5   9
HETATM    9  C           1     -20.878  -7.149  -6.517  0.00  0.00     0.038 C 
BRANCH   9  10
HETATM   10  C           1     -20.013  -7.473  -5.306  0.00  0.00     0.023 C 
BRANCH  10  11
HETATM   11  C           1     -20.903  -7.892  -4.144  0.00  0.00     0.138 C 
BRANCH  11  12
HETATM   12  N           1     -21.421  -6.696  -3.466  0.00  0.00    -0.227 N 
HETATM   13  C           1     -21.823  -6.771  -2.267  0.00  0.00     0.665 C 
HETATM   14  N           1     -21.780  -7.877  -1.653  0.00  0.00    -0.235 N 
HETATM   15  N           1     -22.282  -5.713  -1.667  0.00  0.00    -0.235 N 
HETATM   16  H           1     -21.409  -8.732  -2.138  0.00  0.00     0.174 HD
HETATM   17  H           1     -22.113  -7.940  -0.660  0.00  0.00     0.174 HD
HETATM   18  H           1     -22.319  -4.800  -2.174  0.00  0.00     0.174 HD
HETATM   19  H           1     -22.614  -5.775  -0.679  0.00  0.00     0.174 HD
HETATM   20  H           1     -21.458  -5.778  -3.974  0.00  0.00     0.177 HD
ENDBRANCH  11  12
ENDBRANCH  10  11
ENDBRANCH   9  10
ENDBRANCH   5   9
ENDBRANCH   3   5
BRANCH   2  21
HETATM   21  C           1     -23.557  -4.231  -9.194  0.00  0.00     0.280 C 
BRANCH  21  22
HETATM   22  N           1     -24.660  -3.234  -8.993  0.00  0.00    -0.066 N 
HETATM   23  H           1     -24.279  -2.267  -9.101  0.00  0.00     0.275 HD
HETATM   24  H           1     -25.060  -3.346  -8.034  0.00  0.00     0.275 HD
HETATM   25  H           1     -25.409  -3.395  -9.704  0.00  0.00     0.275 HD
ENDBRANCH  21  22
BRANCH  21  26
HETATM   26  C           1     -22.462  -3.609 -10.050  0.00  0.00     0.101 C 
BRANCH  26  27
HETATM   27  C           1     -22.957  -3.447 -11.454  0.00  0.00     0.028 A 
HETATM   28  N           1     -22.956  -2.265 -12.150  0.00  0.00    -0.355 N 
HETATM   29  C           1     -23.465  -2.555 -13.325  0.00  0.00     0.180 A 
ATOM     30  HN          1     -22.629  -1.356 -11.824  1.00  0.00     0.166 HD
HETATM   31  N           1     -23.795  -3.877 -13.416  0.00  0.00    -0.360 N 
HETATM   32  H           1     -24.216  -4.357 -14.249  0.00  0.00     0.166 HD
HETATM   33  C           1     -23.474  -4.463 -12.222  0.00  0.00     0.114 A 
ENDBRANCH  26  27
ENDBRANCH  21  26
ENDBRANCH   2  21
TORSDOF 10
ENDMDL
