MODEL 1
REMARK VINA RESULT:      -6.9      0.000      0.000
REMARK  5 active torsions:
REMARK  status: ('A' for Active; 'I' for Inactive)
REMARK    1  A    between atoms: C_3  and  C_7 
REMARK    2  A    between atoms: C_3  and  C_4 
REMARK    3  A    between atoms: C_4  and  C_5 
REMARK    4  A    between atoms: C_4  and  N_11 
REMARK       I    between atoms: N_11  and  C_12 
REMARK    5  A    between atoms: C_12  and  C_13 
ROOT
HETATM    1  H           1     -22.029  -4.742  -6.950  0.00  0.00     0.275 HD
HETATM    2  H           1     -21.323  -3.537  -5.971  0.00  0.00     0.275 HD
HETATM    3  C           1     -20.278  -3.916  -7.747  0.00  0.00     0.274 C 
HETATM    4  C           1     -20.213  -6.805  -5.678  0.00  0.00     0.027 C 
HETATM    5  C           1     -20.071  -6.311  -7.112  0.00  0.00     0.004 C 
HETATM    6  C           1     -19.367  -4.961  -7.117  0.00  0.00     0.042 C 
HETATM    7  C           1     -21.033  -5.803  -4.875  0.00  0.00     0.229 C 
HETATM    8  H           1     -22.955  -4.973  -4.939  0.00  0.00     0.274 HD
HETATM    9  H           1     -22.295  -5.320  -6.474  0.00  0.00     0.274 HD
HETATM   10  H           1     -22.875  -6.586  -5.488  0.00  0.00     0.274 HD
HETATM   11  N           1     -21.547  -3.816  -6.953  0.00  0.00    -0.067 N 
HETATM   12  N           1     -22.393  -5.660  -5.491  0.00  0.00    -0.079 N 
HETATM   13  H           1     -22.171  -3.098  -7.385  0.00  0.00     0.275 HD
ENDROOT
BRANCH   3  14
HETATM   14  C           1     -20.602  -4.318  -9.165  0.00  0.00     0.249 C 
HETATM   15  N           1     -21.835  -4.039  -9.690  0.00  0.00    -0.344 N 
HETATM   16  H           1     -22.528  -3.561  -9.129  0.00  0.00     0.163 HD
HETATM   17  O           1     -19.775  -4.889  -9.835  0.00  0.00    -0.271 OA
BRANCH  15  18
HETATM   18  C           1     -22.146  -4.426 -11.053  0.00  0.00     0.195 C 
BRANCH  18  19
HETATM   19  C           1     -23.591  -4.900 -11.128  0.00  0.00     0.149 C 
BRANCH  19  20
HETATM   20  C           1     -24.431  -4.111 -10.154  0.00  0.00     0.175 C 
HETATM   21  O           1     -24.333  -4.324  -8.926  0.00  0.00    -0.648 OA
HETATM   22  O           1     -25.226  -3.243 -10.576  0.00  0.00    -0.648 OA
ENDBRANCH  19  20
ENDBRANCH  18  19
BRANCH  18  23
HETATM   23  C           1     -21.956  -3.242 -11.969  0.00  0.00     0.197 C 
HETATM   24  O           1     -21.235  -2.285 -11.612  0.00  0.00    -0.646 OA
HETATM   25  O           1     -22.521  -3.217 -13.084  0.00  0.00    -0.646 OA
ENDBRANCH  18  23
ENDBRANCH  15  18
ENDBRANCH   3  14
TORSDOF 5
ENDMDL
MODEL 2
REMARK VINA RESULT:      -6.3     17.574     19.381
REMARK  5 active torsions:
REMARK  status: ('A' for Active; 'I' for Inactive)
REMARK    1  A    between atoms: C_3  and  C_7 
REMARK    2  A    between atoms: C_3  and  C_4 
REMARK    3  A    between atoms: C_4  and  C_5 
REMARK    4  A    between atoms: C_4  and  N_11 
REMARK       I    between atoms: N_11  and  C_12 
REMARK    5  A    between atoms: C_12  and  C_13 
ROOT
HETATM    1  H           1     -13.848   4.667 -22.073  0.00  0.00     0.275 HD
HETATM    2  H           1     -14.887   4.259 -20.783  0.00  0.00     0.275 HD
HETATM    3  C           1     -13.397   5.642 -20.276  0.00  0.00     0.274 C 
HETATM    4  C           1     -11.904   2.537 -21.150  0.00  0.00     0.027 C 
HETATM    5  C           1     -11.653   4.034 -21.023  0.00  0.00     0.004 C 
HETATM    6  C           1     -12.410   4.576 -19.818  0.00  0.00     0.042 C 
HETATM    7  C           1     -13.396   2.286 -21.333  0.00  0.00     0.229 C 
HETATM    8  H           1     -14.894   2.805 -22.700  0.00  0.00     0.274 HD
HETATM    9  H           1     -13.701   4.006 -22.487  0.00  0.00     0.274 HD
HETATM   10  H           1     -13.352   2.607 -23.401  0.00  0.00     0.274 HD
HETATM   11  N           1     -14.368   5.039 -21.247  0.00  0.00    -0.067 N 
HETATM   12  N           1     -13.872   2.979 -22.575  0.00  0.00    -0.079 N 
HETATM   13  H           1     -15.046   5.770 -21.560  0.00  0.00     0.275 HD
ENDROOT
BRANCH   3  14
HETATM   14  C           1     -12.648   6.767 -20.946  0.00  0.00     0.249 C 
HETATM   15  N           1     -11.436   7.171 -20.453  0.00  0.00    -0.344 N 
HETATM   16  H           1     -11.042   6.714 -19.641  0.00  0.00     0.163 HD
HETATM   17  O           1     -13.119   7.313 -21.915  0.00  0.00    -0.271 OA
BRANCH  15  18
HETATM   18  C           1     -10.717   8.253 -21.098  0.00  0.00     0.195 C 
BRANCH  18  19
HETATM   19  C           1     -11.009   9.559 -20.371  0.00  0.00     0.149 C 
BRANCH  19  20
HETATM   20  C           1     -11.283   9.275 -18.914  0.00  0.00     0.175 C 
HETATM   21  O           1     -10.338   9.015 -18.138  0.00  0.00    -0.648 OA
HETATM   22  O           1     -12.457   9.299 -18.484  0.00  0.00    -0.648 OA
ENDBRANCH  19  20
ENDBRANCH  18  19
BRANCH  18  23
HETATM   23  C           1      -9.236   7.971 -21.052  0.00  0.00     0.197 C 
HETATM   24  O           1      -8.420   8.853 -21.397  0.00  0.00    -0.646 OA
HETATM   25  O           1      -8.824   6.854 -20.669  0.00  0.00    -0.646 OA
ENDBRANCH  18  23
ENDBRANCH  15  18
ENDBRANCH   3  14
TORSDOF 5
ENDMDL
MODEL 3
REMARK VINA RESULT:      -6.1      2.505      5.627
REMARK  5 active torsions:
REMARK  status: ('A' for Active; 'I' for Inactive)
REMARK    1  A    between atoms: C_3  and  C_7 
REMARK    2  A    between atoms: C_3  and  C_4 
REMARK    3  A    between atoms: C_4  and  C_5 
REMARK    4  A    between atoms: C_4  and  N_11 
REMARK       I    between atoms: N_11  and  C_12 
REMARK    5  A    between atoms: C_12  and  C_13 
ROOT
HETATM    1  H           1     -23.303  -2.536  -9.985  0.00  0.00     0.275 HD
HETATM    2  H           1     -24.934  -3.037  -9.963  0.00  0.00     0.275 HD
HETATM    3  C           1     -23.670  -4.189  -8.754  0.00  0.00     0.274 C 
HETATM    4  C           1     -22.734  -4.562 -12.162  0.00  0.00     0.027 C 
HETATM    5  C           1     -22.242  -4.691 -10.727  0.00  0.00     0.004 C 
HETATM    6  C           1     -23.371  -5.207  -9.846  0.00  0.00     0.042 C 
HETATM    7  C           1     -23.904  -3.586 -12.213  0.00  0.00     0.229 C 
HETATM    8  H           1     -24.259  -1.575 -11.751  0.00  0.00     0.274 HD
HETATM    9  H           1     -23.120  -2.332 -10.730  0.00  0.00     0.274 HD
HETATM   10  H           1     -22.681  -1.889 -12.320  0.00  0.00     0.274 HD
HETATM   11  N           1     -24.079  -2.889  -9.381  0.00  0.00    -0.067 N 
HETATM   12  N           1     -23.457  -2.244 -11.715  0.00  0.00    -0.079 N 
HETATM   13  H           1     -24.284  -2.191  -8.631  0.00  0.00     0.275 HD
ENDROOT
BRANCH   3  14
HETATM   14  C           1     -22.435  -3.975  -7.913  0.00  0.00     0.249 C 
HETATM   15  N           1     -21.980  -4.979  -7.100  0.00  0.00    -0.344 N 
HETATM   16  H           1     -22.469  -5.864  -7.065  0.00  0.00     0.163 HD
HETATM   17  O           1     -21.850  -2.919  -7.955  0.00  0.00    -0.271 OA
BRANCH  15  18
HETATM   18  C           1     -20.793  -4.773  -6.292  0.00  0.00     0.195 C 
BRANCH  18  19
HETATM   19  C           1     -20.936  -5.532  -4.980  0.00  0.00     0.149 C 
BRANCH  19  20
HETATM   20  C           1     -22.075  -6.516  -5.088  0.00  0.00     0.175 C 
HETATM   21  O           1     -21.845  -7.709  -5.386  0.00  0.00    -0.648 OA
HETATM   22  O           1     -23.248  -6.139  -4.880  0.00  0.00    -0.648 OA
ENDBRANCH  19  20
ENDBRANCH  18  19
BRANCH  18  23
HETATM   23  C           1     -19.583  -5.279  -7.037  0.00  0.00     0.197 C 
HETATM   24  O           1     -19.467  -6.499  -7.286  0.00  0.00    -0.646 OA
HETATM   25  O           1     -18.694  -4.480  -7.404  0.00  0.00    -0.646 OA
ENDBRANCH  18  23
ENDBRANCH  15  18
ENDBRANCH   3  14
TORSDOF 5
ENDMDL
MODEL 4
REMARK VINA RESULT:      -5.9      1.531      2.742
REMARK  5 active torsions:
REMARK  status: ('A' for Active; 'I' for Inactive)
REMARK    1  A    between atoms: C_3  and  C_7 
REMARK    2  A    between atoms: C_3  and  C_4 
REMARK    3  A    between atoms: C_4  and  C_5 
REMARK    4  A    between atoms: C_4  and  N_11 
REMARK       I    between atoms: N_11  and  C_12 
REMARK    5  A    between atoms: C_12  and  C_13 
ROOT
HETATM    1  H           1     -21.106  -4.785  -4.986  0.00  0.00     0.275 HD
HETATM    2  H           1     -19.470  -5.054  -4.581  0.00  0.00     0.275 HD
HETATM    3  C           1     -19.827  -4.898  -6.640  0.00  0.00     0.274 C 
HETATM    4  C           1     -21.481  -7.768  -5.351  0.00  0.00     0.027 C 
HETATM    5  C           1     -21.465  -6.764  -6.495  0.00  0.00     0.004 C 
HETATM    6  C           1     -20.026  -6.396  -6.830  0.00  0.00     0.042 C 
HETATM    7  C           1     -20.817  -7.152  -4.125  0.00  0.00     0.229 C 
HETATM    8  H           1     -21.110  -5.496  -2.877  0.00  0.00     0.274 HD
HETATM    9  H           1     -21.554  -5.228  -4.503  0.00  0.00     0.274 HD
HETATM   10  H           1     -22.553  -6.170  -3.488  0.00  0.00     0.274 HD
HETATM   11  N           1     -20.118  -4.533  -5.214  0.00  0.00    -0.067 N 
HETATM   12  N           1     -21.565  -5.918  -3.717  0.00  0.00    -0.079 N 
HETATM   13  H           1     -19.981  -3.506  -5.084  0.00  0.00     0.275 HD
ENDROOT
BRANCH   3  14
HETATM   14  C           1     -20.762  -4.146  -7.554  0.00  0.00     0.249 C 
HETATM   15  N           1     -20.939  -4.563  -8.846  0.00  0.00    -0.344 N 
HETATM   16  H           1     -20.443  -5.377  -9.187  0.00  0.00     0.163 HD
HETATM   17  O           1     -21.353  -3.174  -7.146  0.00  0.00    -0.271 OA
BRANCH  15  18
HETATM   18  C           1     -21.838  -3.839  -9.724  0.00  0.00     0.195 C 
BRANCH  18  19
HETATM   19  C           1     -21.368  -3.990 -11.165  0.00  0.00     0.149 C 
BRANCH  19  20
HETATM   20  C           1     -22.195  -3.100 -12.060  0.00  0.00     0.175 C 
HETATM   21  O           1     -22.786  -3.583 -13.050  0.00  0.00    -0.648 OA
HETATM   22  O           1     -22.288  -1.878 -11.811  0.00  0.00    -0.648 OA
ENDBRANCH  19  20
ENDBRANCH  18  19
BRANCH  18  23
HETATM   23  C           1     -23.232  -4.398  -9.587  0.00  0.00     0.197 C 
HETATM   24  O           1     -23.564  -5.417 -10.232  0.00  0.00    -0.646 OA
HETATM   25  O           1     -24.058  -3.841  -8.831  0.00  0.00    -0.646 OA
ENDBRANCH  18  23
ENDBRANCH  15  18
ENDBRANCH   3  14
TORSDOF 5
ENDMDL
MODEL 5
REMARK VINA RESULT:      -5.8     17.268     19.179
REMARK  5 active torsions:
REMARK  status: ('A' for Active; 'I' for Inactive)
REMARK    1  A    between atoms: C_3  and  C_7 
REMARK    2  A    between atoms: C_3  and  C_4 
REMARK    3  A    between atoms: C_4  and  C_5 
REMARK    4  A    between atoms: C_4  and  N_11 
REMARK       I    between atoms: N_11  and  C_12 
REMARK    5  A    between atoms: C_12  and  C_13 
ROOT
HETATM    1  H           1     -11.863   8.049 -21.684  0.00  0.00     0.275 HD
HETATM    2  H           1     -10.542   9.078 -22.010  0.00  0.00     0.275 HD
HETATM    3  C           1     -10.272   7.845 -20.339  0.00  0.00     0.274 C 
HETATM    4  C           1     -12.953  10.101 -19.743  0.00  0.00     0.027 C 
HETATM    5  C           1     -12.346   8.768 -19.324  0.00  0.00     0.004 C 
HETATM    6  C           1     -10.827   8.868 -19.357  0.00  0.00     0.042 C 
HETATM    7  C           1     -12.497  10.446 -21.155  0.00  0.00     0.229 C 
HETATM    8  H           1     -12.635   9.610 -23.071  0.00  0.00     0.274 HD
HETATM    9  H           1     -12.530   8.458 -21.815  0.00  0.00     0.274 HD
HETATM   10  H           1     -13.990   9.304 -22.079  0.00  0.00     0.274 HD
HETATM   11  N           1     -10.821   8.118 -21.708  0.00  0.00    -0.067 N 
HETATM   12  N           1     -12.947   9.373 -22.102  0.00  0.00    -0.079 N 
HETATM   13  H           1     -10.439   7.416 -22.381  0.00  0.00     0.275 HD
ENDROOT
BRANCH   3  14
HETATM   14  C           1     -10.674   6.458 -19.903  0.00  0.00     0.249 C 
HETATM   15  N           1     -11.511   5.710 -20.687  0.00  0.00    -0.344 N 
HETATM   16  H           1     -11.857   6.086 -21.560  0.00  0.00     0.163 HD
HETATM   17  O           1     -10.260   6.008 -18.861  0.00  0.00    -0.271 OA
BRANCH  15  18
HETATM   18  C           1     -11.897   4.376 -20.267  0.00  0.00     0.195 C 
BRANCH  18  19
HETATM   19  C           1     -13.364   4.144 -20.606  0.00  0.00     0.149 C 
BRANCH  19  20
HETATM   20  C           1     -14.099   5.462 -20.594  0.00  0.00     0.175 C 
HETATM   21  O           1     -14.328   6.061 -21.667  0.00  0.00    -0.648 OA
HETATM   22  O           1     -14.479   5.955 -19.510  0.00  0.00    -0.648 OA
ENDBRANCH  19  20
ENDBRANCH  18  19
BRANCH  18  23
HETATM   23  C           1     -11.047   3.357 -20.984  0.00  0.00     0.197 C 
HETATM   24  O           1     -10.749   3.524 -22.187  0.00  0.00    -0.646 OA
HETATM   25  O           1     -10.641   2.342 -20.375  0.00  0.00    -0.646 OA
ENDBRANCH  18  23
ENDBRANCH  15  18
ENDBRANCH   3  14
TORSDOF 5
ENDMDL
MODEL 6
REMARK VINA RESULT:      -5.8     17.510     19.546
REMARK  5 active torsions:
REMARK  status: ('A' for Active; 'I' for Inactive)
REMARK    1  A    between atoms: C_3  and  C_7 
REMARK    2  A    between atoms: C_3  and  C_4 
REMARK    3  A    between atoms: C_4  and  C_5 
REMARK    4  A    between atoms: C_4  and  N_11 
REMARK       I    between atoms: N_11  and  C_12 
REMARK    5  A    between atoms: C_12  and  C_13 
ROOT
HETATM    1  H           1     -13.966  10.583 -20.714  0.00  0.00     0.275 HD
HETATM    2  H           1     -12.770  11.761 -20.414  0.00  0.00     0.275 HD
HETATM    3  C           1     -12.117   9.790 -20.135  0.00  0.00     0.274 C 
HETATM    4  C           1     -14.652  10.561 -17.765  0.00  0.00     0.027 C 
HETATM    5  C           1     -13.941   9.422 -18.484  0.00  0.00     0.004 C 
HETATM    6  C           1     -12.468   9.768 -18.653  0.00  0.00     0.042 C 
HETATM    7  C           1     -14.521  11.839 -18.584  0.00  0.00     0.229 C 
HETATM    8  H           1     -15.054  12.512 -20.494  0.00  0.00     0.274 HD
HETATM    9  H           1     -14.655  10.855 -20.427  0.00  0.00     0.274 HD
HETATM   10  H           1     -16.154  11.398 -19.818  0.00  0.00     0.274 HD
HETATM   11  N           1     -12.956  10.821 -20.830  0.00  0.00    -0.067 N 
HETATM   12  N           1     -15.143  11.635 -19.933  0.00  0.00    -0.079 N 
HETATM   13  H           1     -12.715  10.837 -21.847  0.00  0.00     0.275 HD
ENDROOT
BRANCH   3  14
HETATM   14  C           1     -12.386   8.433 -20.736  0.00  0.00     0.249 C 
HETATM   15  N           1     -11.798   7.319 -20.201  0.00  0.00    -0.344 N 
HETATM   16  H           1     -11.185   7.405 -19.400  0.00  0.00     0.163 HD
HETATM   17  O           1     -13.119   8.330 -21.692  0.00  0.00    -0.271 OA
BRANCH  15  18
HETATM   18  C           1     -12.057   6.014 -20.779  0.00  0.00     0.195 C 
BRANCH  18  19
HETATM   19  C           1     -10.768   5.204 -20.798  0.00  0.00     0.149 C 
BRANCH  19  20
HETATM   20  C           1      -9.734   5.882 -19.934  0.00  0.00     0.175 C 
HETATM   21  O           1      -9.837   5.844 -18.688  0.00  0.00    -0.648 OA
HETATM   22  O           1      -8.773   6.481 -20.463  0.00  0.00    -0.648 OA
ENDBRANCH  19  20
ENDBRANCH  18  19
BRANCH  18  23
HETATM   23  C           1     -13.093   5.293 -19.953  0.00  0.00     0.197 C 
HETATM   24  O           1     -12.762   4.311 -19.254  0.00  0.00    -0.646 OA
HETATM   25  O           1     -14.283   5.677 -19.968  0.00  0.00    -0.646 OA
ENDBRANCH  18  23
ENDBRANCH  15  18
ENDBRANCH   3  14
TORSDOF 5
ENDMDL
MODEL 7
REMARK VINA RESULT:      -5.8      5.058      7.949
REMARK  5 active torsions:
REMARK  status: ('A' for Active; 'I' for Inactive)
REMARK    1  A    between atoms: C_3  and  C_7 
REMARK    2  A    between atoms: C_3  and  C_4 
REMARK    3  A    between atoms: C_4  and  C_5 
REMARK    4  A    between atoms: C_4  and  N_11 
REMARK       I    between atoms: N_11  and  C_12 
REMARK    5  A    between atoms: C_12  and  C_13 
ROOT
HETATM    1  H           1     -21.998  -4.544  -5.779  0.00  0.00     0.275 HD
HETATM    2  H           1     -22.900  -5.248  -7.044  0.00  0.00     0.275 HD
HETATM    3  C           1     -21.850  -6.630  -5.870  0.00  0.00     0.274 C 
HETATM    4  C           1     -19.556  -4.512  -7.569  0.00  0.00     0.027 C 
HETATM    5  C           1     -19.725  -5.439  -6.373  0.00  0.00     0.004 C 
HETATM    6  C           1     -20.614  -6.613  -6.760  0.00  0.00     0.042 C 
HETATM    7  C           1     -20.920  -3.992  -8.005  0.00  0.00     0.229 C 
HETATM    8  H           1     -22.489  -2.881  -7.174  0.00  0.00     0.274 HD
HETATM    9  H           1     -21.671  -3.875  -6.054  0.00  0.00     0.274 HD
HETATM   10  H           1     -20.944  -2.433  -6.608  0.00  0.00     0.274 HD
HETATM   11  N           1     -22.609  -5.348  -6.045  0.00  0.00    -0.067 N 
HETATM   12  N           1     -21.554  -3.238  -6.874  0.00  0.00    -0.079 N 
HETATM   13  H           1     -23.457  -5.361  -5.435  0.00  0.00     0.275 HD
ENDROOT
BRANCH   3  14
HETATM   14  C           1     -21.430  -6.774  -4.428  0.00  0.00     0.249 C 
HETATM   15  N           1     -21.029  -7.993  -3.951  0.00  0.00    -0.344 N 
HETATM   16  H           1     -21.012  -8.797  -4.566  0.00  0.00     0.163 HD
HETATM   17  O           1     -21.450  -5.815  -3.694  0.00  0.00    -0.271 OA
BRANCH  15  18
HETATM   18  C           1     -20.625  -8.131  -2.565  0.00  0.00     0.195 C 
BRANCH  18  19
HETATM   19  C           1     -21.801  -8.645  -1.745  0.00  0.00     0.149 C 
BRANCH  19  20
HETATM   20  C           1     -22.100  -7.675  -0.629  0.00  0.00     0.175 C 
HETATM   21  O           1     -21.738  -7.933   0.540  0.00  0.00    -0.648 OA
HETATM   22  O           1     -22.710  -6.611  -0.873  0.00  0.00    -0.648 OA
ENDBRANCH  19  20
ENDBRANCH  18  19
BRANCH  18  23
HETATM   23  C           1     -19.479  -9.106  -2.469  0.00  0.00     0.197 C 
HETATM   24  O           1     -18.471  -8.960  -3.195  0.00  0.00    -0.646 OA
HETATM   25  O           1     -19.536 -10.062  -1.665  0.00  0.00    -0.646 OA
ENDBRANCH  18  23
ENDBRANCH  15  18
ENDBRANCH   3  14
TORSDOF 5
ENDMDL
MODEL 8
REMARK VINA RESULT:      -5.8      3.912      6.866
REMARK  5 active torsions:
REMARK  status: ('A' for Active; 'I' for Inactive)
REMARK    1  A    between atoms: C_3  and  C_7 
REMARK    2  A    between atoms: C_3  and  C_4 
REMARK    3  A    between atoms: C_4  and  C_5 
REMARK    4  A    between atoms: C_4  and  N_11 
REMARK       I    between atoms: N_11  and  C_12 
REMARK    5  A    between atoms: C_12  and  C_13 
ROOT
HETATM    1  H           1     -19.969  -5.326  -8.809  0.00  0.00     0.275 HD
HETATM    2  H           1     -19.123  -3.865  -8.573  0.00  0.00     0.275 HD
HETATM    3  C           1     -20.347  -4.412  -6.964  0.00  0.00     0.274 C 
HETATM    4  C           1     -22.350  -3.756  -9.826  0.00  0.00     0.027 C 
HETATM    5  C           1     -22.314  -4.477  -8.485  0.00  0.00     0.004 C 
HETATM    6  C           1     -21.553  -3.632  -7.473  0.00  0.00     0.042 C 
HETATM    7  C           1     -20.927  -3.532 -10.321  0.00  0.00     0.229 C 
HETATM    8  H           1     -19.263  -4.700 -10.825  0.00  0.00     0.274 HD
HETATM    9  H           1     -20.213  -5.349  -9.564  0.00  0.00     0.274 HD
HETATM   10  H           1     -20.762  -5.435 -11.178  0.00  0.00     0.274 HD
HETATM   11  N           1     -19.446  -4.746  -8.116  0.00  0.00    -0.067 N 
HETATM   12  N           1     -20.239  -4.855 -10.484  0.00  0.00    -0.079 N 
HETATM   13  H           1     -18.619  -5.280  -7.765  0.00  0.00     0.275 HD
ENDROOT
BRANCH   3  14
HETATM   14  C           1     -20.814  -5.686  -6.303  0.00  0.00     0.249 C 
HETATM   15  N           1     -20.888  -5.761  -4.938  0.00  0.00    -0.344 N 
HETATM   16  H           1     -20.631  -4.962  -4.373  0.00  0.00     0.163 HD
HETATM   17  O           1     -21.121  -6.639  -6.979  0.00  0.00    -0.271 OA
BRANCH  15  18
HETATM   18  C           1     -21.336  -6.985  -4.304  0.00  0.00     0.195 C 
BRANCH  18  19
HETATM   19  C           1     -20.251  -8.047  -4.427  0.00  0.00     0.149 C 
BRANCH  19  20
HETATM   20  C           1     -20.877  -9.366  -4.806  0.00  0.00     0.175 C 
HETATM   21  O           1     -20.698  -9.838  -5.950  0.00  0.00    -0.648 OA
HETATM   22  O           1     -21.575  -9.988  -3.976  0.00  0.00    -0.648 OA
ENDBRANCH  19  20
ENDBRANCH  18  19
BRANCH  18  23
HETATM   23  C           1     -21.620  -6.722  -2.846  0.00  0.00     0.197 C 
HETATM   24  O           1     -22.537  -5.938  -2.518  0.00  0.00    -0.646 OA
HETATM   25  O           1     -20.937  -7.287  -1.964  0.00  0.00    -0.646 OA
ENDBRANCH  18  23
ENDBRANCH  15  18
ENDBRANCH   3  14
TORSDOF 5
ENDMDL
MODEL 9
REMARK VINA RESULT:      -5.6      6.625      9.278
REMARK  5 active torsions:
REMARK  status: ('A' for Active; 'I' for Inactive)
REMARK    1  A    between atoms: C_3  and  C_7 
REMARK    2  A    between atoms: C_3  and  C_4 
REMARK    3  A    between atoms: C_4  and  C_5 
REMARK    4  A    between atoms: C_4  and  N_11 
REMARK       I    between atoms: N_11  and  C_12 
REMARK    5  A    between atoms: C_12  and  C_13 
ROOT
HETATM    1  H           1     -20.870 -11.964  -0.466  0.00  0.00     0.275 HD
HETATM    2  H           1     -21.143 -13.233  -1.572  0.00  0.00     0.275 HD
HETATM    3  C           1     -21.552 -11.328  -2.340  0.00  0.00     0.274 C 
HETATM    4  C           1     -23.793 -12.054   0.322  0.00  0.00     0.027 C 
HETATM    5  C           1     -23.161 -10.928  -0.486  0.00  0.00     0.004 C 
HETATM    6  C           1     -23.021 -11.361  -1.939  0.00  0.00     0.042 C 
HETATM    7  C           1     -22.908 -13.292   0.245  0.00  0.00     0.229 C 
HETATM    8  H           1     -20.947 -13.825   0.752  0.00  0.00     0.274 HD
HETATM    9  H           1     -21.119 -12.204   0.249  0.00  0.00     0.274 HD
HETATM   10  H           1     -21.649 -12.678   1.801  0.00  0.00     0.274 HD
HETATM   11  N           1     -20.774 -12.262  -1.462  0.00  0.00    -0.067 N 
HETATM   12  N           1     -21.553 -12.976   0.804  0.00  0.00    -0.079 N 
HETATM   13  H           1     -19.766 -12.239  -1.738  0.00  0.00     0.275 HD
ENDROOT
BRANCH   3  14
HETATM   14  C           1     -21.018  -9.926  -2.181  0.00  0.00     0.249 C 
HETATM   15  N           1     -21.592  -8.893  -2.874  0.00  0.00    -0.344 N 
HETATM   16  H           1     -22.374  -9.070  -3.491  0.00  0.00     0.163 HD
HETATM   17  O           1     -20.085  -9.714  -1.445  0.00  0.00    -0.271 OA
BRANCH  15  18
HETATM   18  C           1     -21.079  -7.545  -2.721  0.00  0.00     0.195 C 
BRANCH  18  19
HETATM   19  C           1     -20.978  -6.884  -4.089  0.00  0.00     0.149 C 
BRANCH  19  20
HETATM   20  C           1     -20.525  -7.900  -5.108  0.00  0.00     0.175 C 
HETATM   21  O           1     -21.295  -8.249  -6.030  0.00  0.00    -0.648 OA
HETATM   22  O           1     -19.379  -8.394  -5.032  0.00  0.00    -0.648 OA
ENDBRANCH  19  20
ENDBRANCH  18  19
BRANCH  18  23
HETATM   23  C           1     -22.011  -6.748  -1.844  0.00  0.00     0.197 C 
HETATM   24  O           1     -22.663  -5.796  -2.326  0.00  0.00    -0.646 OA
HETATM   25  O           1     -22.131  -7.038  -0.633  0.00  0.00    -0.646 OA
ENDBRANCH  18  23
ENDBRANCH  15  18
ENDBRANCH   3  14
TORSDOF 5
ENDMDL
