MODEL 1
REMARK VINA RESULT:      -6.7      0.000      0.000
REMARK  11 active torsions:
REMARK  status: ('A' for Active; 'I' for Inactive)
REMARK    1  A    between atoms: N_2  and  C_3 
REMARK    2  A    between atoms: C_3  and  C_5 
REMARK    3  A    between atoms: C_4  and  C_12 
REMARK    4  A    between atoms: C_4  and  C_14 
REMARK    5  A    between atoms: C_4  and  N_8 
REMARK    6  A    between atoms: C_5  and  C_6 
REMARK    7  A    between atoms: C_6  and  C_12 
REMARK       I    between atoms: N_8  and  C_9 
REMARK    8  A    between atoms: C_9  and  C_10 
REMARK    9  A    between atoms: C_10  and  C_11 
REMARK   10  A    between atoms: C_10  and  N_19 
REMARK   11  A    between atoms: C_11  and  C_24 
ROOT
HETATM    1  H           1     -34.743  -0.665 -11.593  0.00  0.00     0.163 HD
HETATM    2  N           1     -34.959  -1.259 -12.382  0.00  0.00    -0.345 N 
HETATM    3  C           1     -34.370  -2.490 -12.494  0.00  0.00     0.249 C 
HETATM    4  O           1     -34.629  -3.199 -13.437  0.00  0.00    -0.271 OA
ENDROOT
BRANCH   2   5
HETATM    5  C           1     -35.892  -0.806 -13.396  0.00  0.00     0.185 C 
BRANCH   5   6
HETATM    6  C           1     -37.051  -0.077 -12.728  0.00  0.00     0.036 C 
BRANCH   6   7
HETATM    7  C           1     -36.766   0.077 -11.240  0.00  0.00     0.004 C 
BRANCH   7   8
HETATM    8  C           1     -38.075   0.024 -10.464  0.00  0.00     0.027 C 
BRANCH   8   9
HETATM    9  C           1     -38.040   1.052  -9.340  0.00  0.00     0.229 C 
BRANCH   9  10
HETATM   10  N           1     -36.615   1.371  -8.996  0.00  0.00    -0.079 N 
HETATM   11  H           1     -36.089   1.603  -9.869  0.00  0.00     0.274 HD
HETATM   12  H           1     -36.589   2.189  -8.347  0.00  0.00     0.274 HD
HETATM   13  H           1     -36.175   0.544  -8.533  0.00  0.00     0.274 HD
ENDBRANCH   9  10
ENDBRANCH   8   9
ENDBRANCH   7   8
ENDBRANCH   6   7
ENDBRANCH   5   6
BRANCH   5  14
HETATM   14  C           1     -35.187   0.132 -14.345  0.00  0.00     0.196 C 
HETATM   15  O           1     -35.070   1.342 -14.054  0.00  0.00    -0.646 OA
HETATM   16  O           1     -34.720  -0.301 -15.420  0.00  0.00    -0.646 OA
ENDBRANCH   5  14
ENDBRANCH   2   5
BRANCH   3  17
HETATM   17  C           1     -33.399  -2.961 -11.440  0.00  0.00     0.278 C 
BRANCH  17  18
HETATM   18  C           1     -34.018  -4.109 -10.655  0.00  0.00     0.021 C 
HETATM   19  C           1     -35.534  -4.055 -10.787  0.00  0.00     0.012 C 
BRANCH  18  20
HETATM   20  C           1     -33.508  -5.433 -11.206  0.00  0.00     0.002 C 
HETATM   21  C           1     -34.304  -6.579 -10.595  0.00  0.00     0.005 C 
ENDBRANCH  18  20
ENDBRANCH  17  18
BRANCH  17  22
HETATM   22  N           1     -33.088  -1.828 -10.507  0.00  0.00    -0.066 N 
HETATM   23  H           1     -32.842  -2.209  -9.565  0.00  0.00     0.275 HD
HETATM   24  H           1     -33.924  -1.207 -10.422  0.00  0.00     0.275 HD
HETATM   25  H           1     -32.281  -1.279 -10.881  0.00  0.00     0.275 HD
ENDBRANCH  17  22
ENDBRANCH   3  17
TORSDOF 11
ENDMDL
MODEL 2
REMARK VINA RESULT:      -6.5     12.024     14.042
REMARK  11 active torsions:
REMARK  status: ('A' for Active; 'I' for Inactive)
REMARK    1  A    between atoms: N_2  and  C_3 
REMARK    2  A    between atoms: C_3  and  C_5 
REMARK    3  A    between atoms: C_4  and  C_12 
REMARK    4  A    between atoms: C_4  and  C_14 
REMARK    5  A    between atoms: C_4  and  N_8 
REMARK    6  A    between atoms: C_5  and  C_6 
REMARK    7  A    between atoms: C_6  and  C_12 
REMARK       I    between atoms: N_8  and  C_9 
REMARK    8  A    between atoms: C_9  and  C_10 
REMARK    9  A    between atoms: C_10  and  C_11 
REMARK   10  A    between atoms: C_10  and  N_19 
REMARK   11  A    between atoms: C_11  and  C_24 
ROOT
HETATM    1  H           1     -22.185  -5.783  -9.524  0.00  0.00     0.163 HD
HETATM    2  N           1     -22.131  -4.831  -9.187  0.00  0.00    -0.345 N 
HETATM    3  C           1     -21.428  -4.548  -8.046  0.00  0.00     0.249 C 
HETATM    4  O           1     -21.363  -3.411  -7.643  0.00  0.00    -0.271 OA
ENDROOT
BRANCH   2   5
HETATM    5  C           1     -22.799  -3.766  -9.910  0.00  0.00     0.185 C 
BRANCH   5   6
HETATM    6  C           1     -22.461  -3.869 -11.391  0.00  0.00     0.036 C 
BRANCH   6   7
HETATM    7  C           1     -22.747  -2.537 -12.072  0.00  0.00     0.004 C 
BRANCH   7   8
HETATM    8  C           1     -23.839  -2.724 -13.117  0.00  0.00     0.027 C 
BRANCH   8   9
HETATM    9  C           1     -23.422  -2.043 -14.414  0.00  0.00     0.229 C 
BRANCH   9  10
HETATM   10  N           1     -24.220  -0.787 -14.600  0.00  0.00    -0.079 N 
HETATM   11  H           1     -25.231  -0.986 -14.421  0.00  0.00     0.274 HD
HETATM   12  H           1     -23.886  -0.060 -13.929  0.00  0.00     0.274 HD
HETATM   13  H           1     -24.101  -0.441 -15.578  0.00  0.00     0.274 HD
ENDBRANCH   9  10
ENDBRANCH   8   9
ENDBRANCH   7   8
ENDBRANCH   6   7
ENDBRANCH   5   6
BRANCH   5  14
HETATM   14  C           1     -24.292  -3.893  -9.724  0.00  0.00     0.196 C 
HETATM   15  O           1     -24.976  -2.882  -9.456  0.00  0.00    -0.646 OA
HETATM   16  O           1     -24.844  -5.008  -9.840  0.00  0.00    -0.646 OA
ENDBRANCH   5  14
ENDBRANCH   2   5
BRANCH   3  17
HETATM   17  C           1     -20.733  -5.656  -7.294  0.00  0.00     0.278 C 
BRANCH  17  18
HETATM   18  C           1     -21.519  -5.985  -6.032  0.00  0.00     0.021 C 
HETATM   19  C           1     -21.580  -7.495  -5.851  0.00  0.00     0.012 C 
BRANCH  18  20
HETATM   20  C           1     -20.831  -5.357  -4.828  0.00  0.00     0.002 C 
HETATM   21  C           1     -21.272  -6.074  -3.559  0.00  0.00     0.005 C 
ENDBRANCH  18  20
ENDBRANCH  17  18
BRANCH  17  22
HETATM   22  N           1     -19.349  -5.213  -6.919  0.00  0.00    -0.066 N 
HETATM   23  H           1     -18.714  -6.042  -6.888  0.00  0.00     0.275 HD
HETATM   24  H           1     -19.372  -4.758  -5.978  0.00  0.00     0.275 HD
HETATM   25  H           1     -18.997  -4.531  -7.628  0.00  0.00     0.275 HD
ENDBRANCH  17  22
ENDBRANCH   3  17
TORSDOF 11
ENDMDL
MODEL 3
REMARK VINA RESULT:      -6.3     13.954     16.077
REMARK  11 active torsions:
REMARK  status: ('A' for Active; 'I' for Inactive)
REMARK    1  A    between atoms: N_2  and  C_3 
REMARK    2  A    between atoms: C_3  and  C_5 
REMARK    3  A    between atoms: C_4  and  C_12 
REMARK    4  A    between atoms: C_4  and  C_14 
REMARK    5  A    between atoms: C_4  and  N_8 
REMARK    6  A    between atoms: C_5  and  C_6 
REMARK    7  A    between atoms: C_6  and  C_12 
REMARK       I    between atoms: N_8  and  C_9 
REMARK    8  A    between atoms: C_9  and  C_10 
REMARK    9  A    between atoms: C_10  and  C_11 
REMARK   10  A    between atoms: C_10  and  N_19 
REMARK   11  A    between atoms: C_11  and  C_24 
ROOT
HETATM    1  H           1     -20.614  -4.747  -4.636  0.00  0.00     0.163 HD
HETATM    2  N           1     -21.124  -5.519  -5.045  0.00  0.00    -0.345 N 
HETATM    3  C           1     -21.566  -6.544  -4.252  0.00  0.00     0.249 C 
HETATM    4  O           1     -22.175  -7.467  -4.740  0.00  0.00    -0.271 OA
ENDROOT
BRANCH   2   5
HETATM    5  C           1     -21.385  -5.542  -6.471  0.00  0.00     0.185 C 
BRANCH   5   6
HETATM    6  C           1     -21.900  -4.179  -6.914  0.00  0.00     0.036 C 
BRANCH   6   7
HETATM    7  C           1     -23.196  -4.353  -7.696  0.00  0.00     0.004 C 
BRANCH   7   8
HETATM    8  C           1     -22.971  -3.954  -9.147  0.00  0.00     0.027 C 
BRANCH   8   9
HETATM    9  C           1     -24.152  -4.420  -9.990  0.00  0.00     0.229 C 
BRANCH   9  10
HETATM   10  N           1     -25.362  -3.600  -9.654  0.00  0.00    -0.079 N 
HETATM   11  H           1     -25.427  -3.482  -8.618  0.00  0.00     0.274 HD
HETATM   12  H           1     -25.283  -2.660 -10.106  0.00  0.00     0.274 HD
HETATM   13  H           1     -26.219  -4.084 -10.004  0.00  0.00     0.274 HD
ENDBRANCH   9  10
ENDBRANCH   8   9
ENDBRANCH   7   8
ENDBRANCH   6   7
ENDBRANCH   5   6
BRANCH   5  14
HETATM   14  C           1     -20.108  -5.861  -7.210  0.00  0.00     0.196 C 
HETATM   15  O           1     -19.481  -6.910  -6.948  0.00  0.00    -0.646 OA
HETATM   16  O           1     -19.680  -5.079  -8.085  0.00  0.00    -0.646 OA
ENDBRANCH   5  14
ENDBRANCH   2   5
BRANCH   3  17
HETATM   17  C           1     -21.295  -6.521  -2.768  0.00  0.00     0.278 C 
BRANCH  17  18
HETATM   18  C           1     -21.336  -7.942  -2.222  0.00  0.00     0.021 C 
HETATM   19  C           1     -19.935  -8.537  -2.248  0.00  0.00     0.012 C 
BRANCH  18  20
HETATM   20  C           1     -21.850  -7.920  -0.788  0.00  0.00     0.002 C 
HETATM   21  C           1     -22.606  -9.209  -0.499  0.00  0.00     0.005 C 
ENDBRANCH  18  20
ENDBRANCH  17  18
BRANCH  17  22
HETATM   22  N           1     -22.341  -5.692  -2.082  0.00  0.00    -0.066 N 
HETATM   23  H           1     -23.230  -6.237  -2.016  0.00  0.00     0.275 HD
HETATM   24  H           1     -22.508  -4.819  -2.632  0.00  0.00     0.275 HD
HETATM   25  H           1     -22.013  -5.443  -1.122  0.00  0.00     0.275 HD
ENDBRANCH  17  22
ENDBRANCH   3  17
TORSDOF 11
ENDMDL
MODEL 4
REMARK VINA RESULT:      -6.2     13.118     15.573
REMARK  11 active torsions:
REMARK  status: ('A' for Active; 'I' for Inactive)
REMARK    1  A    between atoms: N_2  and  C_3 
REMARK    2  A    between atoms: C_3  and  C_5 
REMARK    3  A    between atoms: C_4  and  C_12 
REMARK    4  A    between atoms: C_4  and  C_14 
REMARK    5  A    between atoms: C_4  and  N_8 
REMARK    6  A    between atoms: C_5  and  C_6 
REMARK    7  A    between atoms: C_6  and  C_12 
REMARK       I    between atoms: N_8  and  C_9 
REMARK    8  A    between atoms: C_9  and  C_10 
REMARK    9  A    between atoms: C_10  and  C_11 
REMARK   10  A    between atoms: C_10  and  N_19 
REMARK   11  A    between atoms: C_11  and  C_24 
ROOT
HETATM    1  H           1     -22.662  -6.070  -7.819  0.00  0.00     0.163 HD
HETATM    2  N           1     -22.190  -5.223  -7.530  0.00  0.00    -0.345 N 
HETATM    3  C           1     -22.357  -4.068  -8.247  0.00  0.00     0.249 C 
HETATM    4  O           1     -21.794  -3.057  -7.903  0.00  0.00    -0.271 OA
ENDROOT
BRANCH   2   5
HETATM    5  C           1     -21.337  -5.232  -6.358  0.00  0.00     0.185 C 
BRANCH   5   6
HETATM    6  C           1     -21.873  -6.238  -5.348  0.00  0.00     0.036 C 
BRANCH   6   7
HETATM    7  C           1     -21.194  -6.019  -4.003  0.00  0.00     0.004 C 
BRANCH   7   8
HETATM    8  C           1     -21.121  -7.340  -3.249  0.00  0.00     0.027 C 
BRANCH   8   9
HETATM    9  C           1     -21.758  -7.176  -1.875  0.00  0.00     0.229 C 
BRANCH   9  10
HETATM   10  N           1     -22.294  -5.782  -1.734  0.00  0.00    -0.079 N 
HETATM   11  H           1     -22.667  -5.648  -0.767  0.00  0.00     0.274 HD
HETATM   12  H           1     -21.527  -5.095  -1.909  0.00  0.00     0.274 HD
HETATM   13  H           1     -23.062  -5.633  -2.426  0.00  0.00     0.274 HD
ENDBRANCH   9  10
ENDBRANCH   8   9
ENDBRANCH   7   8
ENDBRANCH   6   7
ENDBRANCH   5   6
BRANCH   5  14
HETATM   14  C           1     -19.935  -5.622  -6.761  0.00  0.00     0.196 C 
HETATM   15  O           1     -19.047  -4.747  -6.856  0.00  0.00    -0.646 OA
HETATM   16  O           1     -19.662  -6.818  -6.998  0.00  0.00    -0.646 OA
ENDBRANCH   5  14
ENDBRANCH   2   5
BRANCH   3  17
HETATM   17  C           1     -23.245  -4.059  -9.467  0.00  0.00     0.278 C 
BRANCH  17  18
HETATM   18  C           1     -22.537  -3.340 -10.606  0.00  0.00     0.021 C 
HETATM   19  C           1     -21.535  -4.283 -11.259  0.00  0.00     0.012 C 
BRANCH  18  20
HETATM   20  C           1     -23.561  -2.895 -11.641  0.00  0.00     0.002 C 
HETATM   21  C           1     -22.971  -3.039 -13.037  0.00  0.00     0.005 C 
ENDBRANCH  18  20
ENDBRANCH  17  18
BRANCH  17  22
HETATM   22  N           1     -24.526  -3.346  -9.146  0.00  0.00    -0.066 N 
HETATM   23  H           1     -24.583  -2.464  -9.703  0.00  0.00     0.275 HD
HETATM   24  H           1     -24.551  -3.116  -8.127  0.00  0.00     0.275 HD
HETATM   25  H           1     -25.337  -3.961  -9.385  0.00  0.00     0.275 HD
ENDBRANCH  17  22
ENDBRANCH   3  17
TORSDOF 11
ENDMDL
MODEL 5
REMARK VINA RESULT:      -5.9     14.435     16.930
REMARK  11 active torsions:
REMARK  status: ('A' for Active; 'I' for Inactive)
REMARK    1  A    between atoms: N_2  and  C_3 
REMARK    2  A    between atoms: C_3  and  C_5 
REMARK    3  A    between atoms: C_4  and  C_12 
REMARK    4  A    between atoms: C_4  and  C_14 
REMARK    5  A    between atoms: C_4  and  N_8 
REMARK    6  A    between atoms: C_5  and  C_6 
REMARK    7  A    between atoms: C_6  and  C_12 
REMARK       I    between atoms: N_8  and  C_9 
REMARK    8  A    between atoms: C_9  and  C_10 
REMARK    9  A    between atoms: C_10  and  C_11 
REMARK   10  A    between atoms: C_10  and  N_19 
REMARK   11  A    between atoms: C_11  and  C_24 
ROOT
HETATM    1  H           1     -22.377  -6.816  -6.179  0.00  0.00     0.163 HD
HETATM    2  N           1     -21.539  -6.401  -5.794  0.00  0.00    -0.345 N 
HETATM    3  C           1     -21.139  -5.158  -6.207  0.00  0.00     0.249 C 
HETATM    4  O           1     -20.139  -4.662  -5.747  0.00  0.00    -0.271 OA
ENDROOT
BRANCH   2   5
HETATM    5  C           1     -20.761  -7.122  -4.805  0.00  0.00     0.185 C 
BRANCH   5   6
HETATM    6  C           1     -21.635  -7.426  -3.595  0.00  0.00     0.036 C 
BRANCH   6   7
HETATM    7  C           1     -21.713  -6.195  -2.702  0.00  0.00     0.004 C 
BRANCH   7   8
HETATM    8  C           1     -22.211  -6.599  -1.321  0.00  0.00     0.027 C 
BRANCH   8   9
HETATM    9  C           1     -21.971  -8.089  -1.111  0.00  0.00     0.229 C 
BRANCH   9  10
HETATM   10  N           1     -21.237  -8.300   0.181  0.00  0.00    -0.079 N 
HETATM   11  H           1     -20.384  -8.877   0.007  0.00  0.00     0.274 HD
HETATM   12  H           1     -20.956  -7.374   0.576  0.00  0.00     0.274 HD
HETATM   13  H           1     -21.860  -8.794   0.858  0.00  0.00     0.274 HD
ENDBRANCH   9  10
ENDBRANCH   8   9
ENDBRANCH   7   8
ENDBRANCH   6   7
ENDBRANCH   5   6
BRANCH   5  14
HETATM   14  C           1     -20.263  -8.415  -5.404  0.00  0.00     0.196 C 
HETATM   15  O           1     -21.054  -9.366  -5.581  0.00  0.00    -0.646 OA
HETATM   16  O           1     -19.061  -8.534  -5.722  0.00  0.00    -0.646 OA
ENDBRANCH   5  14
ENDBRANCH   2   5
BRANCH   3  17
HETATM   17  C           1     -21.949  -4.408  -7.236  0.00  0.00     0.278 C 
BRANCH  17  18
HETATM   18  C           1     -21.663  -4.975  -8.619  0.00  0.00     0.021 C 
HETATM   19  C           1     -22.808  -4.624  -9.560  0.00  0.00     0.012 C 
BRANCH  18  20
HETATM   20  C           1     -20.368  -4.378  -9.154  0.00  0.00     0.002 C 
HETATM   21  C           1     -20.500  -4.133 -10.651  0.00  0.00     0.005 C 
ENDBRANCH  18  20
ENDBRANCH  17  18
BRANCH  17  22
HETATM   22  N           1     -21.574  -2.955  -7.203  0.00  0.00    -0.066 N 
HETATM   23  H           1     -22.372  -2.382  -7.560  0.00  0.00     0.275 HD
HETATM   24  H           1     -20.736  -2.798  -7.808  0.00  0.00     0.275 HD
HETATM   25  H           1     -21.355  -2.674  -6.221  0.00  0.00     0.275 HD
ENDBRANCH  17  22
ENDBRANCH   3  17
TORSDOF 11
ENDMDL
MODEL 6
REMARK VINA RESULT:      -5.8      2.141      3.551
REMARK  11 active torsions:
REMARK  status: ('A' for Active; 'I' for Inactive)
REMARK    1  A    between atoms: N_2  and  C_3 
REMARK    2  A    between atoms: C_3  and  C_5 
REMARK    3  A    between atoms: C_4  and  C_12 
REMARK    4  A    between atoms: C_4  and  C_14 
REMARK    5  A    between atoms: C_4  and  N_8 
REMARK    6  A    between atoms: C_5  and  C_6 
REMARK    7  A    between atoms: C_6  and  C_12 
REMARK       I    between atoms: N_8  and  C_9 
REMARK    8  A    between atoms: C_9  and  C_10 
REMARK    9  A    between atoms: C_10  and  C_11 
REMARK   10  A    between atoms: C_10  and  N_19 
REMARK   11  A    between atoms: C_11  and  C_24 
ROOT
HETATM    1  H           1     -33.808  -2.037 -10.827  0.00  0.00     0.163 HD
HETATM    2  N           1     -34.277  -1.951 -11.719  0.00  0.00    -0.345 N 
HETATM    3  C           1     -34.314  -3.018 -12.578  0.00  0.00     0.249 C 
HETATM    4  O           1     -34.874  -2.916 -13.643  0.00  0.00    -0.271 OA
ENDROOT
BRANCH   2   5
HETATM    5  C           1     -34.908  -0.699 -12.090  0.00  0.00     0.185 C 
BRANCH   5   6
HETATM    6  C           1     -35.116  -0.664 -13.598  0.00  0.00     0.036 C 
BRANCH   6   7
HETATM    7  C           1     -34.845   0.742 -14.117  0.00  0.00     0.004 C 
BRANCH   7   8
HETATM    8  C           1     -35.741   1.025 -15.314  0.00  0.00     0.027 C 
BRANCH   8   9
HETATM    9  C           1     -36.545  -0.224 -15.652  0.00  0.00     0.229 C 
BRANCH   9  10
HETATM   10  N           1     -36.325  -0.588 -17.091  0.00  0.00    -0.079 N 
HETATM   11  H           1     -37.244  -0.797 -17.542  0.00  0.00     0.274 HD
HETATM   12  H           1     -35.868   0.210 -17.586  0.00  0.00     0.274 HD
HETATM   13  H           1     -35.710  -1.431 -17.146  0.00  0.00     0.274 HD
ENDBRANCH   9  10
ENDBRANCH   8   9
ENDBRANCH   7   8
ENDBRANCH   6   7
ENDBRANCH   5   6
BRANCH   5  14
HETATM   14  C           1     -36.242  -0.585 -11.395  0.00  0.00     0.196 C 
HETATM   15  O           1     -36.292  -0.248 -10.192  0.00  0.00    -0.646 OA
HETATM   16  O           1     -37.296  -0.825 -12.021  0.00  0.00    -0.646 OA
ENDBRANCH   5  14
ENDBRANCH   2   5
BRANCH   3  17
HETATM   17  C           1     -33.658  -4.321 -12.192  0.00  0.00     0.278 C 
BRANCH  17  18
HETATM   18  C           1     -34.212  -4.792 -10.855  0.00  0.00     0.021 C 
HETATM   19  C           1     -35.717  -4.562 -10.818  0.00  0.00     0.012 C 
BRANCH  18  20
HETATM   20  C           1     -33.923  -6.277 -10.681  0.00  0.00     0.002 C 
HETATM   21  C           1     -34.969  -6.896  -9.764  0.00  0.00     0.005 C 
ENDBRANCH  18  20
ENDBRANCH  17  18
BRANCH  17  22
HETATM   22  N           1     -32.176  -4.117 -12.075  0.00  0.00    -0.066 N 
HETATM   23  H           1     -31.871  -3.379 -12.749  0.00  0.00     0.275 HD
HETATM   24  H           1     -31.683  -5.012 -12.295  0.00  0.00     0.275 HD
HETATM   25  H           1     -31.941  -3.818 -11.102  0.00  0.00     0.275 HD
ENDBRANCH  17  22
ENDBRANCH   3  17
TORSDOF 11
ENDMDL
MODEL 7
REMARK VINA RESULT:      -5.7     17.039     18.312
REMARK  11 active torsions:
REMARK  status: ('A' for Active; 'I' for Inactive)
REMARK    1  A    between atoms: N_2  and  C_3 
REMARK    2  A    between atoms: C_3  and  C_5 
REMARK    3  A    between atoms: C_4  and  C_12 
REMARK    4  A    between atoms: C_4  and  C_14 
REMARK    5  A    between atoms: C_4  and  N_8 
REMARK    6  A    between atoms: C_5  and  C_6 
REMARK    7  A    between atoms: C_6  and  C_12 
REMARK       I    between atoms: N_8  and  C_9 
REMARK    8  A    between atoms: C_9  and  C_10 
REMARK    9  A    between atoms: C_10  and  C_11 
REMARK   10  A    between atoms: C_10  and  N_19 
REMARK   11  A    between atoms: C_11  and  C_24 
ROOT
HETATM    1  H           1     -20.476  -6.758  -3.196  0.00  0.00     0.163 HD
HETATM    2  N           1     -20.798  -7.701  -3.371  0.00  0.00    -0.345 N 
HETATM    3  C           1     -21.324  -8.446  -2.349  0.00  0.00     0.249 C 
HETATM    4  O           1     -21.707  -9.572  -2.559  0.00  0.00    -0.271 OA
ENDROOT
BRANCH   2   5
HETATM    5  C           1     -20.700  -8.264  -4.704  0.00  0.00     0.185 C 
BRANCH   5   6
HETATM    6  C           1     -21.061  -7.200  -5.732  0.00  0.00     0.036 C 
BRANCH   6   7
HETATM    7  C           1     -20.936  -5.820  -5.100  0.00  0.00     0.004 C 
BRANCH   7   8
HETATM    8  C           1     -20.049  -4.940  -5.970  0.00  0.00     0.027 C 
BRANCH   8   9
HETATM    9  C           1     -19.751  -5.659  -7.280  0.00  0.00     0.229 C 
BRANCH   9  10
HETATM   10  N           1     -19.999  -4.728  -8.430  0.00  0.00    -0.079 N 
HETATM   11  H           1     -19.652  -5.165  -9.314  0.00  0.00     0.274 HD
HETATM   12  H           1     -21.024  -4.543  -8.513  0.00  0.00     0.274 HD
HETATM   13  H           1     -19.495  -3.828  -8.265  0.00  0.00     0.274 HD
ENDBRANCH   9  10
ENDBRANCH   8   9
ENDBRANCH   7   8
ENDBRANCH   6   7
ENDBRANCH   5   6
BRANCH   5  14
HETATM   14  C           1     -19.289  -8.740  -4.946  0.00  0.00     0.196 C 
HETATM   15  O           1     -18.863  -8.863  -6.115  0.00  0.00    -0.646 OA
HETATM   16  O           1     -18.545  -9.010  -3.978  0.00  0.00    -0.646 OA
ENDBRANCH   5  14
ENDBRANCH   2   5
BRANCH   3  17
HETATM   17  C           1     -21.425  -7.860  -0.963  0.00  0.00     0.278 C 
BRANCH  17  18
HETATM   18  C           1     -21.804  -8.954   0.025  0.00  0.00     0.021 C 
HETATM   19  C           1     -21.089  -8.715   1.348  0.00  0.00     0.012 C 
BRANCH  18  20
HETATM   20  C           1     -23.310  -8.933   0.252  0.00  0.00     0.002 C 
HETATM   21  C           1     -23.883 -10.321  -0.004  0.00  0.00     0.005 C 
ENDBRANCH  18  20
ENDBRANCH  17  18
BRANCH  17  22
HETATM   22  N           1     -22.475  -6.788  -0.949  0.00  0.00    -0.066 N 
HETATM   23  H           1     -22.347  -6.186  -0.105  0.00  0.00     0.275 HD
HETATM   24  H           1     -23.423  -7.229  -0.921  0.00  0.00     0.275 HD
HETATM   25  H           1     -22.388  -6.204  -1.811  0.00  0.00     0.275 HD
ENDBRANCH  17  22
ENDBRANCH   3  17
TORSDOF 11
ENDMDL
MODEL 8
REMARK VINA RESULT:      -5.6     16.267     18.480
REMARK  11 active torsions:
REMARK  status: ('A' for Active; 'I' for Inactive)
REMARK    1  A    between atoms: N_2  and  C_3 
REMARK    2  A    between atoms: C_3  and  C_5 
REMARK    3  A    between atoms: C_4  and  C_12 
REMARK    4  A    between atoms: C_4  and  C_14 
REMARK    5  A    between atoms: C_4  and  N_8 
REMARK    6  A    between atoms: C_5  and  C_6 
REMARK    7  A    between atoms: C_6  and  C_12 
REMARK       I    between atoms: N_8  and  C_9 
REMARK    8  A    between atoms: C_9  and  C_10 
REMARK    9  A    between atoms: C_10  and  C_11 
REMARK   10  A    between atoms: C_10  and  N_19 
REMARK   11  A    between atoms: C_11  and  C_24 
ROOT
HETATM    1  H           1     -19.339  -7.406  -4.369  0.00  0.00     0.163 HD
HETATM    2  N           1     -20.169  -7.918  -4.637  0.00  0.00    -0.345 N 
HETATM    3  C           1     -20.078  -9.243  -4.973  0.00  0.00     0.249 C 
HETATM    4  O           1     -21.069  -9.854  -5.294  0.00  0.00    -0.271 OA
ENDROOT
BRANCH   2   5
HETATM    5  C           1     -21.456  -7.250  -4.667  0.00  0.00     0.185 C 
BRANCH   5   6
HETATM    6  C           1     -21.602  -6.376  -3.428  0.00  0.00     0.036 C 
BRANCH   6   7
HETATM    7  C           1     -21.328  -7.209  -2.183  0.00  0.00     0.004 C 
BRANCH   7   8
HETATM    8  C           1     -22.278  -6.788  -1.070  0.00  0.00     0.027 C 
BRANCH   8   9
HETATM    9  C           1     -22.192  -7.788   0.076  0.00  0.00     0.229 C 
BRANCH   9  10
HETATM   10  N           1     -23.568  -8.058   0.610  0.00  0.00    -0.079 N 
HETATM   11  H           1     -23.649  -7.673   1.578  0.00  0.00     0.274 HD
HETATM   12  H           1     -24.277  -7.599  -0.006  0.00  0.00     0.274 HD
HETATM   13  H           1     -23.738  -9.089   0.630  0.00  0.00     0.274 HD
ENDBRANCH   9  10
ENDBRANCH   8   9
ENDBRANCH   7   8
ENDBRANCH   6   7
ENDBRANCH   5   6
BRANCH   5  14
HETATM   14  C           1     -21.546  -6.389  -5.903  0.00  0.00     0.196 C 
HETATM   15  O           1     -22.334  -5.419  -5.932  0.00  0.00    -0.646 OA
HETATM   16  O           1     -20.832  -6.644  -6.896  0.00  0.00    -0.646 OA
ENDBRANCH   5  14
ENDBRANCH   2   5
BRANCH   3  17
HETATM   17  C           1     -18.739  -9.938  -4.943  0.00  0.00     0.278 C 
BRANCH  17  18
HETATM   18  C           1     -17.945  -9.459  -3.735  0.00  0.00     0.021 C 
HETATM   19  C           1     -18.442 -10.172  -2.485  0.00  0.00     0.012 C 
BRANCH  18  20
HETATM   20  C           1     -16.469  -9.771  -3.943  0.00  0.00     0.002 C 
HETATM   21  C           1     -15.863 -10.258  -2.634  0.00  0.00     0.005 C 
ENDBRANCH  18  20
ENDBRANCH  17  18
BRANCH  17  22
HETATM   22  N           1     -17.982  -9.618  -6.198  0.00  0.00    -0.066 N 
HETATM   23  H           1     -17.010  -9.323  -5.953  0.00  0.00     0.275 HD
HETATM   24  H           1     -18.462  -8.842  -6.707  0.00  0.00     0.275 HD
HETATM   25  H           1     -17.944 -10.466  -6.808  0.00  0.00     0.275 HD
ENDBRANCH  17  22
ENDBRANCH   3  17
TORSDOF 11
ENDMDL
MODEL 9
REMARK VINA RESULT:      -5.6     15.217     17.516
REMARK  11 active torsions:
REMARK  status: ('A' for Active; 'I' for Inactive)
REMARK    1  A    between atoms: N_2  and  C_3 
REMARK    2  A    between atoms: C_3  and  C_5 
REMARK    3  A    between atoms: C_4  and  C_12 
REMARK    4  A    between atoms: C_4  and  C_14 
REMARK    5  A    between atoms: C_4  and  N_8 
REMARK    6  A    between atoms: C_5  and  C_6 
REMARK    7  A    between atoms: C_6  and  C_12 
REMARK       I    between atoms: N_8  and  C_9 
REMARK    8  A    between atoms: C_9  and  C_10 
REMARK    9  A    between atoms: C_10  and  C_11 
REMARK   10  A    between atoms: C_10  and  N_19 
REMARK   11  A    between atoms: C_11  and  C_24 
ROOT
HETATM    1  H           1     -21.360  -8.541  -6.342  0.00  0.00     0.163 HD
HETATM    2  N           1     -20.790  -8.170  -5.593  0.00  0.00    -0.345 N 
HETATM    3  C           1     -20.083  -9.021  -4.785  0.00  0.00     0.249 C 
HETATM    4  O           1     -19.403  -8.579  -3.891  0.00  0.00    -0.271 OA
ENDROOT
BRANCH   2   5
HETATM    5  C           1     -20.722  -6.738  -5.374  0.00  0.00     0.185 C 
BRANCH   5   6
HETATM    6  C           1     -20.694  -6.021  -6.716  0.00  0.00     0.036 C 
BRANCH   6   7
HETATM    7  C           1     -20.245  -4.579  -6.514  0.00  0.00     0.004 C 
BRANCH   7   8
HETATM    8  C           1     -21.244  -3.638  -7.172  0.00  0.00     0.027 C 
BRANCH   8   9
HETATM    9  C           1     -22.217  -4.444  -8.023  0.00  0.00     0.229 C 
BRANCH   9  10
HETATM   10  N           1     -23.617  -4.220  -7.533  0.00  0.00    -0.079 N 
HETATM   11  H           1     -23.778  -4.786  -6.669  0.00  0.00     0.274 HD
HETATM   12  H           1     -23.751  -3.207  -7.315  0.00  0.00     0.274 HD
HETATM   13  H           1     -24.295  -4.512  -8.272  0.00  0.00     0.274 HD
ENDBRANCH   9  10
ENDBRANCH   8   9
ENDBRANCH   7   8
ENDBRANCH   6   7
ENDBRANCH   5   6
BRANCH   5  14
HETATM   14  C           1     -21.932  -6.293  -4.590  0.00  0.00     0.196 C 
HETATM   15  O           1     -21.820  -6.000  -3.380  0.00  0.00    -0.646 OA
HETATM   16  O           1     -23.047  -6.215  -5.150  0.00  0.00    -0.646 OA
ENDBRANCH   5  14
ENDBRANCH   2   5
BRANCH   3  17
HETATM   17  C           1     -20.154 -10.511  -5.013  0.00  0.00     0.278 C 
BRANCH  17  18
HETATM   18  C           1     -18.749 -11.096  -4.990  0.00  0.00     0.021 C 
HETATM   19  C           1     -18.831 -12.615  -4.927  0.00  0.00     0.012 C 
BRANCH  18  20
HETATM   20  C           1     -18.006 -10.680  -6.253  0.00  0.00     0.002 C 
HETATM   21  C           1     -16.697 -10.001  -5.873  0.00  0.00     0.005 C 
ENDBRANCH  18  20
ENDBRANCH  17  18
BRANCH  17  22
HETATM   22  N           1     -20.786 -10.782  -6.347  0.00  0.00    -0.066 N 
HETATM   23  H           1     -20.380 -10.138  -7.062  0.00  0.00     0.275 HD
HETATM   24  H           1     -21.818 -10.624  -6.282  0.00  0.00     0.275 HD
HETATM   25  H           1     -20.601 -11.772  -6.625  0.00  0.00     0.275 HD
ENDBRANCH  17  22
ENDBRANCH   3  17
TORSDOF 11
ENDMDL
