MODEL 1
REMARK VINA RESULT:      -7.9      0.000      0.000
REMARK  8 active torsions:
REMARK  status: ('A' for Active; 'I' for Inactive)
REMARK    1  A    between atoms: C_1  and  C_20 
REMARK    2  A    between atoms: C_5  and  C_6 
REMARK    3  A    between atoms: C_5  and  C_16 
REMARK    4  A    between atoms: C_6  and  C_7 
REMARK    5  A    between atoms: C_6  and  N_13 
REMARK       I    between atoms: C_7  and  N_8 
REMARK    6  A    between atoms: N_8  and  C_20 
REMARK    7  A    between atoms: C_20  and  C_21 
REMARK    8  A    between atoms: C_21  and  C_22 
ROOT
HETATM    1  H           1     -34.227  -1.446 -14.051  0.00  0.00     0.163 HD
HETATM    2  C           1     -35.217   0.370 -13.944  0.00  0.00     0.249 C 
HETATM    3  N           1     -34.882  -0.888 -13.518  0.00  0.00    -0.344 N 
HETATM    4  O           1     -34.572   1.323 -13.576  0.00  0.00    -0.271 OA
ENDROOT
BRANCH   3   5
HETATM    5  C           1     -35.468  -1.421 -12.303  0.00  0.00     0.189 C 
BRANCH   5   6
HETATM    6  C           1     -36.453  -0.424 -11.743  0.00  0.00     0.197 C 
HETATM    7  O           1     -36.068   0.447 -10.932  0.00  0.00    -0.646 OA
HETATM    8  O           1     -37.653  -0.469 -12.090  0.00  0.00    -0.646 OA
ENDBRANCH   5   6
BRANCH   5   9
HETATM    9  C           1     -34.369  -1.676 -11.281  0.00  0.00     0.074 C 
BRANCH   9  10
HETATM   10  C           1     -34.070  -3.143 -11.225  0.00  0.00    -0.056 A 
HETATM   11  C           1     -32.852  -3.625 -11.705  0.00  0.00     0.007 A 
HETATM   12  C           1     -32.574  -4.991 -11.653  0.00  0.00     0.001 A 
HETATM   13  C           1     -33.513  -5.875 -11.123  0.00  0.00     0.000 A 
HETATM   14  C           1     -34.731  -5.393 -10.644  0.00  0.00     0.001 A 
HETATM   15  C           1     -35.010  -4.027 -10.695  0.00  0.00     0.007 A 
ENDBRANCH   9  10
ENDBRANCH   5   9
ENDBRANCH   3   5
BRANCH   2  16
HETATM   16  C           1     -36.390   0.565 -14.873  0.00  0.00     0.278 C 
BRANCH  16  17
HETATM   17  C           1     -36.649  -0.723 -15.643  0.00  0.00     0.021 C 
HETATM   18  C           1     -38.075  -0.717 -16.179  0.00  0.00     0.012 C 
BRANCH  17  19
HETATM   19  C           1     -35.671  -0.824 -16.806  0.00  0.00     0.002 C 
HETATM   20  C           1     -34.977  -2.180 -16.769  0.00  0.00     0.005 C 
ENDBRANCH  17  19
ENDBRANCH  16  17
BRANCH  16  21
HETATM   21  N           1     -36.084   1.671 -15.839  0.00  0.00    -0.066 N 
HETATM   22  H           1     -36.938   2.256 -15.982  0.00  0.00     0.275 HD
HETATM   23  H           1     -35.316   2.267 -15.454  0.00  0.00     0.275 HD
HETATM   24  H           1     -35.783   1.262 -16.753  0.00  0.00     0.275 HD
ENDBRANCH  16  21
ENDBRANCH   2  16
TORSDOF 8
ENDMDL
MODEL 2
REMARK VINA RESULT:      -7.2     17.589     19.642
REMARK  8 active torsions:
REMARK  status: ('A' for Active; 'I' for Inactive)
REMARK    1  A    between atoms: C_1  and  C_20 
REMARK    2  A    between atoms: C_5  and  C_6 
REMARK    3  A    between atoms: C_5  and  C_16 
REMARK    4  A    between atoms: C_6  and  C_7 
REMARK    5  A    between atoms: C_6  and  N_13 
REMARK       I    between atoms: C_7  and  N_8 
REMARK    6  A    between atoms: N_8  and  C_20 
REMARK    7  A    between atoms: C_20  and  C_21 
REMARK    8  A    between atoms: C_21  and  C_22 
ROOT
HETATM    1  H           1     -19.331  -7.187  -3.335  0.00  0.00     0.163 HD
HETATM    2  C           1     -19.761  -8.423  -4.939  0.00  0.00     0.249 C 
HETATM    3  N           1     -20.042  -7.757  -3.775  0.00  0.00    -0.344 N 
HETATM    4  O           1     -19.960  -7.888  -6.004  0.00  0.00    -0.271 OA
ENDROOT
BRANCH   3   5
HETATM    5  C           1     -21.357  -7.870  -3.175  0.00  0.00     0.189 C 
BRANCH   5   6
HETATM    6  C           1     -22.053  -6.533  -3.238  0.00  0.00     0.197 C 
HETATM    7  O           1     -22.303  -6.009  -4.346  0.00  0.00    -0.646 OA
HETATM    8  O           1     -22.380  -5.948  -2.183  0.00  0.00    -0.646 OA
ENDBRANCH   5   6
BRANCH   5   9
HETATM    9  C           1     -21.216  -8.302  -1.722  0.00  0.00     0.074 C 
BRANCH   9  10
HETATM   10  C           1     -22.164  -9.427  -1.441  0.00  0.00    -0.056 A 
HETATM   11  C           1     -22.915  -9.429  -0.266  0.00  0.00     0.007 A 
HETATM   12  C           1     -23.798 -10.477  -0.005  0.00  0.00     0.001 A 
HETATM   13  C           1     -23.930 -11.522  -0.917  0.00  0.00     0.000 A 
HETATM   14  C           1     -23.178 -11.521  -2.093  0.00  0.00     0.001 A 
HETATM   15  C           1     -22.295 -10.473  -2.355  0.00  0.00     0.007 A 
ENDBRANCH   9  10
ENDBRANCH   5   9
ENDBRANCH   3   5
BRANCH   2  16
HETATM   16  C           1     -19.203  -9.824  -4.892  0.00  0.00     0.278 C 
BRANCH  16  17
HETATM   17  C           1     -18.326  -9.980  -3.656  0.00  0.00     0.021 C 
HETATM   18  C           1     -18.551 -11.358  -3.045  0.00  0.00     0.012 C 
BRANCH  17  19
HETATM   19  C           1     -16.863  -9.833  -4.052  0.00  0.00     0.002 C 
HETATM   20  C           1     -16.022  -9.591  -2.805  0.00  0.00     0.005 C 
ENDBRANCH  17  19
ENDBRANCH  16  17
BRANCH  16  21
HETATM   21  N           1     -18.383 -10.077  -6.121  0.00  0.00    -0.066 N 
HETATM   22  H           1     -17.379  -9.867  -5.921  0.00  0.00     0.275 HD
HETATM   23  H           1     -18.479 -11.080  -6.403  0.00  0.00     0.275 HD
HETATM   24  H           1     -18.721  -9.464  -6.898  0.00  0.00     0.275 HD
ENDBRANCH  16  21
ENDBRANCH   2  16
TORSDOF 8
ENDMDL
MODEL 3
REMARK VINA RESULT:      -7.2     17.682     19.781
REMARK  8 active torsions:
REMARK  status: ('A' for Active; 'I' for Inactive)
REMARK    1  A    between atoms: C_1  and  C_20 
REMARK    2  A    between atoms: C_5  and  C_6 
REMARK    3  A    between atoms: C_5  and  C_16 
REMARK    4  A    between atoms: C_6  and  C_7 
REMARK    5  A    between atoms: C_6  and  N_13 
REMARK       I    between atoms: C_7  and  N_8 
REMARK    6  A    between atoms: N_8  and  C_20 
REMARK    7  A    between atoms: C_20  and  C_21 
REMARK    8  A    between atoms: C_21  and  C_22 
ROOT
HETATM    1  H           1     -22.521  -8.219  -3.989  0.00  0.00     0.163 HD
HETATM    2  C           1     -21.866  -7.136  -2.351  0.00  0.00     0.249 C 
HETATM    3  N           1     -21.734  -7.737  -3.575  0.00  0.00    -0.344 N 
HETATM    4  O           1     -22.221  -5.984  -2.279  0.00  0.00    -0.271 OA
ENDROOT
BRANCH   3   5
HETATM    5  C           1     -20.466  -7.681  -4.277  0.00  0.00     0.189 C 
BRANCH   5   6
HETATM    6  C           1     -20.563  -6.689  -5.409  0.00  0.00     0.197 C 
HETATM    7  O           1     -20.540  -5.462  -5.168  0.00  0.00    -0.646 OA
HETATM    8  O           1     -20.667  -7.092  -6.587  0.00  0.00    -0.646 OA
ENDBRANCH   5   6
BRANCH   5   9
HETATM    9  C           1     -20.135  -9.058  -4.836  0.00  0.00     0.074 C 
BRANCH   9  10
HETATM   10  C           1     -18.679  -9.344  -4.631  0.00  0.00    -0.056 A 
HETATM   11  C           1     -18.132  -9.294  -3.349  0.00  0.00     0.007 A 
HETATM   12  C           1     -16.776  -9.561  -3.159  0.00  0.00     0.001 A 
HETATM   13  C           1     -15.967  -9.875  -4.250  0.00  0.00     0.000 A 
HETATM   14  C           1     -16.513  -9.924  -5.532  0.00  0.00     0.001 A 
HETATM   15  C           1     -17.870  -9.658  -5.724  0.00  0.00     0.007 A 
ENDBRANCH   9  10
ENDBRANCH   5   9
ENDBRANCH   3   5
BRANCH   2  16
HETATM   16  C           1     -21.566  -7.913  -1.093  0.00  0.00     0.278 C 
BRANCH  16  17
HETATM   17  C           1     -22.048  -9.349  -1.254  0.00  0.00     0.021 C 
HETATM   18  C           1     -20.868 -10.301  -1.107  0.00  0.00     0.012 C 
BRANCH  17  19
HETATM   19  C           1     -23.086  -9.658  -0.184  0.00  0.00     0.002 C 
HETATM   20  C           1     -23.794 -10.963  -0.525  0.00  0.00     0.005 C 
ENDBRANCH  17  19
ENDBRANCH  16  17
BRANCH  16  21
HETATM   21  N           1     -22.272  -7.277   0.067  0.00  0.00    -0.066 N 
HETATM   22  H           1     -21.778  -7.525   0.955  0.00  0.00     0.275 HD
HETATM   23  H           1     -22.271  -6.238  -0.052  0.00  0.00     0.275 HD
HETATM   24  H           1     -23.257  -7.622   0.108  0.00  0.00     0.275 HD
ENDBRANCH  16  21
ENDBRANCH   2  16
TORSDOF 8
ENDMDL
MODEL 4
REMARK VINA RESULT:      -7.0     14.928     18.174
REMARK  8 active torsions:
REMARK  status: ('A' for Active; 'I' for Inactive)
REMARK    1  A    between atoms: C_1  and  C_20 
REMARK    2  A    between atoms: C_5  and  C_6 
REMARK    3  A    between atoms: C_5  and  C_16 
REMARK    4  A    between atoms: C_6  and  C_7 
REMARK    5  A    between atoms: C_6  and  N_13 
REMARK       I    between atoms: C_7  and  N_8 
REMARK    6  A    between atoms: N_8  and  C_20 
REMARK    7  A    between atoms: C_20  and  C_21 
REMARK    8  A    between atoms: C_21  and  C_22 
ROOT
HETATM    1  H           1     -23.308  -6.115  -4.124  0.00  0.00     0.163 HD
HETATM    2  C           1     -21.496  -6.453  -3.181  0.00  0.00     0.249 C 
HETATM    3  N           1     -22.325  -6.312  -4.262  0.00  0.00    -0.344 N 
HETATM    4  O           1     -20.928  -5.488  -2.727  0.00  0.00    -0.271 OA
ENDROOT
BRANCH   3   5
HETATM    5  C           1     -21.794  -6.445  -5.605  0.00  0.00     0.189 C 
BRANCH   5   6
HETATM    6  C           1     -20.953  -7.695  -5.689  0.00  0.00     0.197 C 
HETATM    7  O           1     -21.500  -8.820  -5.677  0.00  0.00    -0.646 OA
HETATM    8  O           1     -19.709  -7.607  -5.770  0.00  0.00    -0.646 OA
ENDBRANCH   5   6
BRANCH   5   9
HETATM    9  C           1     -20.934  -5.232  -5.933  0.00  0.00     0.074 C 
BRANCH   9  10
HETATM   10  C           1     -21.194  -4.804  -7.345  0.00  0.00    -0.056 A 
HETATM   11  C           1     -22.467  -4.377  -7.721  0.00  0.00     0.007 A 
HETATM   12  C           1     -22.708  -3.978  -9.036  0.00  0.00     0.001 A 
HETATM   13  C           1     -21.677  -4.005  -9.974  0.00  0.00     0.000 A 
HETATM   14  C           1     -20.403  -4.432  -9.598  0.00  0.00     0.001 A 
HETATM   15  C           1     -20.161  -4.832  -8.283  0.00  0.00     0.007 A 
ENDBRANCH   9  10
ENDBRANCH   5   9
ENDBRANCH   3   5
BRANCH   2  16
HETATM   16  C           1     -21.292  -7.812  -2.559  0.00  0.00     0.278 C 
BRANCH  16  17
HETATM   17  C           1     -21.349  -7.690  -1.042  0.00  0.00     0.021 C 
HETATM   18  C           1     -22.700  -7.119  -0.629  0.00  0.00     0.012 C 
BRANCH  17  19
HETATM   19  C           1     -21.168  -9.067  -0.416  0.00  0.00     0.002 C 
HETATM   20  C           1     -21.200  -8.942   1.102  0.00  0.00     0.005 C 
ENDBRANCH  17  19
ENDBRANCH  16  17
BRANCH  16  21
HETATM   21  N           1     -19.954  -8.352  -2.966  0.00  0.00    -0.066 N 
HETATM   22  H           1     -19.548  -8.908  -2.180  0.00  0.00     0.275 HD
HETATM   23  H           1     -20.068  -8.968  -3.804  0.00  0.00     0.275 HD
HETATM   24  H           1     -19.315  -7.559  -3.200  0.00  0.00     0.275 HD
ENDBRANCH  16  21
ENDBRANCH   2  16
TORSDOF 8
ENDMDL
MODEL 5
REMARK VINA RESULT:      -7.0     13.763     16.870
REMARK  8 active torsions:
REMARK  status: ('A' for Active; 'I' for Inactive)
REMARK    1  A    between atoms: C_1  and  C_20 
REMARK    2  A    between atoms: C_5  and  C_6 
REMARK    3  A    between atoms: C_5  and  C_16 
REMARK    4  A    between atoms: C_6  and  C_7 
REMARK    5  A    between atoms: C_6  and  N_13 
REMARK       I    between atoms: C_7  and  N_8 
REMARK    6  A    between atoms: N_8  and  C_20 
REMARK    7  A    between atoms: C_20  and  C_21 
REMARK    8  A    between atoms: C_21  and  C_22 
ROOT
HETATM    1  H           1     -22.603  -4.143  -5.655  0.00  0.00     0.163 HD
HETATM    2  C           1     -21.157  -5.509  -5.081  0.00  0.00     0.249 C 
HETATM    3  N           1     -21.887  -4.780  -5.982  0.00  0.00    -0.344 N 
HETATM    4  O           1     -20.128  -5.061  -4.634  0.00  0.00    -0.271 OA
ENDROOT
BRANCH   3   5
HETATM    5  C           1     -21.634  -4.920  -7.403  0.00  0.00     0.189 C 
BRANCH   5   6
HETATM    6  C           1     -20.167  -5.195  -7.625  0.00  0.00     0.197 C 
HETATM    7  O           1     -19.361  -4.244  -7.727  0.00  0.00    -0.646 OA
HETATM    8  O           1     -19.757  -6.373  -7.706  0.00  0.00    -0.646 OA
ENDBRANCH   5   6
BRANCH   5   9
HETATM    9  C           1     -22.022  -3.633  -8.117  0.00  0.00     0.074 C 
BRANCH   9  10
HETATM   10  C           1     -22.352  -3.935  -9.546  0.00  0.00    -0.056 A 
HETATM   11  C           1     -23.504  -4.656  -9.859  0.00  0.00     0.007 A 
HETATM   12  C           1     -23.811  -4.936 -11.191  0.00  0.00     0.001 A 
HETATM   13  C           1     -22.966  -4.497 -12.209  0.00  0.00     0.000 A 
HETATM   14  C           1     -21.813  -3.776 -11.896  0.00  0.00     0.001 A 
HETATM   15  C           1     -21.506  -3.495 -10.565  0.00  0.00     0.007 A 
ENDBRANCH   9  10
ENDBRANCH   5   9
ENDBRANCH   3   5
BRANCH   2  16
HETATM   16  C           1     -21.638  -6.872  -4.648  0.00  0.00     0.278 C 
BRANCH  16  17
HETATM   17  C           1     -21.238  -7.115  -3.198  0.00  0.00     0.021 C 
HETATM   18  C           1     -22.139  -6.300  -2.280  0.00  0.00     0.012 C 
BRANCH  17  19
HETATM   19  C           1     -21.388  -8.595  -2.873  0.00  0.00     0.002 C 
HETATM   20  C           1     -20.969  -8.843  -1.429  0.00  0.00     0.005 C 
ENDBRANCH  17  19
ENDBRANCH  16  17
BRANCH  16  21
HETATM   21  N           1     -21.015  -7.922  -5.520  0.00  0.00    -0.066 N 
HETATM   22  H           1     -21.685  -8.188  -6.277  0.00  0.00     0.275 HD
HETATM   23  H           1     -20.139  -7.545  -5.947  0.00  0.00     0.275 HD
HETATM   24  H           1     -20.788  -8.764  -4.944  0.00  0.00     0.275 HD
ENDBRANCH  16  21
ENDBRANCH   2  16
TORSDOF 8
ENDMDL
MODEL 6
REMARK VINA RESULT:      -7.0     17.190     19.947
REMARK  8 active torsions:
REMARK  status: ('A' for Active; 'I' for Inactive)
REMARK    1  A    between atoms: C_1  and  C_20 
REMARK    2  A    between atoms: C_5  and  C_6 
REMARK    3  A    between atoms: C_5  and  C_16 
REMARK    4  A    between atoms: C_6  and  C_7 
REMARK    5  A    between atoms: C_6  and  N_13 
REMARK       I    between atoms: C_7  and  N_8 
REMARK    6  A    between atoms: N_8  and  C_20 
REMARK    7  A    between atoms: C_20  and  C_21 
REMARK    8  A    between atoms: C_21  and  C_22 
ROOT
HETATM    1  H           1     -19.027  -7.969  -4.598  0.00  0.00     0.163 HD
HETATM    2  C           1     -19.728  -9.892  -4.913  0.00  0.00     0.249 C 
HETATM    3  N           1     -19.834  -8.577  -4.541  0.00  0.00    -0.344 N 
HETATM    4  O           1     -19.943 -10.215  -6.057  0.00  0.00    -0.271 OA
ENDROOT
BRANCH   3   5
HETATM    5  C           1     -21.102  -8.058  -4.068  0.00  0.00     0.189 C 
BRANCH   5   6
HETATM    6  C           1     -21.652  -7.082  -5.078  0.00  0.00     0.197 C 
HETATM    7  O           1     -22.507  -6.238  -4.730  0.00  0.00    -0.646 OA
HETATM    8  O           1     -21.254  -7.116  -6.262  0.00  0.00    -0.646 OA
ENDBRANCH   5   6
BRANCH   5   9
HETATM    9  C           1     -20.895  -7.349  -2.737  0.00  0.00     0.074 C 
BRANCH   9  10
HETATM   10  C           1     -21.727  -8.012  -1.683  0.00  0.00    -0.056 A 
HETATM   11  C           1     -22.297  -7.250  -0.663  0.00  0.00     0.007 A 
HETATM   12  C           1     -23.073  -7.868   0.318  0.00  0.00     0.001 A 
HETATM   13  C           1     -23.277  -9.246   0.281  0.00  0.00     0.000 A 
HETATM   14  C           1     -22.706 -10.009  -0.738  0.00  0.00     0.001 A 
HETATM   15  C           1     -21.931  -9.392  -1.720  0.00  0.00     0.007 A 
ENDBRANCH   9  10
ENDBRANCH   5   9
ENDBRANCH   3   5
BRANCH   2  16
HETATM   16  C           1     -19.343 -10.935  -3.893  0.00  0.00     0.278 C 
BRANCH  16  17
HETATM   17  C           1     -18.327 -10.348  -2.922  0.00  0.00     0.021 C 
HETATM   18  C           1     -18.355 -11.137  -1.619  0.00  0.00     0.012 C 
BRANCH  17  19
HETATM   19  C           1     -16.936 -10.428  -3.535  0.00  0.00     0.002 C 
HETATM   20  C           1     -16.001  -9.475  -2.800  0.00  0.00     0.005 C 
ENDBRANCH  17  19
ENDBRANCH  16  17
BRANCH  16  21
HETATM   21  N           1     -18.741 -12.118  -4.591  0.00  0.00    -0.066 N 
HETATM   22  H           1     -19.330 -12.963  -4.416  0.00  0.00     0.275 HD
HETATM   23  H           1     -18.697 -11.931  -5.619  0.00  0.00     0.275 HD
HETATM   24  H           1     -17.775 -12.284  -4.226  0.00  0.00     0.275 HD
ENDBRANCH  16  21
ENDBRANCH   2  16
TORSDOF 8
ENDMDL
MODEL 7
REMARK VINA RESULT:      -6.9     18.184     19.465
REMARK  8 active torsions:
REMARK  status: ('A' for Active; 'I' for Inactive)
REMARK    1  A    between atoms: C_1  and  C_20 
REMARK    2  A    between atoms: C_5  and  C_6 
REMARK    3  A    between atoms: C_5  and  C_16 
REMARK    4  A    between atoms: C_6  and  C_7 
REMARK    5  A    between atoms: C_6  and  N_13 
REMARK       I    between atoms: C_7  and  N_8 
REMARK    6  A    between atoms: N_8  and  C_20 
REMARK    7  A    between atoms: C_20  and  C_21 
REMARK    8  A    between atoms: C_21  and  C_22 
ROOT
HETATM    1  H           1     -22.878  -8.711  -4.515  0.00  0.00     0.163 HD
HETATM    2  C           1     -21.155  -7.748  -3.891  0.00  0.00     0.249 C 
HETATM    3  N           1     -21.943  -8.838  -4.150  0.00  0.00    -0.344 N 
HETATM    4  O           1     -20.432  -7.307  -4.753  0.00  0.00    -0.271 OA
ENDROOT
BRANCH   3   5
HETATM    5  C           1     -21.437 -10.174  -3.900  0.00  0.00     0.189 C 
BRANCH   5   6
HETATM    6  C           1     -20.649 -10.642  -5.099  0.00  0.00     0.197 C 
HETATM    7  O           1     -21.174 -10.632  -6.235  0.00  0.00    -0.646 OA
HETATM    8  O           1     -19.473 -11.040  -4.958  0.00  0.00    -0.646 OA
ENDBRANCH   5   6
BRANCH   5   9
HETATM    9  C           1     -22.603 -11.121  -3.658  0.00  0.00     0.074 C 
BRANCH   9  10
HETATM   10  C           1     -22.667 -11.473  -2.203  0.00  0.00    -0.056 A 
HETATM   11  C           1     -23.813 -11.181  -1.465  0.00  0.00     0.007 A 
HETATM   12  C           1     -23.871 -11.509  -0.110  0.00  0.00     0.001 A 
HETATM   13  C           1     -22.785 -12.128   0.506  0.00  0.00     0.000 A 
HETATM   14  C           1     -21.638 -12.419  -0.232  0.00  0.00     0.001 A 
HETATM   15  C           1     -21.578 -12.092  -1.587  0.00  0.00     0.007 A 
ENDBRANCH   9  10
ENDBRANCH   5   9
ENDBRANCH   3   5
BRANCH   2  16
HETATM   16  C           1     -21.189  -7.098  -2.530  0.00  0.00     0.278 C 
BRANCH  16  17
HETATM   17  C           1     -21.720  -8.091  -1.505  0.00  0.00     0.021 C 
HETATM   18  C           1     -20.553  -8.716  -0.752  0.00  0.00     0.012 C 
BRANCH  17  19
HETATM   19  C           1     -22.630  -7.367  -0.521  0.00  0.00     0.002 C 
HETATM   20  C           1     -22.658  -8.128   0.798  0.00  0.00     0.005 C 
ENDBRANCH  17  19
ENDBRANCH  16  17
BRANCH  16  21
HETATM   21  N           1     -22.086  -5.897  -2.572  0.00  0.00    -0.066 N 
HETATM   22  H           1     -23.064  -6.198  -2.786  0.00  0.00     0.275 HD
HETATM   23  H           1     -22.066  -5.414  -1.645  0.00  0.00     0.275 HD
HETATM   24  H           1     -21.754  -5.240  -3.314  0.00  0.00     0.275 HD
ENDBRANCH  16  21
ENDBRANCH   2  16
TORSDOF 8
ENDMDL
MODEL 8
REMARK VINA RESULT:      -6.9     18.014     19.743
REMARK  8 active torsions:
REMARK  status: ('A' for Active; 'I' for Inactive)
REMARK    1  A    between atoms: C_1  and  C_20 
REMARK    2  A    between atoms: C_5  and  C_6 
REMARK    3  A    between atoms: C_5  and  C_16 
REMARK    4  A    between atoms: C_6  and  C_7 
REMARK    5  A    between atoms: C_6  and  N_13 
REMARK       I    between atoms: C_7  and  N_8 
REMARK    6  A    between atoms: N_8  and  C_20 
REMARK    7  A    between atoms: C_20  and  C_21 
REMARK    8  A    between atoms: C_21  and  C_22 
ROOT
HETATM    1  H           1     -23.452 -10.491  -3.802  0.00  0.00     0.163 HD
HETATM    2  C           1     -21.529 -10.436  -4.567  0.00  0.00     0.249 C 
HETATM    3  N           1     -22.486 -10.745  -3.637  0.00  0.00    -0.344 N 
HETATM    4  O           1     -21.268 -11.220  -5.449  0.00  0.00    -0.271 OA
ENDROOT
BRANCH   3   5
HETATM    5  C           1     -22.116 -11.436  -2.417  0.00  0.00     0.189 C 
BRANCH   5   6
HETATM    6  C           1     -22.140 -12.925  -2.658  0.00  0.00     0.197 C 
HETATM    7  O           1     -21.391 -13.678  -1.997  0.00  0.00    -0.646 OA
HETATM    8  O           1     -22.909 -13.407  -3.518  0.00  0.00    -0.646 OA
ENDBRANCH   5   6
BRANCH   5   9
HETATM    9  C           1     -23.105 -11.084  -1.315  0.00  0.00     0.074 C 
BRANCH   9  10
HETATM   10  C           1     -22.441 -10.187  -0.316  0.00  0.00    -0.056 A 
HETATM   11  C           1     -22.980  -8.929  -0.042  0.00  0.00     0.007 A 
HETATM   12  C           1     -22.361  -8.094   0.889  0.00  0.00     0.001 A 
HETATM   13  C           1     -21.205  -8.515   1.544  0.00  0.00     0.000 A 
HETATM   14  C           1     -20.665  -9.772   1.269  0.00  0.00     0.001 A 
HETATM   15  C           1     -21.283 -10.608   0.339  0.00  0.00     0.007 A 
ENDBRANCH   9  10
ENDBRANCH   5   9
ENDBRANCH   3   5
BRANCH   2  16
HETATM   16  C           1     -20.799  -9.118  -4.490  0.00  0.00     0.278 C 
BRANCH  16  17
HETATM   17  C           1     -21.218  -8.378  -3.227  0.00  0.00     0.021 C 
HETATM   18  C           1     -20.033  -8.289  -2.274  0.00  0.00     0.012 C 
BRANCH  17  19
HETATM   19  C           1     -21.683  -6.974  -3.592  0.00  0.00     0.002 C 
HETATM   20  C           1     -21.964  -6.186  -2.319  0.00  0.00     0.005 C 
ENDBRANCH  17  19
ENDBRANCH  16  17
BRANCH  16  21
HETATM   21  N           1     -21.140  -8.288  -5.691  0.00  0.00    -0.066 N 
HETATM   22  H           1     -20.920  -8.825  -6.561  0.00  0.00     0.275 HD
HETATM   23  H           1     -22.159  -8.054  -5.676  0.00  0.00     0.275 HD
HETATM   24  H           1     -20.580  -7.405  -5.676  0.00  0.00     0.275 HD
ENDBRANCH  16  21
ENDBRANCH   2  16
TORSDOF 8
ENDMDL
MODEL 9
REMARK VINA RESULT:      -6.9     14.029     16.243
REMARK  8 active torsions:
REMARK  status: ('A' for Active; 'I' for Inactive)
REMARK    1  A    between atoms: C_1  and  C_20 
REMARK    2  A    between atoms: C_5  and  C_6 
REMARK    3  A    between atoms: C_5  and  C_16 
REMARK    4  A    between atoms: C_6  and  C_7 
REMARK    5  A    between atoms: C_6  and  N_13 
REMARK       I    between atoms: C_7  and  N_8 
REMARK    6  A    between atoms: N_8  and  C_20 
REMARK    7  A    between atoms: C_20  and  C_21 
REMARK    8  A    between atoms: C_21  and  C_22 
ROOT
HETATM    1  H           1     -19.851  -6.786  -7.178  0.00  0.00     0.163 HD
HETATM    2  C           1     -21.105  -5.148  -7.002  0.00  0.00     0.249 C 
HETATM    3  N           1     -20.683  -6.423  -6.730  0.00  0.00    -0.344 N 
HETATM    4  O           1     -20.708  -4.225  -6.331  0.00  0.00    -0.271 OA
ENDROOT
BRANCH   3   5
HETATM    5  C           1     -21.428  -7.251  -5.802  0.00  0.00     0.189 C 
BRANCH   5   6
HETATM    6  C           1     -22.187  -6.368  -4.842  0.00  0.00     0.197 C 
HETATM    7  O           1     -23.377  -6.063  -5.080  0.00  0.00    -0.646 OA
HETATM    8  O           1     -21.627  -5.941  -3.809  0.00  0.00    -0.646 OA
ENDBRANCH   5   6
BRANCH   5   9
HETATM    9  C           1     -20.463  -8.135  -5.024  0.00  0.00     0.074 C 
BRANCH   9  10
HETATM   10  C           1     -21.124  -9.442  -4.714  0.00  0.00    -0.056 A 
HETATM   11  C           1     -21.103 -10.474  -5.652  0.00  0.00     0.007 A 
HETATM   12  C           1     -21.719 -11.692  -5.362  0.00  0.00     0.001 A 
HETATM   13  C           1     -22.354 -11.878  -4.136  0.00  0.00     0.000 A 
HETATM   14  C           1     -22.376 -10.847  -3.197  0.00  0.00     0.001 A 
HETATM   15  C           1     -21.761  -9.628  -3.486  0.00  0.00     0.007 A 
ENDBRANCH   9  10
ENDBRANCH   5   9
ENDBRANCH   3   5
BRANCH   2  16
HETATM   16  C           1     -22.066  -4.897  -8.137  0.00  0.00     0.278 C 
BRANCH  16  17
HETATM   17  C           1     -21.421  -3.961  -9.152  0.00  0.00     0.021 C 
HETATM   18  C           1     -20.208  -4.643  -9.772  0.00  0.00     0.012 C 
BRANCH  17  19
HETATM   19  C           1     -22.429  -3.626 -10.243  0.00  0.00     0.002 C 
HETATM   20  C           1     -21.688  -3.196 -11.503  0.00  0.00     0.005 C 
ENDBRANCH  17  19
ENDBRANCH  16  17
BRANCH  16  21
HETATM   21  N           1     -23.318  -4.268  -7.603  0.00  0.00    -0.066 N 
HETATM   22  H           1     -23.432  -4.521  -6.595  0.00  0.00     0.275 HD
HETATM   23  H           1     -23.252  -3.229  -7.695  0.00  0.00     0.275 HD
HETATM   24  H           1     -24.141  -4.615  -8.146  0.00  0.00     0.275 HD
ENDBRANCH  16  21
ENDBRANCH   2  16
TORSDOF 8
ENDMDL
