MODEL 1
REMARK VINA RESULT:      -5.4      0.000      0.000
REMARK  6 active torsions:
REMARK  status: ('A' for Active; 'I' for Inactive)
REMARK    1  A    between atoms: C_2  and  C_3 
REMARK    2  A    between atoms: C_2  and  N_6 
REMARK       I    between atoms: N_6  and  C_7 
REMARK    3  A    between atoms: C_7  and  C_8 
REMARK    4  A    between atoms: C_8  and  C_9 
REMARK    5  A    between atoms: C_8  and  N_11 
REMARK    6  A    between atoms: C_9  and  Se_10 
ROOT
HETATM    1  N           1     -34.791  -1.167 -13.768  0.00  0.00    -0.345 N 
HETATM    2  C           1     -35.263  -1.737 -12.617  0.00  0.00     0.249 C 
HETATM    3  O           1     -36.410  -1.562 -12.283  0.00  0.00    -0.271 OA
HETATM    4  H           1     -33.829  -1.314 -14.048  0.00  0.00     0.163 HD
ENDROOT
BRANCH   2   5
HETATM    5  C           1     -34.350  -2.584 -11.764  0.00  0.00     0.274 C 
BRANCH   5   6
HETATM    6  C           1     -35.151  -3.711 -11.127  0.00  0.00     0.045 C 
BRANCH   6   7
HETATM    7 Se           1     -34.004  -5.269 -10.889  0.00  0.00     0.000 Se
HETATM    8  H           1     -35.059  -6.241 -11.219  0.00  0.00     0.000 HD
ENDBRANCH   6   7
ENDBRANCH   5   6
BRANCH   5   9
HETATM    9  N           1     -33.741  -1.733 -10.690  0.00  0.00    -0.067 N 
HETATM   10  H           1     -33.797  -0.727 -10.968  0.00  0.00     0.275 HD
HETATM   11  H           1     -34.263  -1.876  -9.796  0.00  0.00     0.275 HD
HETATM   12  H           1     -32.740  -2.003 -10.557  0.00  0.00     0.275 HD
ENDBRANCH   5   9
ENDBRANCH   2   5
BRANCH   1  13
HETATM   13  C           1     -35.669  -0.353 -14.588  0.00  0.00     0.181 C 
HETATM   14  C           1     -35.137   1.073 -14.637  0.00  0.00     0.043 C 
BRANCH  13  15
HETATM   15  C           1     -35.720  -0.921 -15.986  0.00  0.00     0.196 C 
HETATM   16  O           1     -35.116  -1.983 -16.251  0.00  0.00    -0.646 OA
HETATM   17  O           1     -36.366  -0.329 -16.876  0.00  0.00    -0.646 OA
ENDBRANCH  13  15
ENDBRANCH   1  13
TORSDOF 6
ENDMDL
MODEL 2
REMARK VINA RESULT:      -5.1      2.412      3.174
REMARK  6 active torsions:
REMARK  status: ('A' for Active; 'I' for Inactive)
REMARK    1  A    between atoms: C_2  and  C_3 
REMARK    2  A    between atoms: C_2  and  N_6 
REMARK       I    between atoms: N_6  and  C_7 
REMARK    3  A    between atoms: C_7  and  C_8 
REMARK    4  A    between atoms: C_8  and  C_9 
REMARK    5  A    between atoms: C_8  and  N_11 
REMARK    6  A    between atoms: C_9  and  Se_10 
ROOT
HETATM    1  N           1     -34.899  -1.642 -13.026  0.00  0.00    -0.345 N 
HETATM    2  C           1     -34.239  -2.542 -12.234  0.00  0.00     0.249 C 
HETATM    3  O           1     -33.696  -2.171 -11.221  0.00  0.00    -0.271 OA
HETATM    4  H           1     -35.354  -1.953 -13.875  0.00  0.00     0.163 HD
ENDROOT
BRANCH   2   5
HETATM    5  C           1     -34.189  -3.999 -12.626  0.00  0.00     0.274 C 
BRANCH   5   6
HETATM    6  C           1     -33.272  -4.751 -11.671  0.00  0.00     0.045 C 
BRANCH   6   7
HETATM    7 Se           1     -34.303  -6.090 -10.700  0.00  0.00     0.000 Se
HETATM    8  H           1     -35.606  -5.475 -11.003  0.00  0.00     0.000 HD
ENDBRANCH   6   7
ENDBRANCH   5   6
BRANCH   5   9
HETATM    9  N           1     -33.662  -4.121 -14.025  0.00  0.00    -0.067 N 
HETATM   10  H           1     -34.461  -4.244 -14.689  0.00  0.00     0.275 HD
HETATM   11  H           1     -33.134  -3.254 -14.274  0.00  0.00     0.275 HD
HETATM   12  H           1     -33.027  -4.947 -14.087  0.00  0.00     0.275 HD
ENDBRANCH   5   9
ENDBRANCH   2   5
BRANCH   1  13
HETATM   13  C           1     -34.947  -0.243 -12.649  0.00  0.00     0.181 C 
HETATM   14  C           1     -34.883   0.622 -13.901  0.00  0.00     0.043 C 
BRANCH  13  15
HETATM   15  C           1     -36.234   0.035 -11.910  0.00  0.00     0.196 C 
HETATM   16  O           1     -37.330  -0.079 -12.500  0.00  0.00    -0.646 OA
HETATM   17  O           1     -36.203   0.379 -10.709  0.00  0.00    -0.646 OA
ENDBRANCH  13  15
ENDBRANCH   1  13
TORSDOF 6
ENDMDL
MODEL 3
REMARK VINA RESULT:      -5.1     12.424     13.135
REMARK  6 active torsions:
REMARK  status: ('A' for Active; 'I' for Inactive)
REMARK    1  A    between atoms: C_2  and  C_3 
REMARK    2  A    between atoms: C_2  and  N_6 
REMARK       I    between atoms: N_6  and  C_7 
REMARK    3  A    between atoms: C_7  and  C_8 
REMARK    4  A    between atoms: C_8  and  C_9 
REMARK    5  A    between atoms: C_8  and  N_11 
REMARK    6  A    between atoms: C_9  and  Se_10 
ROOT
HETATM    1  N           1     -22.330  -3.353 -12.743  0.00  0.00    -0.345 N 
HETATM    2  C           1     -22.232  -4.270 -11.732  0.00  0.00     0.249 C 
HETATM    3  O           1     -23.133  -5.051 -11.535  0.00  0.00    -0.271 OA
HETATM    4  H           1     -21.575  -2.699 -12.908  0.00  0.00     0.163 HD
ENDROOT
BRANCH   2   5
HETATM    5  C           1     -21.000  -4.306 -10.861  0.00  0.00     0.274 C 
BRANCH   5   6
HETATM    6  C           1     -21.402  -4.131  -9.403  0.00  0.00     0.045 C 
BRANCH   6   7
HETATM    7 Se           1     -19.842  -4.384  -8.263  0.00  0.00     0.000 Se
HETATM    8  H           1     -19.092  -3.257  -8.843  0.00  0.00     0.000 HD
ENDBRANCH   6   7
ENDBRANCH   5   6
BRANCH   5   9
HETATM    9  N           1     -20.075  -3.195 -11.261  0.00  0.00    -0.067 N 
HETATM   10  H           1     -20.328  -2.326 -10.739  0.00  0.00     0.275 HD
HETATM   11  H           1     -19.091  -3.463 -11.032  0.00  0.00     0.275 HD
HETATM   12  H           1     -20.160  -3.023 -12.288  0.00  0.00     0.275 HD
ENDBRANCH   5   9
ENDBRANCH   2   5
BRANCH   1  13
HETATM   13  C           1     -23.514  -3.319 -13.579  0.00  0.00     0.181 C 
HETATM   14  C           1     -24.704  -2.848 -12.754  0.00  0.00     0.043 C 
BRANCH  13  15
HETATM   15  C           1     -23.290  -2.367 -14.729  0.00  0.00     0.196 C 
HETATM   16  O           1     -24.006  -1.349 -14.846  0.00  0.00    -0.646 OA
HETATM   17  O           1     -22.388  -2.597 -15.564  0.00  0.00    -0.646 OA
ENDBRANCH  13  15
ENDBRANCH   1  13
TORSDOF 6
ENDMDL
MODEL 4
REMARK VINA RESULT:      -5.0     14.054     15.456
REMARK  6 active torsions:
REMARK  status: ('A' for Active; 'I' for Inactive)
REMARK    1  A    between atoms: C_2  and  C_3 
REMARK    2  A    between atoms: C_2  and  N_6 
REMARK       I    between atoms: N_6  and  C_7 
REMARK    3  A    between atoms: C_7  and  C_8 
REMARK    4  A    between atoms: C_8  and  C_9 
REMARK    5  A    between atoms: C_8  and  N_11 
REMARK    6  A    between atoms: C_9  and  Se_10 
ROOT
HETATM    1  N           1     -21.154  -4.240  -9.068  0.00  0.00    -0.345 N 
HETATM    2  C           1     -20.907  -4.140 -10.410  0.00  0.00     0.249 C 
HETATM    3  O           1     -20.011  -4.779 -10.909  0.00  0.00    -0.271 OA
HETATM    4  H           1     -21.904  -3.705  -8.651  0.00  0.00     0.163 HD
ENDROOT
BRANCH   2   5
HETATM    5  C           1     -21.754  -3.233 -11.269  0.00  0.00     0.274 C 
BRANCH   5   6
HETATM    6  C           1     -23.215  -3.361 -10.857  0.00  0.00     0.045 C 
BRANCH   6   7
HETATM    7 Se           1     -24.354  -3.117 -12.419  0.00  0.00     0.000 Se
HETATM    8  H           1     -24.547  -1.674 -12.197  0.00  0.00     0.000 HD
ENDBRANCH   6   7
ENDBRANCH   5   6
BRANCH   5   9
HETATM    9  N           1     -21.604  -3.625 -12.709  0.00  0.00    -0.067 N 
HETATM   10  H           1     -20.611  -3.892 -12.895  0.00  0.00     0.275 HD
HETATM   11  H           1     -22.227  -4.439 -12.914  0.00  0.00     0.275 HD
HETATM   12  H           1     -21.869  -2.819 -13.318  0.00  0.00     0.275 HD
ENDBRANCH   5   9
ENDBRANCH   2   5
BRANCH   1  13
HETATM   13  C           1     -20.339  -5.112  -8.244  0.00  0.00     0.181 C 
HETATM   14  C           1     -19.214  -4.305  -7.609  0.00  0.00     0.043 C 
BRANCH  13  15
HETATM   15  C           1     -21.195  -5.722  -7.160  0.00  0.00     0.196 C 
HETATM   16  O           1     -22.131  -5.063  -6.659  0.00  0.00    -0.646 OA
HETATM   17  O           1     -20.967  -6.886  -6.766  0.00  0.00    -0.646 OA
ENDBRANCH  13  15
ENDBRANCH   1  13
TORSDOF 6
ENDMDL
MODEL 5
REMARK VINA RESULT:      -5.0     10.504     11.228
REMARK  6 active torsions:
REMARK  status: ('A' for Active; 'I' for Inactive)
REMARK    1  A    between atoms: C_2  and  C_3 
REMARK    2  A    between atoms: C_2  and  N_6 
REMARK       I    between atoms: N_6  and  C_7 
REMARK    3  A    between atoms: C_7  and  C_8 
REMARK    4  A    between atoms: C_8  and  C_9 
REMARK    5  A    between atoms: C_8  and  N_11 
REMARK    6  A    between atoms: C_9  and  Se_10 
ROOT
HETATM    1  N           1     -27.700  -7.371 -19.307  0.00  0.00    -0.345 N 
HETATM    2  C           1     -28.502  -6.427 -18.725  0.00  0.00     0.249 C 
HETATM    3  O           1     -28.334  -5.256 -18.969  0.00  0.00    -0.271 OA
HETATM    4  H           1     -27.841  -8.351 -19.102  0.00  0.00     0.163 HD
ENDROOT
BRANCH   2   5
HETATM    5  C           1     -29.598  -6.849 -17.776  0.00  0.00     0.274 C 
BRANCH   5   6
HETATM    6  C           1     -29.341  -6.244 -16.402  0.00  0.00     0.045 C 
BRANCH   6   7
HETATM    7 Se           1     -27.688  -6.973 -15.670  0.00  0.00     0.000 Se
HETATM    8  H           1     -27.144  -5.660 -15.284  0.00  0.00     0.000 HD
ENDBRANCH   6   7
ENDBRANCH   5   6
BRANCH   5   9
HETATM    9  N           1     -29.615  -8.345 -17.668  0.00  0.00    -0.067 N 
HETATM   10  H           1     -30.471  -8.718 -18.138  0.00  0.00     0.275 HD
HETATM   11  H           1     -28.765  -8.737 -18.133  0.00  0.00     0.275 HD
HETATM   12  H           1     -29.621  -8.622 -16.661  0.00  0.00     0.275 HD
ENDBRANCH   5   9
ENDBRANCH   2   5
BRANCH   1  13
HETATM   13  C           1     -26.648  -6.965 -20.219  0.00  0.00     0.181 C 
HETATM   14  C           1     -25.367  -6.711 -19.435  0.00  0.00     0.043 C 
BRANCH  13  15
HETATM   15  C           1     -26.410  -8.059 -21.231  0.00  0.00     0.196 C 
HETATM   16  O           1     -27.339  -8.835 -21.541  0.00  0.00    -0.646 OA
HETATM   17  O           1     -25.284  -8.189 -21.758  0.00  0.00    -0.646 OA
ENDBRANCH  13  15
ENDBRANCH   1  13
TORSDOF 6
ENDMDL
MODEL 6
REMARK VINA RESULT:      -5.0     13.388     14.423
REMARK  6 active torsions:
REMARK  status: ('A' for Active; 'I' for Inactive)
REMARK    1  A    between atoms: C_2  and  C_3 
REMARK    2  A    between atoms: C_2  and  N_6 
REMARK       I    between atoms: N_6  and  C_7 
REMARK    3  A    between atoms: C_7  and  C_8 
REMARK    4  A    between atoms: C_8  and  C_9 
REMARK    5  A    between atoms: C_8  and  N_11 
REMARK    6  A    between atoms: C_9  and  Se_10 
ROOT
HETATM    1  N           1     -22.304  -4.723  -8.646  0.00  0.00    -0.345 N 
HETATM    2  C           1     -21.612  -4.515  -7.484  0.00  0.00     0.249 C 
HETATM    3  O           1     -21.411  -3.390  -7.093  0.00  0.00    -0.271 OA
HETATM    4  H           1     -22.473  -5.665  -8.973  0.00  0.00     0.163 HD
ENDROOT
BRANCH   2   5
HETATM    5  C           1     -21.099  -5.692  -6.690  0.00  0.00     0.274 C 
BRANCH   5   6
HETATM    6  C           1     -20.679  -5.225  -5.303  0.00  0.00     0.045 C 
BRANCH   6   7
HETATM    7 Se           1     -21.461  -6.398  -3.958  0.00  0.00     0.000 Se
HETATM    8  H           1     -21.054  -5.557  -2.820  0.00  0.00     0.000 HD
ENDBRANCH   6   7
ENDBRANCH   5   6
BRANCH   5   9
HETATM    9  N           1     -19.919  -6.292  -7.395  0.00  0.00    -0.067 N 
HETATM   10  H           1     -19.895  -5.956  -8.384  0.00  0.00     0.275 HD
HETATM   11  H           1     -19.040  -6.003  -6.909  0.00  0.00     0.275 HD
HETATM   12  H           1     -19.998  -7.334  -7.382  0.00  0.00     0.275 HD
ENDBRANCH   5   9
ENDBRANCH   2   5
BRANCH   1  13
HETATM   13  C           1     -22.797  -3.592  -9.409  0.00  0.00     0.181 C 
HETATM   14  C           1     -22.051  -3.510 -10.734  0.00  0.00     0.043 C 
BRANCH  13  15
HETATM   15  C           1     -24.273  -3.768  -9.671  0.00  0.00     0.196 C 
HETATM   16  O           1     -25.049  -2.795  -9.551  0.00  0.00    -0.646 OA
HETATM   17  O           1     -24.718  -4.885 -10.009  0.00  0.00    -0.646 OA
ENDBRANCH  13  15
ENDBRANCH   1  13
TORSDOF 6
ENDMDL
MODEL 7
REMARK VINA RESULT:      -4.7     10.265     11.177
REMARK  6 active torsions:
REMARK  status: ('A' for Active; 'I' for Inactive)
REMARK    1  A    between atoms: C_2  and  C_3 
REMARK    2  A    between atoms: C_2  and  N_6 
REMARK       I    between atoms: N_6  and  C_7 
REMARK    3  A    between atoms: C_7  and  C_8 
REMARK    4  A    between atoms: C_8  and  C_9 
REMARK    5  A    between atoms: C_8  and  N_11 
REMARK    6  A    between atoms: C_9  and  Se_10 
ROOT
HETATM    1  N           1     -27.664  -6.801 -17.686  0.00  0.00    -0.345 N 
HETATM    2  C           1     -27.383  -6.159 -18.861  0.00  0.00     0.249 C 
HETATM    3  O           1     -28.178  -5.378 -19.328  0.00  0.00    -0.271 OA
HETATM    4  H           1     -26.998  -7.456 -17.295  0.00  0.00     0.163 HD
ENDROOT
BRANCH   2   5
HETATM    5  C           1     -26.081  -6.428 -19.576  0.00  0.00     0.274 C 
BRANCH   5   6
HETATM    6  C           1     -26.316  -7.427 -20.701  0.00  0.00     0.045 C 
BRANCH   6   7
HETATM    7 Se           1     -24.613  -7.879 -21.534  0.00  0.00     0.000 Se
HETATM    8  H           1     -24.291  -6.490 -21.901  0.00  0.00     0.000 HD
ENDBRANCH   6   7
ENDBRANCH   5   6
BRANCH   5   9
HETATM    9  N           1     -25.087  -6.992 -18.605  0.00  0.00    -0.067 N 
HETATM   10  H           1     -25.548  -7.138 -17.679  0.00  0.00     0.275 HD
HETATM   11  H           1     -24.731  -7.906 -18.964  0.00  0.00     0.275 HD
HETATM   12  H           1     -24.290  -6.325 -18.496  0.00  0.00     0.275 HD
ENDBRANCH   5   9
ENDBRANCH   2   5
BRANCH   1  13
HETATM   13  C           1     -28.915  -6.543 -16.999  0.00  0.00     0.181 C 
HETATM   14  C           1     -29.915  -7.641 -17.338  0.00  0.00     0.043 C 
BRANCH  13  15
HETATM   15  C           1     -28.676  -6.522 -15.509  0.00  0.00     0.196 C 
HETATM   16  O           1     -27.985  -7.417 -14.975  0.00  0.00    -0.646 OA
HETATM   17  O           1     -29.168  -5.610 -14.810  0.00  0.00    -0.646 OA
ENDBRANCH  13  15
ENDBRANCH   1  13
TORSDOF 6
ENDMDL
MODEL 8
REMARK VINA RESULT:      -4.7     13.242     14.224
REMARK  6 active torsions:
REMARK  status: ('A' for Active; 'I' for Inactive)
REMARK    1  A    between atoms: C_2  and  C_3 
REMARK    2  A    between atoms: C_2  and  N_6 
REMARK       I    between atoms: N_6  and  C_7 
REMARK    3  A    between atoms: C_7  and  C_8 
REMARK    4  A    between atoms: C_8  and  C_9 
REMARK    5  A    between atoms: C_8  and  N_11 
REMARK    6  A    between atoms: C_9  and  Se_10 
ROOT
HETATM    1  N           1     -22.180  -3.930  -9.616  0.00  0.00    -0.345 N 
HETATM    2  C           1     -20.876  -4.209  -9.310  0.00  0.00     0.249 C 
HETATM    3  O           1     -20.171  -4.765 -10.118  0.00  0.00    -0.271 OA
HETATM    4  H           1     -22.771  -3.465  -8.938  0.00  0.00     0.163 HD
ENDROOT
BRANCH   2   5
HETATM    5  C           1     -20.318  -3.825  -7.961  0.00  0.00     0.274 C 
BRANCH   5   6
HETATM    6  C           1     -19.614  -5.024  -7.341  0.00  0.00     0.045 C 
BRANCH   6   7
HETATM    7 Se           1     -20.920  -6.144  -6.425  0.00  0.00     0.000 Se
HETATM    8  H           1     -19.953  -6.673  -5.449  0.00  0.00     0.000 HD
ENDBRANCH   6   7
ENDBRANCH   5   6
BRANCH   5   9
HETATM    9  N           1     -21.438  -3.385  -7.065  0.00  0.00    -0.067 N 
HETATM   10  H           1     -22.202  -4.098  -7.087  0.00  0.00     0.275 HD
HETATM   11  H           1     -21.083  -3.287  -6.087  0.00  0.00     0.275 HD
HETATM   12  H           1     -21.808  -2.466  -7.396  0.00  0.00     0.275 HD
ENDBRANCH   5   9
ENDBRANCH   2   5
BRANCH   1  13
HETATM   13  C           1     -22.716  -4.300 -10.912  0.00  0.00     0.181 C 
HETATM   14  C           1     -23.806  -5.349 -10.729  0.00  0.00     0.043 C 
BRANCH  13  15
HETATM   15  C           1     -23.299  -3.079 -11.582  0.00  0.00     0.196 C 
HETATM   16  O           1     -24.534  -2.890 -11.569  0.00  0.00    -0.646 OA
HETATM   17  O           1     -22.545  -2.259 -12.148  0.00  0.00    -0.646 OA
ENDBRANCH  13  15
ENDBRANCH   1  13
TORSDOF 6
ENDMDL
MODEL 9
REMARK VINA RESULT:      -4.6     14.379     15.910
REMARK  6 active torsions:
REMARK  status: ('A' for Active; 'I' for Inactive)
REMARK    1  A    between atoms: C_2  and  C_3 
REMARK    2  A    between atoms: C_2  and  N_6 
REMARK       I    between atoms: N_6  and  C_7 
REMARK    3  A    between atoms: C_7  and  C_8 
REMARK    4  A    between atoms: C_8  and  C_9 
REMARK    5  A    between atoms: C_8  and  N_11 
REMARK    6  A    between atoms: C_9  and  Se_10 
ROOT
HETATM    1  N           1     -21.707  -5.384  -7.281  0.00  0.00    -0.345 N 
HETATM    2  C           1     -21.613  -4.876  -8.548  0.00  0.00     0.249 C 
HETATM    3  O           1     -20.529  -4.727  -9.061  0.00  0.00    -0.271 OA
HETATM    4  H           1     -22.615  -5.508  -6.851  0.00  0.00     0.163 HD
ENDROOT
BRANCH   2   5
HETATM    5  C           1     -22.864  -4.502  -9.306  0.00  0.00     0.274 C 
BRANCH   5   6
HETATM    6  C           1     -22.512  -3.517 -10.413  0.00  0.00     0.045 C 
BRANCH   6   7
HETATM    7 Se           1     -24.048  -3.284 -11.588  0.00  0.00     0.000 Se
HETATM    8  H           1     -23.276  -2.634 -12.660  0.00  0.00     0.000 HD
ENDBRANCH   6   7
ENDBRANCH   5   6
BRANCH   5   9
HETATM    9  N           1     -23.845  -3.868  -8.366  0.00  0.00    -0.067 N 
HETATM   10  H           1     -24.751  -4.388  -8.405  0.00  0.00     0.275 HD
HETATM   11  H           1     -23.467  -3.902  -7.392  0.00  0.00     0.275 HD
HETATM   12  H           1     -24.002  -2.873  -8.645  0.00  0.00     0.275 HD
ENDBRANCH   5   9
ENDBRANCH   2   5
BRANCH   1  13
HETATM   13  C           1     -20.505  -5.743  -6.552  0.00  0.00     0.181 C 
HETATM   14  C           1     -20.179  -4.651  -5.542  0.00  0.00     0.043 C 
BRANCH  13  15
HETATM   15  C           1     -20.728  -7.049  -5.829  0.00  0.00     0.196 C 
HETATM   16  O           1     -21.822  -7.274  -5.269  0.00  0.00    -0.646 OA
HETATM   17  O           1     -19.817  -7.904  -5.789  0.00  0.00    -0.646 OA
ENDBRANCH  13  15
ENDBRANCH   1  13
TORSDOF 6
ENDMDL
