MODEL 1
REMARK VINA RESULT:      -6.4      0.000      0.000
REMARK  10 active torsions:
REMARK  status: ('A' for Active; 'I' for Inactive)
REMARK    1  A    between atoms: C_2  and  C_14 
REMARK    2  A    between atoms: C_2  and  C_3 
REMARK    3  A    between atoms: C_3  and  C_13 
REMARK    4  A    between atoms: C_5  and  C_20 
REMARK    5  A    between atoms: C_5  and  C_6 
REMARK    6  A    between atoms: C_5  and  N_9 
REMARK    7  A    between atoms: C_6  and  C_7 
REMARK    8  A    between atoms: C_7  and  S_15 
REMARK    9  A    between atoms: N_11  and  C_13 
REMARK       I    between atoms: N_11  and  C_20 
REMARK   10  A    between atoms: C_13  and  C_19 
ROOT
HETATM    1  O           1     -33.903  -1.801 -11.174  0.00  0.00    -0.271 OA
HETATM    2  H           1     -35.416  -1.926 -13.920  0.00  0.00     0.163 HD
HETATM    3  N           1     -35.049  -1.517 -13.070  0.00  0.00    -0.345 N 
HETATM    4  C           1     -34.342  -2.290 -12.189  0.00  0.00     0.249 C 
ENDROOT
BRANCH   3   5
HETATM    5  C           1     -35.271  -0.113 -12.787  0.00  0.00     0.186 C 
BRANCH   5   6
HETATM    6  C           1     -35.454   0.645 -14.095  0.00  0.00     0.046 C 
BRANCH   6   7
HETATM    7  C           1     -35.577  -0.346 -15.245  0.00  0.00     0.116 C 
BRANCH   7   8
HETATM    8  C           1     -36.938  -0.212 -15.883  0.00  0.00     0.172 C 
HETATM    9  O           1     -37.443   0.919 -16.047  0.00  0.00    -0.648 OA
HETATM   10  O           1     -37.559  -1.234 -16.248  0.00  0.00    -0.648 OA
ENDBRANCH   7   8
ENDBRANCH   6   7
ENDBRANCH   5   6
BRANCH   5  11
HETATM   11  C           1     -36.509   0.040 -11.938  0.00  0.00     0.196 C 
HETATM   12  O           1     -36.428   0.553 -10.802  0.00  0.00    -0.646 OA
HETATM   13  O           1     -37.616  -0.345 -12.373  0.00  0.00    -0.646 OA
ENDBRANCH   5  11
ENDBRANCH   3   5
BRANCH   4  14
HETATM   14  C           1     -34.111  -3.752 -12.482  0.00  0.00     0.275 C 
BRANCH  14  15
HETATM   15  C           1     -32.971  -4.271 -11.618  0.00  0.00     0.053 C 
BRANCH  15  16
HETATM   16  C           1     -33.225  -5.730 -11.263  0.00  0.00     0.076 C 
BRANCH  16  17
HETATM   17  S           1     -34.708  -5.851 -10.223  0.00  0.00    -0.173 SA
HETATM   18  C           1     -34.691  -7.658 -10.063  0.00  0.00     0.089 C 
ENDBRANCH  16  17
ENDBRANCH  15  16
ENDBRANCH  14  15
BRANCH  14  19
HETATM   19  N           1     -33.757  -3.920 -13.930  0.00  0.00    -0.066 N 
HETATM   20  H           1     -32.858  -3.426 -14.128  0.00  0.00     0.275 HD
HETATM   21  H           1     -34.515  -3.516 -14.524  0.00  0.00     0.275 HD
HETATM   22  H           1     -33.650  -4.938 -14.146  0.00  0.00     0.275 HD
ENDBRANCH  14  19
ENDBRANCH   4  14
TORSDOF 10
ENDMDL
MODEL 2
REMARK VINA RESULT:      -6.3     12.199     13.878
REMARK  10 active torsions:
REMARK  status: ('A' for Active; 'I' for Inactive)
REMARK    1  A    between atoms: C_2  and  C_14 
REMARK    2  A    between atoms: C_2  and  C_3 
REMARK    3  A    between atoms: C_3  and  C_13 
REMARK    4  A    between atoms: C_5  and  C_20 
REMARK    5  A    between atoms: C_5  and  C_6 
REMARK    6  A    between atoms: C_5  and  N_9 
REMARK    7  A    between atoms: C_6  and  C_7 
REMARK    8  A    between atoms: C_7  and  S_15 
REMARK    9  A    between atoms: N_11  and  C_13 
REMARK       I    between atoms: N_11  and  C_20 
REMARK   10  A    between atoms: C_13  and  C_19 
ROOT
HETATM    1  O           1     -21.628  -3.571  -7.367  0.00  0.00    -0.271 OA
HETATM    2  H           1     -22.311  -5.850  -9.412  0.00  0.00     0.163 HD
HETATM    3  N           1     -22.259  -4.911  -9.039  0.00  0.00    -0.345 N 
HETATM    4  C           1     -21.690  -4.692  -7.813  0.00  0.00     0.249 C 
ENDROOT
BRANCH   3   5
HETATM    5  C           1     -22.786  -3.798  -9.802  0.00  0.00     0.186 C 
BRANCH   5   6
HETATM    6  C           1     -22.344  -3.923 -11.254  0.00  0.00     0.046 C 
BRANCH   6   7
HETATM    7  C           1     -22.516  -2.583 -11.956  0.00  0.00     0.116 C 
BRANCH   7   8
HETATM    8  C           1     -23.368  -2.765 -13.188  0.00  0.00     0.172 C 
HETATM    9  O           1     -22.831  -2.853 -14.312  0.00  0.00    -0.648 OA
HETATM   10  O           1     -24.612  -2.827 -13.083  0.00  0.00    -0.648 OA
ENDBRANCH   7   8
ENDBRANCH   6   7
ENDBRANCH   5   6
BRANCH   5  11
HETATM   11  C           1     -24.294  -3.809  -9.733  0.00  0.00     0.196 C 
HETATM   12  O           1     -24.920  -4.875  -9.918  0.00  0.00    -0.646 OA
HETATM   13  O           1     -24.916  -2.752  -9.489  0.00  0.00    -0.646 OA
ENDBRANCH   5  11
ENDBRANCH   3   5
BRANCH   4  14
HETATM   14  C           1     -21.141  -5.851  -7.018  0.00  0.00     0.275 C 
BRANCH  14  15
HETATM   15  C           1     -21.220  -5.531  -5.531  0.00  0.00     0.053 C 
BRANCH  15  16
HETATM   16  C           1     -22.139  -6.531  -4.844  0.00  0.00     0.076 C 
BRANCH  16  17
HETATM   17  S           1     -21.281  -7.267  -3.424  0.00  0.00    -0.173 SA
HETATM   18  C           1     -22.067  -6.232  -2.158  0.00  0.00     0.089 C 
ENDBRANCH  16  17
ENDBRANCH  15  16
ENDBRANCH  14  15
BRANCH  14  19
HETATM   19  N           1     -19.711  -6.087  -7.402  0.00  0.00    -0.066 N 
HETATM   20  H           1     -19.159  -6.339  -6.552  0.00  0.00     0.275 HD
HETATM   21  H           1     -19.315  -5.219  -7.828  0.00  0.00     0.275 HD
HETATM   22  H           1     -19.661  -6.869  -8.095  0.00  0.00     0.275 HD
ENDBRANCH  14  19
ENDBRANCH   4  14
TORSDOF 10
ENDMDL
MODEL 3
REMARK VINA RESULT:      -5.9      1.926      3.012
REMARK  10 active torsions:
REMARK  status: ('A' for Active; 'I' for Inactive)
REMARK    1  A    between atoms: C_2  and  C_14 
REMARK    2  A    between atoms: C_2  and  C_3 
REMARK    3  A    between atoms: C_3  and  C_13 
REMARK    4  A    between atoms: C_5  and  C_20 
REMARK    5  A    between atoms: C_5  and  C_6 
REMARK    6  A    between atoms: C_5  and  N_9 
REMARK    7  A    between atoms: C_6  and  C_7 
REMARK    8  A    between atoms: C_7  and  S_15 
REMARK    9  A    between atoms: N_11  and  C_13 
REMARK       I    between atoms: N_11  and  C_20 
REMARK   10  A    between atoms: C_13  and  C_19 
ROOT
HETATM    1  O           1     -35.266   0.496 -12.077  0.00  0.00    -0.271 OA
HETATM    2  H           1     -35.261  -1.919 -14.079  0.00  0.00     0.163 HD
HETATM    3  N           1     -35.370  -0.964 -13.764  0.00  0.00    -0.345 N 
HETATM    4  C           1     -35.136  -0.645 -12.453  0.00  0.00     0.249 C 
ENDROOT
BRANCH   3   5
HETATM    5  C           1     -35.771   0.067 -14.700  0.00  0.00     0.186 C 
BRANCH   5   6
HETATM    6  C           1     -35.043  -0.137 -16.022  0.00  0.00     0.046 C 
BRANCH   6   7
HETATM    7  C           1     -35.590  -1.376 -16.718  0.00  0.00     0.116 C 
BRANCH   7   8
HETATM    8  C           1     -34.583  -2.495 -16.619  0.00  0.00     0.172 C 
HETATM    9  O           1     -34.653  -3.318 -15.681  0.00  0.00    -0.648 OA
HETATM   10  O           1     -33.679  -2.600 -17.476  0.00  0.00    -0.648 OA
ENDBRANCH   7   8
ENDBRANCH   6   7
ENDBRANCH   5   6
BRANCH   5  11
HETATM   11  C           1     -37.261  -0.013 -14.928  0.00  0.00     0.196 C 
HETATM   12  O           1     -37.796   0.687 -15.814  0.00  0.00    -0.646 OA
HETATM   13  O           1     -37.960  -0.781 -14.232  0.00  0.00    -0.646 OA
ENDBRANCH   5  11
ENDBRANCH   3   5
BRANCH   4  14
HETATM   14  C           1     -34.718  -1.717 -11.478  0.00  0.00     0.275 C 
BRANCH  14  15
HETATM   15  C           1     -34.104  -2.886 -12.237  0.00  0.00     0.053 C 
BRANCH  15  16
HETATM   16  C           1     -33.110  -3.609 -11.339  0.00  0.00     0.076 C 
BRANCH  16  17
HETATM   17  S           1     -33.768  -5.241 -10.895  0.00  0.00    -0.173 SA
HETATM   18  C           1     -34.878  -5.403 -12.322  0.00  0.00     0.089 C 
ENDBRANCH  16  17
ENDBRANCH  15  16
ENDBRANCH  14  15
BRANCH  14  19
HETATM   19  N           1     -35.919  -2.194 -10.715  0.00  0.00    -0.066 N 
HETATM   20  H           1     -35.774  -3.187 -10.423  0.00  0.00     0.275 HD
HETATM   21  H           1     -36.766  -2.131 -11.323  0.00  0.00     0.275 HD
HETATM   22  H           1     -36.052  -1.596  -9.868  0.00  0.00     0.275 HD
ENDBRANCH  14  19
ENDBRANCH   4  14
TORSDOF 10
ENDMDL
MODEL 4
REMARK VINA RESULT:      -5.7     13.066     15.268
REMARK  10 active torsions:
REMARK  status: ('A' for Active; 'I' for Inactive)
REMARK    1  A    between atoms: C_2  and  C_14 
REMARK    2  A    between atoms: C_2  and  C_3 
REMARK    3  A    between atoms: C_3  and  C_13 
REMARK    4  A    between atoms: C_5  and  C_20 
REMARK    5  A    between atoms: C_5  and  C_6 
REMARK    6  A    between atoms: C_5  and  N_9 
REMARK    7  A    between atoms: C_6  and  C_7 
REMARK    8  A    between atoms: C_7  and  S_15 
REMARK    9  A    between atoms: N_11  and  C_13 
REMARK       I    between atoms: N_11  and  C_20 
REMARK   10  A    between atoms: C_13  and  C_19 
ROOT
HETATM    1  O           1     -21.218  -7.093  -6.929  0.00  0.00    -0.271 OA
HETATM    2  H           1     -21.770  -4.053  -6.385  0.00  0.00     0.163 HD
HETATM    3  N           1     -21.629  -4.897  -6.924  0.00  0.00    -0.345 N 
HETATM    4  C           1     -21.385  -6.084  -6.286  0.00  0.00     0.249 C 
ENDROOT
BRANCH   3   5
HETATM    5  C           1     -21.688  -4.852  -8.371  0.00  0.00     0.186 C 
BRANCH   5   6
HETATM    6  C           1     -22.734  -3.834  -8.805  0.00  0.00     0.046 C 
BRANCH   6   7
HETATM    7  C           1     -23.467  -4.350 -10.035  0.00  0.00     0.116 C 
BRANCH   7   8
HETATM    8  C           1     -24.572  -3.390 -10.404  0.00  0.00     0.172 C 
HETATM    9  O           1     -25.207  -2.795  -9.508  0.00  0.00    -0.648 OA
HETATM   10  O           1     -24.851  -3.191 -11.606  0.00  0.00    -0.648 OA
ENDBRANCH   7   8
ENDBRANCH   6   7
ENDBRANCH   5   6
BRANCH   5  11
HETATM   11  C           1     -20.339  -4.451  -8.917  0.00  0.00     0.196 C 
HETATM   12  O           1     -19.526  -3.842  -8.188  0.00  0.00    -0.646 OA
HETATM   13  O           1     -20.034  -4.730 -10.097  0.00  0.00    -0.646 OA
ENDBRANCH   5  11
ENDBRANCH   3   5
BRANCH   4  14
HETATM   14  C           1     -21.324  -6.132  -4.779  0.00  0.00     0.275 C 
BRANCH  14  15
HETATM   15  C           1     -20.551  -7.368  -4.340  0.00  0.00     0.053 C 
BRANCH  15  16
HETATM   16  C           1     -21.394  -8.175  -3.362  0.00  0.00     0.076 C 
BRANCH  16  17
HETATM   17  S           1     -20.646  -8.096  -1.710  0.00  0.00    -0.173 SA
HETATM   18  C           1     -22.058  -7.305  -0.889  0.00  0.00     0.089 C 
ENDBRANCH  16  17
ENDBRANCH  15  16
ENDBRANCH  14  15
BRANCH  14  19
HETATM   19  N           1     -22.717  -6.192  -4.225  0.00  0.00    -0.066 N 
HETATM   20  H           1     -23.262  -6.927  -4.730  0.00  0.00     0.275 HD
HETATM   21  H           1     -23.183  -5.266  -4.350  0.00  0.00     0.275 HD
HETATM   22  H           1     -22.676  -6.427  -3.206  0.00  0.00     0.275 HD
ENDBRANCH  14  19
ENDBRANCH   4  14
TORSDOF 10
ENDMDL
MODEL 5
REMARK VINA RESULT:      -5.7     12.198     14.367
REMARK  10 active torsions:
REMARK  status: ('A' for Active; 'I' for Inactive)
REMARK    1  A    between atoms: C_2  and  C_14 
REMARK    2  A    between atoms: C_2  and  C_3 
REMARK    3  A    between atoms: C_3  and  C_13 
REMARK    4  A    between atoms: C_5  and  C_20 
REMARK    5  A    between atoms: C_5  and  C_6 
REMARK    6  A    between atoms: C_5  and  N_9 
REMARK    7  A    between atoms: C_6  and  C_7 
REMARK    8  A    between atoms: C_7  and  S_15 
REMARK    9  A    between atoms: N_11  and  C_13 
REMARK       I    between atoms: N_11  and  C_20 
REMARK   10  A    between atoms: C_13  and  C_19 
ROOT
HETATM    1  O           1     -20.029  -5.073  -8.664  0.00  0.00    -0.271 OA
HETATM    2  H           1     -22.764  -3.567  -8.971  0.00  0.00     0.163 HD
HETATM    3  N           1     -21.935  -4.070  -9.258  0.00  0.00    -0.345 N 
HETATM    4  C           1     -21.020  -4.472  -8.322  0.00  0.00     0.249 C 
ENDROOT
BRANCH   3   5
HETATM    5  C           1     -21.715  -4.365 -10.660  0.00  0.00     0.186 C 
BRANCH   5   6
HETATM    6  C           1     -23.020  -4.831 -11.291  0.00  0.00     0.046 C 
BRANCH   6   7
HETATM    7  C           1     -24.146  -4.721 -10.272  0.00  0.00     0.116 C 
BRANCH   7   8
HETATM    8  C           1     -25.002  -3.521 -10.595  0.00  0.00     0.172 C 
HETATM    9  O           1     -25.025  -3.065 -11.758  0.00  0.00    -0.648 OA
HETATM   10  O           1     -25.687  -2.983  -9.698  0.00  0.00    -0.648 OA
ENDBRANCH   7   8
ENDBRANCH   6   7
ENDBRANCH   5   6
BRANCH   5  11
HETATM   11  C           1     -21.229  -3.122 -11.366  0.00  0.00     0.196 C 
HETATM   12  O           1     -22.001  -2.489 -12.117  0.00  0.00    -0.646 OA
HETATM   13  O           1     -20.056  -2.726 -11.197  0.00  0.00    -0.646 OA
ENDBRANCH   5  11
ENDBRANCH   3   5
BRANCH   4  14
HETATM   14  C           1     -21.248  -4.165  -6.862  0.00  0.00     0.275 C 
BRANCH  14  15
HETATM   15  C           1     -20.147  -4.805  -6.029  0.00  0.00     0.053 C 
BRANCH  15  16
HETATM   16  C           1     -20.767  -5.741  -5.001  0.00  0.00     0.076 C 
BRANCH  16  17
HETATM   17  S           1     -20.293  -7.453  -5.376  0.00  0.00    -0.173 SA
HETATM   18  C           1     -21.596  -8.242  -4.390  0.00  0.00     0.089 C 
ENDBRANCH  16  17
ENDBRANCH  15  16
ENDBRANCH  14  15
BRANCH  14  19
HETATM   19  N           1     -22.578  -4.714  -6.439  0.00  0.00    -0.066 N 
HETATM   20  H           1     -23.205  -3.929  -6.154  0.00  0.00     0.275 HD
HETATM   21  H           1     -22.446  -5.364  -5.631  0.00  0.00     0.275 HD
HETATM   22  H           1     -23.010  -5.234  -7.237  0.00  0.00     0.275 HD
ENDBRANCH  14  19
ENDBRANCH   4  14
TORSDOF 10
ENDMDL
MODEL 6
REMARK VINA RESULT:      -5.6      3.338      6.827
REMARK  10 active torsions:
REMARK  status: ('A' for Active; 'I' for Inactive)
REMARK    1  A    between atoms: C_2  and  C_14 
REMARK    2  A    between atoms: C_2  and  C_3 
REMARK    3  A    between atoms: C_3  and  C_13 
REMARK    4  A    between atoms: C_5  and  C_20 
REMARK    5  A    between atoms: C_5  and  C_6 
REMARK    6  A    between atoms: C_5  and  N_9 
REMARK    7  A    between atoms: C_6  and  C_7 
REMARK    8  A    between atoms: C_7  and  S_15 
REMARK    9  A    between atoms: N_11  and  C_13 
REMARK       I    between atoms: N_11  and  C_20 
REMARK   10  A    between atoms: C_13  and  C_19 
ROOT
HETATM    1  O           1     -34.598  -1.437  -9.943  0.00  0.00    -0.271 OA
HETATM    2  H           1     -36.031  -3.108 -12.179  0.00  0.00     0.163 HD
HETATM    3  N           1     -35.349  -2.891 -11.463  0.00  0.00    -0.345 N 
HETATM    4  C           1     -35.412  -1.696 -10.799  0.00  0.00     0.249 C 
ENDROOT
BRANCH   3   5
HETATM    5  C           1     -34.307  -3.846 -11.141  0.00  0.00     0.186 C 
BRANCH   5   6
HETATM    6  C           1     -34.935  -5.203 -10.851  0.00  0.00     0.046 C 
BRANCH   6   7
HETATM    7  C           1     -33.851  -6.273 -10.841  0.00  0.00     0.116 C 
BRANCH   7   8
HETATM    8  C           1     -34.358  -7.497 -10.120  0.00  0.00     0.172 C 
HETATM    9  O           1     -33.677  -8.544 -10.111  0.00  0.00    -0.648 OA
HETATM   10  O           1     -35.460  -7.463  -9.530  0.00  0.00    -0.648 OA
ENDBRANCH   7   8
ENDBRANCH   6   7
ENDBRANCH   5   6
BRANCH   5  11
HETATM   11  C           1     -33.359  -3.969 -12.309  0.00  0.00     0.196 C 
HETATM   12  O           1     -33.786  -3.845 -13.476  0.00  0.00    -0.646 OA
HETATM   13  O           1     -32.145  -4.192 -12.107  0.00  0.00    -0.646 OA
ENDBRANCH   5  11
ENDBRANCH   3   5
BRANCH   4  14
HETATM   14  C           1     -36.496  -0.701 -11.134  0.00  0.00     0.275 C 
BRANCH  14  15
HETATM   15  C           1     -36.438  -0.364 -12.617  0.00  0.00     0.053 C 
BRANCH  15  16
HETATM   16  C           1     -35.154   0.398 -12.915  0.00  0.00     0.076 C 
BRANCH  16  17
HETATM   17  S           1     -35.086   0.804 -14.683  0.00  0.00    -0.173 SA
HETATM   18  C           1     -36.753   0.211 -15.088  0.00  0.00     0.089 C 
ENDBRANCH  16  17
ENDBRANCH  15  16
ENDBRANCH  14  15
BRANCH  14  19
HETATM   19  N           1     -36.292   0.548 -10.330  0.00  0.00    -0.066 N 
HETATM   20  H           1     -35.988   1.323 -10.961  0.00  0.00     0.275 HD
HETATM   21  H           1     -35.558   0.382  -9.605  0.00  0.00     0.275 HD
HETATM   22  H           1     -37.190   0.812  -9.863  0.00  0.00     0.275 HD
ENDBRANCH  14  19
ENDBRANCH   4  14
TORSDOF 10
ENDMDL
MODEL 7
REMARK VINA RESULT:      -5.5     13.015     15.983
REMARK  10 active torsions:
REMARK  status: ('A' for Active; 'I' for Inactive)
REMARK    1  A    between atoms: C_2  and  C_14 
REMARK    2  A    between atoms: C_2  and  C_3 
REMARK    3  A    between atoms: C_3  and  C_13 
REMARK    4  A    between atoms: C_5  and  C_20 
REMARK    5  A    between atoms: C_5  and  C_6 
REMARK    6  A    between atoms: C_5  and  N_9 
REMARK    7  A    between atoms: C_6  and  C_7 
REMARK    8  A    between atoms: C_7  and  S_15 
REMARK    9  A    between atoms: N_11  and  C_13 
REMARK       I    between atoms: N_11  and  C_20 
REMARK   10  A    between atoms: C_13  and  C_19 
ROOT
HETATM    1  O           1     -21.684  -3.372  -8.710  0.00  0.00    -0.271 OA
HETATM    2  H           1     -22.785  -5.615  -6.812  0.00  0.00     0.163 HD
HETATM    3  N           1     -22.144  -4.914  -7.160  0.00  0.00    -0.345 N 
HETATM    4  C           1     -22.449  -4.210  -8.294  0.00  0.00     0.249 C 
ENDROOT
BRANCH   3   5
HETATM    5  C           1     -20.903  -4.655  -6.458  0.00  0.00     0.186 C 
BRANCH   5   6
HETATM    6  C           1     -20.931  -5.350  -5.104  0.00  0.00     0.046 C 
BRANCH   6   7
HETATM    7  C           1     -22.039  -6.395  -5.091  0.00  0.00     0.116 C 
BRANCH   7   8
HETATM    8  C           1     -21.443  -7.758  -4.839  0.00  0.00     0.172 C 
HETATM    9  O           1     -21.141  -8.103  -3.677  0.00  0.00    -0.648 OA
HETATM   10  O           1     -21.252  -8.543  -5.794  0.00  0.00    -0.648 OA
ENDBRANCH   7   8
ENDBRANCH   6   7
ENDBRANCH   5   6
BRANCH   5  11
HETATM   11  C           1     -19.745  -5.181  -7.271  0.00  0.00     0.196 C 
HETATM   12  O           1     -19.758  -6.360  -7.685  0.00  0.00    -0.646 OA
HETATM   13  O           1     -18.775  -4.437  -7.532  0.00  0.00    -0.646 OA
ENDBRANCH   5  11
ENDBRANCH   3   5
BRANCH   4  14
HETATM   14  C           1     -23.741  -4.480  -9.025  0.00  0.00     0.275 C 
BRANCH  14  15
HETATM   15  C           1     -23.446  -4.779 -10.489  0.00  0.00     0.053 C 
BRANCH  15  16
HETATM   16  C           1     -23.986  -3.651 -11.357  0.00  0.00     0.076 C 
BRANCH  16  17
HETATM   17  S           1     -22.601  -2.722 -12.075  0.00  0.00    -0.173 SA
HETATM   18  C           1     -23.132  -2.876 -13.803  0.00  0.00     0.089 C 
ENDBRANCH  16  17
ENDBRANCH  15  16
ENDBRANCH  14  15
BRANCH  14  19
HETATM   19  N           1     -24.629  -3.274  -8.932  0.00  0.00    -0.066 N 
HETATM   20  H           1     -24.411  -2.748  -8.056  0.00  0.00     0.275 HD
HETATM   21  H           1     -25.629  -3.577  -8.915  0.00  0.00     0.275 HD
HETATM   22  H           1     -24.465  -2.657  -9.760  0.00  0.00     0.275 HD
ENDBRANCH  14  19
ENDBRANCH   4  14
TORSDOF 10
ENDMDL
MODEL 8
REMARK VINA RESULT:      -5.4     12.035     14.233
REMARK  10 active torsions:
REMARK  status: ('A' for Active; 'I' for Inactive)
REMARK    1  A    between atoms: C_2  and  C_14 
REMARK    2  A    between atoms: C_2  and  C_3 
REMARK    3  A    between atoms: C_3  and  C_13 
REMARK    4  A    between atoms: C_5  and  C_20 
REMARK    5  A    between atoms: C_5  and  C_6 
REMARK    6  A    between atoms: C_5  and  N_9 
REMARK    7  A    between atoms: C_6  and  C_7 
REMARK    8  A    between atoms: C_7  and  S_15 
REMARK    9  A    between atoms: N_11  and  C_13 
REMARK       I    between atoms: N_11  and  C_20 
REMARK   10  A    between atoms: C_13  and  C_19 
ROOT
HETATM    1  O           1     -21.425  -3.497  -8.060  0.00  0.00    -0.271 OA
HETATM    2  H           1     -24.088  -5.090  -8.523  0.00  0.00     0.163 HD
HETATM    3  N           1     -23.325  -4.459  -8.733  0.00  0.00    -0.345 N 
HETATM    4  C           1     -22.336  -4.251  -7.810  0.00  0.00     0.249 C 
ENDROOT
BRANCH   3   5
HETATM    5  C           1     -23.281  -3.775 -10.010  0.00  0.00     0.186 C 
BRANCH   5   6
HETATM    6  C           1     -22.873  -4.760 -11.098  0.00  0.00     0.046 C 
BRANCH   6   7
HETATM    7  C           1     -21.865  -4.100 -12.029  0.00  0.00     0.116 C 
BRANCH   7   8
HETATM    8  C           1     -20.592  -3.812 -11.273  0.00  0.00     0.172 C 
HETATM    9  O           1     -20.181  -2.637 -11.165  0.00  0.00    -0.648 OA
HETATM   10  O           1     -19.949  -4.750 -10.754  0.00  0.00    -0.648 OA
ENDBRANCH   7   8
ENDBRANCH   6   7
ENDBRANCH   5   6
BRANCH   5  11
HETATM   11  C           1     -24.644  -3.211 -10.326  0.00  0.00     0.196 C 
HETATM   12  O           1     -25.365  -2.766  -9.408  0.00  0.00    -0.646 OA
HETATM   13  O           1     -25.051  -3.187 -11.508  0.00  0.00    -0.646 OA
ENDBRANCH   5  11
ENDBRANCH   3   5
BRANCH   4  14
HETATM   14  C           1     -22.382  -4.962  -6.480  0.00  0.00     0.275 C 
BRANCH  14  15
HETATM   15  C           1     -21.548  -6.233  -6.552  0.00  0.00     0.053 C 
BRANCH  15  16
HETATM   16  C           1     -21.734  -7.037  -5.273  0.00  0.00     0.076 C 
BRANCH  16  17
HETATM   17  S           1     -20.206  -7.942  -4.898  0.00  0.00    -0.173 SA
HETATM   18  C           1     -20.897  -9.604  -5.127  0.00  0.00     0.089 C 
ENDBRANCH  16  17
ENDBRANCH  15  16
ENDBRANCH  14  15
BRANCH  14  19
HETATM   19  N           1     -23.802  -5.315  -6.151  0.00  0.00    -0.066 N 
HETATM   20  H           1     -23.819  -6.175  -5.558  0.00  0.00     0.275 HD
HETATM   21  H           1     -24.331  -5.491  -7.034  0.00  0.00     0.275 HD
HETATM   22  H           1     -24.246  -4.524  -5.631  0.00  0.00     0.275 HD
ENDBRANCH  14  19
ENDBRANCH   4  14
TORSDOF 10
ENDMDL
MODEL 9
REMARK VINA RESULT:      -5.4     15.018     17.807
REMARK  10 active torsions:
REMARK  status: ('A' for Active; 'I' for Inactive)
REMARK    1  A    between atoms: C_2  and  C_14 
REMARK    2  A    between atoms: C_2  and  C_3 
REMARK    3  A    between atoms: C_3  and  C_13 
REMARK    4  A    between atoms: C_5  and  C_20 
REMARK    5  A    between atoms: C_5  and  C_6 
REMARK    6  A    between atoms: C_5  and  N_9 
REMARK    7  A    between atoms: C_6  and  C_7 
REMARK    8  A    between atoms: C_7  and  S_15 
REMARK    9  A    between atoms: N_11  and  C_13 
REMARK       I    between atoms: N_11  and  C_20 
REMARK   10  A    between atoms: C_13  and  C_19 
ROOT
HETATM    1  O           1     -19.733  -7.385  -5.953  0.00  0.00    -0.271 OA
HETATM    2  H           1     -22.505  -7.533  -4.492  0.00  0.00     0.163 HD
HETATM    3  N           1     -21.557  -7.794  -4.731  0.00  0.00    -0.345 N 
HETATM    4  C           1     -20.865  -7.074  -5.667  0.00  0.00     0.249 C 
ENDROOT
BRANCH   3   5
HETATM    5  C           1     -20.932  -8.929  -4.082  0.00  0.00     0.186 C 
BRANCH   5   6
HETATM    6  C           1     -21.321  -8.950  -2.610  0.00  0.00     0.046 C 
BRANCH   6   7
HETATM    7  C           1     -20.881  -7.650  -1.949  0.00  0.00     0.116 C 
BRANCH   7   8
HETATM    8  C           1     -22.088  -6.782  -1.694  0.00  0.00     0.172 C 
HETATM    9  O           1     -22.437  -5.931  -2.540  0.00  0.00    -0.648 OA
HETATM   10  O           1     -22.740  -6.913  -0.635  0.00  0.00    -0.648 OA
ENDBRANCH   7   8
ENDBRANCH   6   7
ENDBRANCH   5   6
BRANCH   5  11
HETATM   11  C           1     -21.395 -10.205  -4.743  0.00  0.00     0.196 C 
HETATM   12  O           1     -20.974 -10.507  -5.880  0.00  0.00    -0.646 OA
HETATM   13  O           1     -22.198 -10.959  -4.153  0.00  0.00    -0.646 OA
ENDBRANCH   5  11
ENDBRANCH   3   5
BRANCH   4  14
HETATM   14  C           1     -21.515  -5.893  -6.344  0.00  0.00     0.275 C 
BRANCH  14  15
HETATM   15  C           1     -20.599  -4.681  -6.244  0.00  0.00     0.053 C 
BRANCH  15  16
HETATM   16  C           1     -21.035  -3.629  -7.255  0.00  0.00     0.076 C 
BRANCH  16  17
HETATM   17  S           1     -21.352  -4.422  -8.856  0.00  0.00    -0.173 SA
HETATM   18  C           1     -23.021  -3.748  -9.086  0.00  0.00     0.089 C 
ENDBRANCH  16  17
ENDBRANCH  15  16
ENDBRANCH  14  15
BRANCH  14  19
HETATM   19  N           1     -22.820  -5.588  -5.670  0.00  0.00    -0.066 N 
HETATM   20  H           1     -23.592  -5.623  -6.373  0.00  0.00     0.275 HD
HETATM   21  H           1     -22.780  -4.634  -5.246  0.00  0.00     0.275 HD
HETATM   22  H           1     -22.999  -6.295  -4.920  0.00  0.00     0.275 HD
ENDBRANCH  14  19
ENDBRANCH   4  14
TORSDOF 10
ENDMDL
