MODEL 1
REMARK VINA RESULT:      -6.3      0.000      0.000
REMARK  9 active torsions:
REMARK  status: ('A' for Active; 'I' for Inactive)
REMARK    1  A    between atoms: N_1  and  C_6 
REMARK       I    between atoms: N_1  and  C_16 
REMARK    2  A    between atoms: C_3  and  C_16 
REMARK    3  A    between atoms: C_3  and  C_18 
REMARK    4  A    between atoms: C_3  and  N_14 
REMARK    5  A    between atoms: C_5  and  C_6 
REMARK    6  A    between atoms: C_6  and  C_15 
REMARK    7  A    between atoms: C_10  and  C_23 
REMARK    8  A    between atoms: C_10  and  C_15 
REMARK    9  A    between atoms: N_22  and  C_23 
ROOT
HETATM    1  N           1     -22.239  -4.872  -9.199  0.00  0.00    -0.345 N 
HETATM    2  H           1     -22.146  -5.789  -9.617  0.00  0.00     0.163 HD
HETATM    3  O           1     -21.939  -3.569  -7.410  0.00  0.00    -0.271 OA
HETATM    4  C           1     -21.829  -4.663  -7.909  0.00  0.00     0.249 C 
ENDROOT
BRANCH   1   5
HETATM    5  C           1     -22.802  -3.779  -9.966  0.00  0.00     0.185 C 
BRANCH   5   6
HETATM    6  C           1     -24.307  -3.805  -9.845  0.00  0.00     0.196 C 
HETATM    7  O           1     -24.927  -4.880  -9.986  0.00  0.00    -0.646 OA
HETATM    8  O           1     -24.931  -2.749  -9.603  0.00  0.00    -0.646 OA
ENDBRANCH   5   6
BRANCH   5   9
HETATM    9  C           1     -22.407  -3.930 -11.430  0.00  0.00     0.038 C 
BRANCH   9  10
HETATM   10  C           1     -22.615  -2.606 -12.152  0.00  0.00     0.030 C 
BRANCH  10  11
HETATM   11  C           1     -23.442  -2.837 -13.410  0.00  0.00     0.230 C 
BRANCH  11  12
HETATM   12  N           1     -22.527  -3.015 -14.585  0.00  0.00    -0.079 N 
HETATM   13  H           1     -22.412  -2.101 -15.078  0.00  0.00     0.274 HD
HETATM   14  H           1     -22.938  -3.715 -15.243  0.00  0.00     0.274 HD
HETATM   15  H           1     -21.596  -3.353 -14.253  0.00  0.00     0.274 HD
ENDBRANCH  11  12
ENDBRANCH  10  11
ENDBRANCH   9  10
ENDBRANCH   5   9
ENDBRANCH   1   5
BRANCH   4  16
HETATM   16  C           1     -21.242  -5.801  -7.111  0.00  0.00     0.278 C 
BRANCH  16  17
HETATM   17  C           1     -21.341  -5.483  -5.625  0.00  0.00     0.017 C 
HETATM   18  C           1     -20.044  -4.835  -5.158  0.00  0.00     0.012 C 
HETATM   19  C           1     -21.574  -6.769  -4.843  0.00  0.00     0.012 C 
ENDBRANCH  16  17
BRANCH  16  20
HETATM   20  N           1     -19.802  -5.984  -7.487  0.00  0.00    -0.066 N 
HETATM   21  H           1     -19.592  -5.427  -8.346  0.00  0.00     0.275 HD
HETATM   22  H           1     -19.193  -5.657  -6.704  0.00  0.00     0.275 HD
HETATM   23  H           1     -19.616  -6.995  -7.675  0.00  0.00     0.275 HD
ENDBRANCH  16  20
ENDBRANCH   4  16
TORSDOF 9
ENDMDL
MODEL 2
REMARK VINA RESULT:      -5.8      2.295      6.769
REMARK  9 active torsions:
REMARK  status: ('A' for Active; 'I' for Inactive)
REMARK    1  A    between atoms: N_1  and  C_6 
REMARK       I    between atoms: N_1  and  C_16 
REMARK    2  A    between atoms: C_3  and  C_16 
REMARK    3  A    between atoms: C_3  and  C_18 
REMARK    4  A    between atoms: C_3  and  N_14 
REMARK    5  A    between atoms: C_5  and  C_6 
REMARK    6  A    between atoms: C_6  and  C_15 
REMARK    7  A    between atoms: C_10  and  C_23 
REMARK    8  A    between atoms: C_10  and  C_15 
REMARK    9  A    between atoms: N_22  and  C_23 
ROOT
HETATM    1  N           1     -22.034  -5.441  -7.973  0.00  0.00    -0.345 N 
HETATM    2  H           1     -22.205  -6.373  -8.329  0.00  0.00     0.163 HD
HETATM    3  O           1     -22.327  -3.240  -8.211  0.00  0.00    -0.271 OA
HETATM    4  C           1     -22.532  -4.352  -8.636  0.00  0.00     0.249 C 
ENDROOT
BRANCH   1   5
HETATM    5  C           1     -21.263  -5.260  -6.759  0.00  0.00     0.185 C 
BRANCH   5   6
HETATM    6  C           1     -19.810  -5.560  -7.038  0.00  0.00     0.196 C 
HETATM    7  O           1     -19.411  -6.743  -7.073  0.00  0.00    -0.646 OA
HETATM    8  O           1     -19.006  -4.623  -7.235  0.00  0.00    -0.646 OA
ENDBRANCH   5   6
BRANCH   5   9
HETATM    9  C           1     -21.780  -6.207  -5.683  0.00  0.00     0.038 C 
BRANCH   9  10
HETATM   10  C           1     -21.196  -5.811  -4.334  0.00  0.00     0.030 C 
BRANCH  10  11
HETATM   11  C           1     -21.805  -6.681  -3.242  0.00  0.00     0.230 C 
BRANCH  11  12
HETATM   12  N           1     -22.226  -5.817  -2.091  0.00  0.00    -0.079 N 
HETATM   13  H           1     -23.269  -5.736  -2.080  0.00  0.00     0.274 HD
HETATM   14  H           1     -21.806  -4.866  -2.196  0.00  0.00     0.274 HD
HETATM   15  H           1     -21.900  -6.246  -1.196  0.00  0.00     0.274 HD
ENDBRANCH  11  12
ENDBRANCH  10  11
ENDBRANCH   9  10
ENDBRANCH   5   9
ENDBRANCH   1   5
BRANCH   4  16
HETATM   16  C           1     -23.335  -4.541  -9.900  0.00  0.00     0.278 C 
BRANCH  16  17
HETATM   17  C           1     -22.958  -3.463 -10.907  0.00  0.00     0.017 C 
HETATM   18  C           1     -24.142  -3.192 -11.827  0.00  0.00     0.012 C 
HETATM   19  C           1     -21.770  -3.934 -11.736  0.00  0.00     0.012 C 
ENDBRANCH  16  17
BRANCH  16  20
HETATM   20  N           1     -24.797  -4.438  -9.582  0.00  0.00    -0.066 N 
HETATM   21  H           1     -24.922  -4.301  -8.553  0.00  0.00     0.275 HD
HETATM   22  H           1     -25.208  -3.624 -10.093  0.00  0.00     0.275 HD
HETATM   23  H           1     -25.281  -5.315  -9.877  0.00  0.00     0.275 HD
ENDBRANCH  16  20
ENDBRANCH   4  16
TORSDOF 9
ENDMDL
MODEL 3
REMARK VINA RESULT:      -5.7      9.807     11.689
REMARK  9 active torsions:
REMARK  status: ('A' for Active; 'I' for Inactive)
REMARK    1  A    between atoms: N_1  and  C_6 
REMARK       I    between atoms: N_1  and  C_16 
REMARK    2  A    between atoms: C_3  and  C_16 
REMARK    3  A    between atoms: C_3  and  C_18 
REMARK    4  A    between atoms: C_3  and  N_14 
REMARK    5  A    between atoms: C_5  and  C_6 
REMARK    6  A    between atoms: C_6  and  C_15 
REMARK    7  A    between atoms: C_10  and  C_23 
REMARK    8  A    between atoms: C_10  and  C_15 
REMARK    9  A    between atoms: N_22  and  C_23 
ROOT
HETATM    1  N           1     -27.492  -7.253 -19.186  0.00  0.00    -0.345 N 
HETATM    2  H           1     -27.381  -8.180 -18.795  0.00  0.00     0.163 HD
HETATM    3  O           1     -28.494  -5.260 -19.078  0.00  0.00    -0.271 OA
HETATM    4  C           1     -28.361  -6.366 -18.610  0.00  0.00     0.249 C 
ENDROOT
BRANCH   1   5
HETATM    5  C           1     -26.730  -6.865 -20.357  0.00  0.00     0.185 C 
BRANCH   5   6
HETATM    6  C           1     -26.518  -8.070 -21.240  0.00  0.00     0.196 C 
HETATM    7  O           1     -25.410  -8.258 -21.786  0.00  0.00    -0.646 OA
HETATM    8  O           1     -27.452  -8.880 -21.425  0.00  0.00    -0.646 OA
ENDBRANCH   5   6
BRANCH   5   9
HETATM    9  C           1     -25.379  -6.309 -19.921  0.00  0.00     0.038 C 
BRANCH   9  10
HETATM   10  C           1     -24.685  -7.314 -19.012  0.00  0.00     0.030 C 
BRANCH  10  11
HETATM   11  C           1     -24.736  -6.816 -17.573  0.00  0.00     0.230 C 
BRANCH  11  12
HETATM   12  N           1     -24.140  -7.850 -16.665  0.00  0.00    -0.079 N 
HETATM   13  H           1     -23.100  -7.845 -16.765  0.00  0.00     0.274 HD
HETATM   14  H           1     -24.509  -8.794 -16.921  0.00  0.00     0.274 HD
HETATM   15  H           1     -24.397  -7.633 -15.675  0.00  0.00     0.274 HD
ENDBRANCH  11  12
ENDBRANCH  10  11
ENDBRANCH   9  10
ENDBRANCH   5   9
ENDBRANCH   1   5
BRANCH   4  16
HETATM   16  C           1     -29.154  -6.770 -17.392  0.00  0.00     0.278 C 
BRANCH  16  17
HETATM   17  C           1     -28.418  -6.323 -16.135  0.00  0.00     0.017 C 
HETATM   18  C           1     -27.710  -7.517 -15.511  0.00  0.00     0.012 C 
HETATM   19  C           1     -29.416  -5.748 -15.139  0.00  0.00     0.012 C 
ENDBRANCH  16  17
BRANCH  16  20
HETATM   20  N           1     -29.314  -8.261 -17.372  0.00  0.00    -0.066 N 
HETATM   21  H           1     -29.983  -8.531 -16.617  0.00  0.00     0.275 HD
HETATM   22  H           1     -29.684  -8.584 -18.295  0.00  0.00     0.275 HD
HETATM   23  H           1     -28.387  -8.709 -17.192  0.00  0.00     0.275 HD
ENDBRANCH  16  20
ENDBRANCH   4  16
TORSDOF 9
ENDMDL
MODEL 4
REMARK VINA RESULT:      -5.5      9.674     11.994
REMARK  9 active torsions:
REMARK  status: ('A' for Active; 'I' for Inactive)
REMARK    1  A    between atoms: N_1  and  C_6 
REMARK       I    between atoms: N_1  and  C_16 
REMARK    2  A    between atoms: C_3  and  C_16 
REMARK    3  A    between atoms: C_3  and  C_18 
REMARK    4  A    between atoms: C_3  and  N_14 
REMARK    5  A    between atoms: C_5  and  C_6 
REMARK    6  A    between atoms: C_6  and  C_15 
REMARK    7  A    between atoms: C_10  and  C_23 
REMARK    8  A    between atoms: C_10  and  C_15 
REMARK    9  A    between atoms: N_22  and  C_23 
ROOT
HETATM    1  N           1     -27.217  -6.811 -17.714  0.00  0.00    -0.345 N 
HETATM    2  H           1     -26.499  -7.337 -17.233  0.00  0.00     0.163 HD
HETATM    3  O           1     -27.832  -5.669 -19.532  0.00  0.00    -0.271 OA
HETATM    4  C           1     -26.973  -6.298 -18.959  0.00  0.00     0.249 C 
ENDROOT
BRANCH   1   5
HETATM    5  C           1     -28.506  -6.603 -17.083  0.00  0.00     0.185 C 
BRANCH   5   6
HETATM    6  C           1     -28.325  -6.522 -15.587  0.00  0.00     0.196 C 
HETATM    7  O           1     -28.665  -5.490 -14.971  0.00  0.00    -0.646 OA
HETATM    8  O           1     -27.836  -7.489 -14.964  0.00  0.00    -0.646 OA
ENDBRANCH   5   6
BRANCH   5   9
HETATM    9  C           1     -29.431  -7.766 -17.422  0.00  0.00     0.038 C 
BRANCH   9  10
HETATM   10  C           1     -30.672  -7.238 -18.128  0.00  0.00     0.030 C 
BRANCH  10  11
HETATM   11  C           1     -31.359  -6.205 -17.244  0.00  0.00     0.230 C 
BRANCH  11  12
HETATM   12  N           1     -32.826  -6.508 -17.169  0.00  0.00    -0.079 N 
HETATM   13  H           1     -33.209  -6.152 -16.264  0.00  0.00     0.274 HD
HETATM   14  H           1     -32.973  -7.541 -17.226  0.00  0.00     0.274 HD
HETATM   15  H           1     -33.319  -6.041 -17.963  0.00  0.00     0.274 HD
ENDBRANCH  11  12
ENDBRANCH  10  11
ENDBRANCH   9  10
ENDBRANCH   5   9
ENDBRANCH   1   5
BRANCH   4  16
HETATM   16  C           1     -25.632  -6.515 -19.615  0.00  0.00     0.278 C 
BRANCH  16  17
HETATM   17  C           1     -25.834  -7.147 -20.986  0.00  0.00     0.017 C 
HETATM   18  C           1     -26.893  -8.237 -20.890  0.00  0.00     0.012 C 
HETATM   19  C           1     -24.522  -7.756 -21.464  0.00  0.00     0.012 C 
ENDBRANCH  16  17
BRANCH  16  20
HETATM   20  N           1     -24.801  -7.427 -18.763  0.00  0.00    -0.066 N 
HETATM   21  H           1     -24.391  -8.183 -19.356  0.00  0.00     0.275 HD
HETATM   22  H           1     -24.031  -6.880 -18.315  0.00  0.00     0.275 HD
HETATM   23  H           1     -25.401  -7.854 -18.021  0.00  0.00     0.275 HD
ENDBRANCH  16  20
ENDBRANCH   4  16
TORSDOF 9
ENDMDL
MODEL 5
REMARK VINA RESULT:      -5.5     10.345     12.134
REMARK  9 active torsions:
REMARK  status: ('A' for Active; 'I' for Inactive)
REMARK    1  A    between atoms: N_1  and  C_6 
REMARK       I    between atoms: N_1  and  C_16 
REMARK    2  A    between atoms: C_3  and  C_16 
REMARK    3  A    between atoms: C_3  and  C_18 
REMARK    4  A    between atoms: C_3  and  N_14 
REMARK    5  A    between atoms: C_5  and  C_6 
REMARK    6  A    between atoms: C_6  and  C_15 
REMARK    7  A    between atoms: C_10  and  C_23 
REMARK    8  A    between atoms: C_10  and  C_15 
REMARK    9  A    between atoms: N_22  and  C_23 
ROOT
HETATM    1  N           1     -27.977  -6.943 -18.642  0.00  0.00    -0.345 N 
HETATM    2  H           1     -27.870  -7.273 -19.593  0.00  0.00     0.163 HD
HETATM    3  O           1     -27.023  -6.052 -16.830  0.00  0.00    -0.271 OA
HETATM    4  C           1     -26.896  -6.447 -17.965  0.00  0.00     0.249 C 
ENDROOT
BRANCH   1   5
HETATM    5  C           1     -29.275  -6.993 -17.999  0.00  0.00     0.185 C 
BRANCH   5   6
HETATM    6  C           1     -30.160  -7.971 -18.731  0.00  0.00     0.196 C 
HETATM    7  O           1     -29.655  -8.938 -19.340  0.00  0.00    -0.646 OA
HETATM    8  O           1     -31.401  -7.813 -18.728  0.00  0.00    -0.646 OA
ENDBRANCH   5   6
BRANCH   5   9
HETATM    9  C           1     -29.911  -5.609 -18.030  0.00  0.00     0.038 C 
BRANCH   9  10
HETATM   10  C           1     -30.564  -5.319 -16.686  0.00  0.00     0.030 C 
BRANCH  10  11
HETATM   11  C           1     -31.940  -4.705 -16.912  0.00  0.00     0.230 C 
BRANCH  11  12
HETATM   12  N           1     -32.978  -5.788 -16.910  0.00  0.00    -0.079 N 
HETATM   13  H           1     -32.575  -6.656 -17.329  0.00  0.00     0.274 HD
HETATM   14  H           1     -33.803  -5.481 -17.472  0.00  0.00     0.274 HD
HETATM   15  H           1     -33.278  -5.980 -15.927  0.00  0.00     0.274 HD
ENDBRANCH  11  12
ENDBRANCH  10  11
ENDBRANCH   9  10
ENDBRANCH   5   9
ENDBRANCH   1   5
BRANCH   4  16
HETATM   16  C           1     -25.544  -6.394 -18.635  0.00  0.00     0.278 C 
BRANCH  16  17
HETATM   17  C           1     -25.649  -6.984 -20.035  0.00  0.00     0.017 C 
HETATM   18  C           1     -24.424  -7.845 -20.314  0.00  0.00     0.012 C 
HETATM   19  C           1     -25.720  -5.857 -21.058  0.00  0.00     0.012 C 
ENDBRANCH  16  17
BRANCH  16  20
HETATM   20  N           1     -24.558  -7.186 -17.831  0.00  0.00    -0.066 N 
HETATM   21  H           1     -24.646  -8.200 -18.071  0.00  0.00     0.275 HD
HETATM   22  H           1     -23.589  -6.861 -18.050  0.00  0.00     0.275 HD
HETATM   23  H           1     -24.749  -7.052 -16.813  0.00  0.00     0.275 HD
ENDBRANCH  16  20
ENDBRANCH   4  16
TORSDOF 9
ENDMDL
MODEL 6
REMARK VINA RESULT:      -5.4      5.639      7.791
REMARK  9 active torsions:
REMARK  status: ('A' for Active; 'I' for Inactive)
REMARK    1  A    between atoms: N_1  and  C_6 
REMARK       I    between atoms: N_1  and  C_16 
REMARK    2  A    between atoms: C_3  and  C_16 
REMARK    3  A    between atoms: C_3  and  C_18 
REMARK    4  A    between atoms: C_3  and  N_14 
REMARK    5  A    between atoms: C_5  and  C_6 
REMARK    6  A    between atoms: C_6  and  C_15 
REMARK    7  A    between atoms: C_10  and  C_23 
REMARK    8  A    between atoms: C_10  and  C_15 
REMARK    9  A    between atoms: N_22  and  C_23 
ROOT
HETATM    1  N           1     -20.685  -7.946  -3.249  0.00  0.00    -0.345 N 
HETATM    2  H           1     -20.236  -7.045  -3.144  0.00  0.00     0.163 HD
HETATM    3  O           1     -21.892  -9.578  -2.318  0.00  0.00    -0.271 OA
HETATM    4  C           1     -21.356  -8.503  -2.193  0.00  0.00     0.249 C 
ENDROOT
BRANCH   1   5
HETATM    5  C           1     -20.620  -8.646  -4.516  0.00  0.00     0.185 C 
BRANCH   5   6
HETATM    6  C           1     -19.178  -8.931  -4.858  0.00  0.00     0.196 C 
HETATM    7  O           1     -18.802  -8.909  -6.049  0.00  0.00    -0.646 OA
HETATM    8  O           1     -18.360  -9.189  -3.948  0.00  0.00    -0.646 OA
ENDBRANCH   5   6
BRANCH   5   9
HETATM    9  C           1     -21.240  -7.780  -5.606  0.00  0.00     0.038 C 
BRANCH   9  10
HETATM   10  C           1     -21.272  -6.329  -5.147  0.00  0.00     0.030 C 
BRANCH  10  11
HETATM   11  C           1     -20.324  -5.503  -6.007  0.00  0.00     0.230 C 
BRANCH  11  12
HETATM   12  N           1     -19.962  -6.278  -7.239  0.00  0.00    -0.079 N 
HETATM   13  H           1     -20.345  -7.248  -7.165  0.00  0.00     0.274 HD
HETATM   14  H           1     -18.922  -6.321  -7.332  0.00  0.00     0.274 HD
HETATM   15  H           1     -20.368  -5.807  -8.079  0.00  0.00     0.274 HD
ENDBRANCH  11  12
ENDBRANCH  10  11
ENDBRANCH   9  10
ENDBRANCH   5   9
ENDBRANCH   1   5
BRANCH   4  16
HETATM   16  C           1     -21.424  -7.774  -0.873  0.00  0.00     0.278 C 
BRANCH  16  17
HETATM   17  C           1     -21.983  -8.706   0.194  0.00  0.00     0.017 C 
HETATM   18  C           1     -23.373  -8.236   0.600  0.00  0.00     0.012 C 
HETATM   19  C           1     -21.068  -8.693   1.411  0.00  0.00     0.012 C 
ENDBRANCH  16  17
BRANCH  16  20
HETATM   20  N           1     -22.319  -6.578  -1.010  0.00  0.00    -0.066 N 
HETATM   21  H           1     -22.953  -6.708  -1.830  0.00  0.00     0.275 HD
HETATM   22  H           1     -22.891  -6.470  -0.142  0.00  0.00     0.275 HD
HETATM   23  H           1     -21.737  -5.722  -1.152  0.00  0.00     0.275 HD
ENDBRANCH  16  20
ENDBRANCH   4  16
TORSDOF 9
ENDMDL
MODEL 7
REMARK VINA RESULT:      -5.3      3.785      7.475
REMARK  9 active torsions:
REMARK  status: ('A' for Active; 'I' for Inactive)
REMARK    1  A    between atoms: N_1  and  C_6 
REMARK       I    between atoms: N_1  and  C_16 
REMARK    2  A    between atoms: C_3  and  C_16 
REMARK    3  A    between atoms: C_3  and  C_18 
REMARK    4  A    between atoms: C_3  and  N_14 
REMARK    5  A    between atoms: C_5  and  C_6 
REMARK    6  A    between atoms: C_6  and  C_15 
REMARK    7  A    between atoms: C_10  and  C_23 
REMARK    8  A    between atoms: C_10  and  C_15 
REMARK    9  A    between atoms: N_22  and  C_23 
ROOT
HETATM    1  N           1     -20.719  -7.199  -6.031  0.00  0.00    -0.345 N 
HETATM    2  H           1     -20.726  -7.776  -6.862  0.00  0.00     0.163 HD
HETATM    3  O           1     -21.019  -5.179  -5.126  0.00  0.00    -0.271 OA
HETATM    4  C           1     -21.028  -5.868  -6.118  0.00  0.00     0.249 C 
ENDROOT
BRANCH   1   5
HETATM    5  C           1     -20.383  -7.782  -4.747  0.00  0.00     0.185 C 
BRANCH   5   6
HETATM    6  C           1     -19.270  -8.785  -4.927  0.00  0.00     0.196 C 
HETATM    7  O           1     -19.124  -9.366  -6.023  0.00  0.00    -0.646 OA
HETATM    8  O           1     -18.495  -9.035  -3.978  0.00  0.00    -0.646 OA
ENDBRANCH   5   6
BRANCH   5   9
HETATM    9  C           1     -21.609  -8.479  -4.170  0.00  0.00     0.038 C 
BRANCH   9  10
HETATM   10  C           1     -21.630  -8.303  -2.658  0.00  0.00     0.030 C 
BRANCH  10  11
HETATM   11  C           1     -21.186  -6.889  -2.305  0.00  0.00     0.230 C 
BRANCH  11  12
HETATM   12  N           1     -22.375  -5.975  -2.313  0.00  0.00    -0.079 N 
HETATM   13  H           1     -22.446  -5.489  -1.390  0.00  0.00     0.274 HD
HETATM   14  H           1     -23.243  -6.532  -2.480  0.00  0.00     0.274 HD
HETATM   15  H           1     -22.265  -5.266  -3.073  0.00  0.00     0.274 HD
ENDBRANCH  11  12
ENDBRANCH  10  11
ENDBRANCH   9  10
ENDBRANCH   5   9
ENDBRANCH   1   5
BRANCH   4  16
HETATM   16  C           1     -21.378  -5.261  -7.455  0.00  0.00     0.278 C 
BRANCH  16  17
HETATM   17  C           1     -20.123  -5.164  -8.313  0.00  0.00     0.017 C 
HETATM   18  C           1     -19.086  -4.307  -7.599  0.00  0.00     0.012 C 
HETATM   19  C           1     -20.470  -4.527  -9.652  0.00  0.00     0.012 C 
ENDBRANCH  16  17
BRANCH  16  20
HETATM   20  N           1     -21.947  -3.890  -7.247  0.00  0.00    -0.066 N 
HETATM   21  H           1     -22.911  -3.847  -7.648  0.00  0.00     0.275 HD
HETATM   22  H           1     -21.988  -3.681  -6.223  0.00  0.00     0.275 HD
HETATM   23  H           1     -21.341  -3.184  -7.722  0.00  0.00     0.275 HD
ENDBRANCH  16  20
ENDBRANCH   4  16
TORSDOF 9
ENDMDL
MODEL 8
REMARK VINA RESULT:      -5.2      3.666      7.431
REMARK  9 active torsions:
REMARK  status: ('A' for Active; 'I' for Inactive)
REMARK    1  A    between atoms: N_1  and  C_6 
REMARK       I    between atoms: N_1  and  C_16 
REMARK    2  A    between atoms: C_3  and  C_16 
REMARK    3  A    between atoms: C_3  and  C_18 
REMARK    4  A    between atoms: C_3  and  N_14 
REMARK    5  A    between atoms: C_5  and  C_6 
REMARK    6  A    between atoms: C_6  and  C_15 
REMARK    7  A    between atoms: C_10  and  C_23 
REMARK    8  A    between atoms: C_10  and  C_15 
REMARK    9  A    between atoms: N_22  and  C_23 
ROOT
HETATM    1  N           1     -20.960  -6.393  -4.941  0.00  0.00    -0.345 N 
HETATM    2  H           1     -19.950  -6.337  -4.937  0.00  0.00     0.163 HD
HETATM    3  O           1     -22.895  -5.635  -5.759  0.00  0.00    -0.271 OA
HETATM    4  C           1     -21.689  -5.568  -5.755  0.00  0.00     0.249 C 
ENDROOT
BRANCH   1   5
HETATM    5  C           1     -21.636  -7.348  -4.085  0.00  0.00     0.185 C 
BRANCH   5   6
HETATM    6  C           1     -21.615  -6.848  -2.661  0.00  0.00     0.196 C 
HETATM    7  O           1     -22.368  -5.914  -2.315  0.00  0.00    -0.646 OA
HETATM    8  O           1     -20.843  -7.370  -1.828  0.00  0.00    -0.646 OA
ENDBRANCH   5   6
BRANCH   5   9
HETATM    9  C           1     -20.923  -8.692  -4.163  0.00  0.00     0.038 C 
BRANCH   9  10
HETATM   10  C           1     -19.620  -8.533  -4.936  0.00  0.00     0.030 C 
BRANCH  10  11
HETATM   11  C           1     -18.520  -9.328  -4.245  0.00  0.00     0.230 C 
BRANCH  11  12
HETATM   12  N           1     -18.682  -9.219  -2.758  0.00  0.00    -0.079 N 
HETATM   13  H           1     -18.424 -10.129  -2.312  0.00  0.00     0.274 HD
HETATM   14  H           1     -19.676  -8.990  -2.531  0.00  0.00     0.274 HD
HETATM   15  H           1     -18.058  -8.463  -2.394  0.00  0.00     0.274 HD
ENDBRANCH  11  12
ENDBRANCH  10  11
ENDBRANCH   9  10
ENDBRANCH   5   9
ENDBRANCH   1   5
BRANCH   4  16
HETATM   16  C           1     -20.986  -4.574  -6.647  0.00  0.00     0.278 C 
BRANCH  16  17
HETATM   17  C           1     -21.359  -4.841  -8.099  0.00  0.00     0.017 C 
HETATM   18  C           1     -20.108  -4.777  -8.964  0.00  0.00     0.012 C 
HETATM   19  C           1     -22.355  -3.788  -8.570  0.00  0.00     0.012 C 
ENDBRANCH  16  17
BRANCH  16  20
HETATM   20  N           1     -19.503  -4.716  -6.479  0.00  0.00    -0.066 N 
HETATM   21  H           1     -19.019  -3.931  -6.971  0.00  0.00     0.275 HD
HETATM   22  H           1     -19.263  -4.687  -5.462  0.00  0.00     0.275 HD
HETATM   23  H           1     -19.191  -5.626  -6.885  0.00  0.00     0.275 HD
ENDBRANCH  16  20
ENDBRANCH   4  16
TORSDOF 9
ENDMDL
MODEL 9
REMARK VINA RESULT:      -5.1      7.123     10.208
REMARK  9 active torsions:
REMARK  status: ('A' for Active; 'I' for Inactive)
REMARK    1  A    between atoms: N_1  and  C_6 
REMARK       I    between atoms: N_1  and  C_16 
REMARK    2  A    between atoms: C_3  and  C_16 
REMARK    3  A    between atoms: C_3  and  C_18 
REMARK    4  A    between atoms: C_3  and  N_14 
REMARK    5  A    between atoms: C_5  and  C_6 
REMARK    6  A    between atoms: C_6  and  C_15 
REMARK    7  A    between atoms: C_10  and  C_23 
REMARK    8  A    between atoms: C_10  and  C_15 
REMARK    9  A    between atoms: N_22  and  C_23 
ROOT
HETATM    1  N           1     -21.650  -9.690  -0.911  0.00  0.00    -0.345 N 
HETATM    2  H           1     -22.192  -9.956  -1.723  0.00  0.00     0.163 HD
HETATM    3  O           1     -20.659 -10.315   0.990  0.00  0.00    -0.271 OA
HETATM    4  C           1     -21.307 -10.632   0.021  0.00  0.00     0.249 C 
ENDROOT
BRANCH   1   5
HETATM    5  C           1     -21.235  -8.313  -0.736  0.00  0.00     0.185 C 
BRANCH   5   6
HETATM    6  C           1     -22.439  -7.464  -0.408  0.00  0.00     0.196 C 
HETATM    7  O           1     -22.610  -6.371  -0.988  0.00  0.00    -0.646 OA
HETATM    8  O           1     -23.265  -7.855   0.445  0.00  0.00    -0.646 OA
ENDBRANCH   5   6
BRANCH   5   9
HETATM    9  C           1     -20.592  -7.809  -2.023  0.00  0.00     0.038 C 
BRANCH   9  10
HETATM   10  C           1     -21.224  -8.512  -3.216  0.00  0.00     0.030 C 
BRANCH  10  11
HETATM   11  C           1     -21.394  -7.520  -4.359  0.00  0.00     0.230 C 
BRANCH  11  12
HETATM   12  N           1     -22.065  -6.280  -3.850  0.00  0.00    -0.079 N 
HETATM   13  H           1     -22.851  -6.022  -4.489  0.00  0.00     0.274 HD
HETATM   14  H           1     -21.374  -5.497  -3.816  0.00  0.00     0.274 HD
HETATM   15  H           1     -22.439  -6.456  -2.890  0.00  0.00     0.274 HD
ENDBRANCH  11  12
ENDBRANCH  10  11
ENDBRANCH   9  10
ENDBRANCH   5   9
ENDBRANCH   1   5
BRANCH   4  16
HETATM   16  C           1     -21.739 -12.067  -0.162  0.00  0.00     0.278 C 
BRANCH  16  17
HETATM   17  C           1     -23.181 -12.226   0.302  0.00  0.00     0.017 C 
HETATM   18  C           1     -23.257 -13.333   1.346  0.00  0.00     0.012 C 
HETATM   19  C           1     -24.061 -12.589  -0.887  0.00  0.00     0.012 C 
ENDBRANCH  16  17
BRANCH  16  20
HETATM   20  N           1     -20.851 -12.962   0.650  0.00  0.00    -0.066 N 
HETATM   21  H           1     -20.034 -12.416   1.004  0.00  0.00     0.275 HD
HETATM   22  H           1     -21.390 -13.346   1.459  0.00  0.00     0.275 HD
HETATM   23  H           1     -20.510 -13.750   0.053  0.00  0.00     0.275 HD
ENDBRANCH  16  20
ENDBRANCH   4  16
TORSDOF 9
ENDMDL
