MODEL 1
REMARK VINA RESULT:      -6.8      0.000      0.000
REMARK  9 active torsions:
REMARK  status: ('A' for Active; 'I' for Inactive)
REMARK    1  A    between atoms: C_1  and  C_10 
REMARK    2  A    between atoms: C_1  and  C_8 
REMARK    3  A    between atoms: C_1  and  N_21 
REMARK    4  A    between atoms: C_2  and  O_3 
REMARK    5  A    between atoms: N_6  and  C_18 
REMARK       I    between atoms: N_6  and  C_10 
REMARK    6  A    between atoms: C_8  and  C_23 
REMARK    7  A    between atoms: C_11  and  C_17 
REMARK    8  A    between atoms: C_17  and  C_18 
REMARK    9  A    between atoms: C_18  and  C_19 
ROOT
HETATM    1  N           1     -21.839  -4.784  -8.503  0.00  0.00    -0.344 N 
HETATM    2  C           1     -23.151  -4.527  -8.207  0.00  0.00     0.249 C 
HETATM    3  O           1     -23.500  -4.418  -7.056  0.00  0.00    -0.271 OA
HETATM    4  H           1     -21.546  -4.876  -9.468  0.00  0.00     0.163 HD
ENDROOT
BRANCH   1   5
HETATM    5  C           1     -20.869  -4.925  -7.435  0.00  0.00     0.189 C 
BRANCH   5   6
HETATM    6  C           1     -20.617  -6.404  -7.172  0.00  0.00     0.074 C 
BRANCH   6   7
HETATM    7  C           1     -20.942  -6.721  -5.745  0.00  0.00    -0.056 A 
HETATM    8  C           1     -21.004  -5.696  -4.801  0.00  0.00     0.010 A 
HETATM    9  C           1     -21.307  -5.991  -3.472  0.00  0.00     0.037 A 
HETATM   10  C           1     -21.548  -7.310  -3.087  0.00  0.00     0.065 A 
HETATM   11  C           1     -21.486  -8.335  -4.032  0.00  0.00     0.037 A 
HETATM   12  C           1     -21.183  -8.040  -5.361  0.00  0.00     0.010 A 
BRANCH  10  13
HETATM   13  O           1     -21.842  -7.597  -1.796  0.00  0.00    -0.361 OA
HETATM   14  H           1     -21.326  -6.998  -1.230  0.00  0.00     0.217 HD
ENDBRANCH  10  13
ENDBRANCH   6   7
ENDBRANCH   5   6
BRANCH   5  15
HETATM   15  C           1     -19.577  -4.257  -7.837  0.00  0.00     0.197 C 
HETATM   16  O           1     -19.550  -3.494  -8.826  0.00  0.00    -0.646 OA
HETATM   17  O           1     -18.534  -4.467  -7.181  0.00  0.00    -0.646 OA
ENDBRANCH   5  15
ENDBRANCH   1   5
BRANCH   2  18
HETATM   18  C           1     -24.160  -4.380  -9.320  0.00  0.00     0.275 C 
BRANCH  18  19
HETATM   19  C           1     -23.457  -4.515 -10.664  0.00  0.00     0.046 C 
BRANCH  19  20
HETATM   20  C           1     -23.373  -3.149 -11.333  0.00  0.00    -0.020 C 
HETATM   21  C           1     -24.173  -3.167 -12.628  0.00  0.00     0.009 C 
HETATM   22  C           1     -21.917  -2.824 -11.641  0.00  0.00     0.009 C 
ENDBRANCH  19  20
ENDBRANCH  18  19
BRANCH  18  23
HETATM   23  N           1     -24.810  -3.031  -9.229  0.00  0.00    -0.066 N 
HETATM   24  H           1     -25.242  -2.915  -8.284  0.00  0.00     0.275 HD
HETATM   25  H           1     -24.090  -2.288  -9.375  0.00  0.00     0.275 HD
HETATM   26  H           1     -25.548  -2.950  -9.962  0.00  0.00     0.275 HD
ENDBRANCH  18  23
ENDBRANCH   2  18
TORSDOF 9
ENDMDL
MODEL 2
REMARK VINA RESULT:      -6.6      2.413      7.197
REMARK  9 active torsions:
REMARK  status: ('A' for Active; 'I' for Inactive)
REMARK    1  A    between atoms: C_1  and  C_10 
REMARK    2  A    between atoms: C_1  and  C_8 
REMARK    3  A    between atoms: C_1  and  N_21 
REMARK    4  A    between atoms: C_2  and  O_3 
REMARK    5  A    between atoms: N_6  and  C_18 
REMARK       I    between atoms: N_6  and  C_10 
REMARK    6  A    between atoms: C_8  and  C_23 
REMARK    7  A    between atoms: C_11  and  C_17 
REMARK    8  A    between atoms: C_17  and  C_18 
REMARK    9  A    between atoms: C_18  and  C_19 
ROOT
HETATM    1  N           1     -21.614  -6.268  -5.633  0.00  0.00    -0.344 N 
HETATM    2  C           1     -21.008  -7.432  -5.241  0.00  0.00     0.249 C 
HETATM    3  O           1     -20.046  -7.845  -5.845  0.00  0.00    -0.271 OA
HETATM    4  H           1     -22.420  -5.922  -5.129  0.00  0.00     0.163 HD
ENDROOT
BRANCH   1   5
HETATM    5  C           1     -21.101  -5.532  -6.772  0.00  0.00     0.189 C 
BRANCH   5   6
HETATM    6  C           1     -22.153  -4.539  -7.249  0.00  0.00     0.074 C 
BRANCH   6   7
HETATM    7  C           1     -22.059  -4.386  -8.735  0.00  0.00    -0.056 A 
HETATM    8  C           1     -20.835  -4.075  -9.328  0.00  0.00     0.010 A 
HETATM    9  C           1     -20.748  -3.933 -10.712  0.00  0.00     0.037 A 
HETATM   10  C           1     -21.883  -4.101 -11.504  0.00  0.00     0.065 A 
HETATM   11  C           1     -23.107  -4.412 -10.911  0.00  0.00     0.037 A 
HETATM   12  C           1     -23.195  -4.555  -9.527  0.00  0.00     0.010 A 
BRANCH  10  13
HETATM   13  O           1     -21.798  -3.962 -12.849  0.00  0.00    -0.361 OA
HETATM   14  H           1     -22.461  -3.307 -13.126  0.00  0.00     0.217 HD
ENDBRANCH  10  13
ENDBRANCH   6   7
ENDBRANCH   5   6
BRANCH   5  15
HETATM   15  C           1     -19.851  -4.788  -6.368  0.00  0.00     0.197 C 
HETATM   16  O           1     -19.788  -4.233  -5.251  0.00  0.00    -0.646 OA
HETATM   17  O           1     -18.880  -4.727  -7.152  0.00  0.00    -0.646 OA
ENDBRANCH   5  15
ENDBRANCH   1   5
BRANCH   2  18
HETATM   18  C           1     -21.542  -8.198  -4.055  0.00  0.00     0.275 C 
BRANCH  18  19
HETATM   19  C           1     -20.551  -8.103  -2.902  0.00  0.00     0.046 C 
BRANCH  19  20
HETATM   20  C           1     -21.255  -7.542  -1.673  0.00  0.00    -0.020 C 
HETATM   21  C           1     -22.110  -8.629  -1.037  0.00  0.00     0.009 C 
HETATM   22  C           1     -22.144  -6.375  -2.086  0.00  0.00     0.009 C 
ENDBRANCH  19  20
ENDBRANCH  18  19
BRANCH  18  23
HETATM   23  N           1     -21.730  -9.636  -4.435  0.00  0.00    -0.066 N 
HETATM   24  H           1     -22.717  -9.789  -4.746  0.00  0.00     0.275 HD
HETATM   25  H           1     -21.079  -9.879  -5.216  0.00  0.00     0.275 HD
HETATM   26  H           1     -21.527 -10.244  -3.610  0.00  0.00     0.275 HD
ENDBRANCH  18  23
ENDBRANCH   2  18
TORSDOF 9
ENDMDL
MODEL 3
REMARK VINA RESULT:      -6.6     13.149     16.338
REMARK  9 active torsions:
REMARK  status: ('A' for Active; 'I' for Inactive)
REMARK    1  A    between atoms: C_1  and  C_10 
REMARK    2  A    between atoms: C_1  and  C_8 
REMARK    3  A    between atoms: C_1  and  N_21 
REMARK    4  A    between atoms: C_2  and  O_3 
REMARK    5  A    between atoms: N_6  and  C_18 
REMARK       I    between atoms: N_6  and  C_10 
REMARK    6  A    between atoms: C_8  and  C_23 
REMARK    7  A    between atoms: C_11  and  C_17 
REMARK    8  A    between atoms: C_17  and  C_18 
REMARK    9  A    between atoms: C_18  and  C_19 
ROOT
HETATM    1  N           1     -35.802  -1.858 -11.082  0.00  0.00    -0.344 N 
HETATM    2  C           1     -34.485  -2.231 -11.062  0.00  0.00     0.249 C 
HETATM    3  O           1     -33.637  -1.435 -10.738  0.00  0.00    -0.271 OA
HETATM    4  H           1     -36.513  -2.524 -11.355  0.00  0.00     0.163 HD
ENDROOT
BRANCH   1   5
HETATM    5  C           1     -36.178  -0.508 -10.713  0.00  0.00     0.189 C 
BRANCH   5   6
HETATM    6  C           1     -37.384  -0.074 -11.536  0.00  0.00     0.074 C 
BRANCH   6   7
HETATM    7  C           1     -37.027  -0.082 -12.989  0.00  0.00    -0.056 A 
HETATM    8  C           1     -35.704   0.118 -13.383  0.00  0.00     0.010 A 
HETATM    9  C           1     -35.370   0.110 -14.737  0.00  0.00     0.037 A 
HETATM   10  C           1     -36.359  -0.097 -15.698  0.00  0.00     0.065 A 
HETATM   11  C           1     -37.683  -0.298 -15.304  0.00  0.00     0.037 A 
HETATM   12  C           1     -38.016  -0.290 -13.950  0.00  0.00     0.010 A 
BRANCH  10  13
HETATM   13  O           1     -36.036  -0.104 -17.013  0.00  0.00    -0.361 OA
HETATM   14  H           1     -36.815  -0.402 -17.513  0.00  0.00     0.217 HD
ENDBRANCH  10  13
ENDBRANCH   6   7
ENDBRANCH   5   6
BRANCH   5  15
HETATM   15  C           1     -36.528  -0.467  -9.245  0.00  0.00     0.197 C 
HETATM   16  O           1     -35.731   0.038  -8.426  0.00  0.00    -0.646 OA
HETATM   17  O           1     -37.616  -0.938  -8.849  0.00  0.00    -0.646 OA
ENDBRANCH   5  15
ENDBRANCH   1   5
BRANCH   2  18
HETATM   18  C           1     -34.093  -3.638 -11.447  0.00  0.00     0.275 C 
BRANCH  18  19
HETATM   19  C           1     -34.357  -4.576 -10.276  0.00  0.00     0.046 C 
BRANCH  19  20
HETATM   20  C           1     -34.271  -6.019 -10.753  0.00  0.00    -0.020 C 
HETATM   21  C           1     -35.057  -6.175 -12.048  0.00  0.00     0.009 C 
HETATM   22  C           1     -34.857  -6.941  -9.691  0.00  0.00     0.009 C 
ENDBRANCH  19  20
ENDBRANCH  18  19
BRANCH  18  23
HETATM   23  N           1     -32.636  -3.672 -11.795  0.00  0.00    -0.066 N 
HETATM   24  H           1     -32.515  -3.455 -12.811  0.00  0.00     0.275 HD
HETATM   25  H           1     -32.125  -2.960 -11.226  0.00  0.00     0.275 HD
HETATM   26  H           1     -32.251  -4.621 -11.593  0.00  0.00     0.275 HD
ENDBRANCH  18  23
ENDBRANCH   2  18
TORSDOF 9
ENDMDL
MODEL 4
REMARK VINA RESULT:      -6.5      2.519      4.240
REMARK  9 active torsions:
REMARK  status: ('A' for Active; 'I' for Inactive)
REMARK    1  A    between atoms: C_1  and  C_10 
REMARK    2  A    between atoms: C_1  and  C_8 
REMARK    3  A    between atoms: C_1  and  N_21 
REMARK    4  A    between atoms: C_2  and  O_3 
REMARK    5  A    between atoms: N_6  and  C_18 
REMARK       I    between atoms: N_6  and  C_10 
REMARK    6  A    between atoms: C_8  and  C_23 
REMARK    7  A    between atoms: C_11  and  C_17 
REMARK    8  A    between atoms: C_17  and  C_18 
REMARK    9  A    between atoms: C_18  and  C_19 
ROOT
HETATM    1  N           1     -20.628  -5.263  -5.413  0.00  0.00    -0.344 N 
HETATM    2  C           1     -20.004  -5.565  -6.594  0.00  0.00     0.249 C 
HETATM    3  O           1     -19.726  -6.711  -6.854  0.00  0.00    -0.271 OA
HETATM    4  H           1     -20.861  -4.303  -5.194  0.00  0.00     0.163 HD
ENDROOT
BRANCH   1   5
HETATM    5  C           1     -20.956  -6.320  -4.477  0.00  0.00     0.189 C 
BRANCH   5   6
HETATM    6  C           1     -21.117  -5.729  -3.082  0.00  0.00     0.074 C 
BRANCH   6   7
HETATM    7  C           1     -21.298  -6.833  -2.088  0.00  0.00    -0.056 A 
HETATM    8  C           1     -20.428  -7.925  -2.094  0.00  0.00     0.010 A 
HETATM    9  C           1     -20.595  -8.954  -1.168  0.00  0.00     0.037 A 
HETATM   10  C           1     -21.631  -8.893  -0.236  0.00  0.00     0.065 A 
HETATM   11  C           1     -22.500  -7.801  -0.229  0.00  0.00     0.037 A 
HETATM   12  C           1     -22.333  -6.771  -1.155  0.00  0.00     0.010 A 
BRANCH  10  13
HETATM   13  O           1     -21.793  -9.892   0.664  0.00  0.00    -0.361 OA
HETATM   14  H           1     -22.674 -10.281   0.525  0.00  0.00     0.217 HD
ENDBRANCH  10  13
ENDBRANCH   6   7
ENDBRANCH   5   6
BRANCH   5  15
HETATM   15  C           1     -22.247  -6.981  -4.896  0.00  0.00     0.197 C 
HETATM   16  O           1     -23.282  -6.297  -5.037  0.00  0.00    -0.646 OA
HETATM   17  O           1     -22.279  -8.214  -5.102  0.00  0.00    -0.646 OA
ENDBRANCH   5  15
ENDBRANCH   1   5
BRANCH   2  18
HETATM   18  C           1     -19.663  -4.464  -7.569  0.00  0.00     0.275 C 
BRANCH  18  19
HETATM   19  C           1     -19.986  -4.923  -8.985  0.00  0.00     0.046 C 
BRANCH  19  20
HETATM   20  C           1     -20.897  -3.902  -9.654  0.00  0.00    -0.020 C 
HETATM   21  C           1     -22.348  -4.225  -9.329  0.00  0.00     0.009 C 
HETATM   22  C           1     -20.692  -3.951 -11.163  0.00  0.00     0.009 C 
ENDBRANCH  19  20
ENDBRANCH  18  19
BRANCH  18  23
HETATM   23  N           1     -18.201  -4.145  -7.470  0.00  0.00    -0.066 N 
HETATM   24  H           1     -17.675  -5.003  -7.189  0.00  0.00     0.275 HD
HETATM   25  H           1     -17.853  -3.812  -8.397  0.00  0.00     0.275 HD
HETATM   26  H           1     -18.055  -3.398  -6.754  0.00  0.00     0.275 HD
ENDBRANCH  18  23
ENDBRANCH   2  18
TORSDOF 9
ENDMDL
MODEL 5
REMARK VINA RESULT:      -6.5      2.475      3.872
REMARK  9 active torsions:
REMARK  status: ('A' for Active; 'I' for Inactive)
REMARK    1  A    between atoms: C_1  and  C_10 
REMARK    2  A    between atoms: C_1  and  C_8 
REMARK    3  A    between atoms: C_1  and  N_21 
REMARK    4  A    between atoms: C_2  and  O_3 
REMARK    5  A    between atoms: N_6  and  C_18 
REMARK       I    between atoms: N_6  and  C_10 
REMARK    6  A    between atoms: C_8  and  C_23 
REMARK    7  A    between atoms: C_11  and  C_17 
REMARK    8  A    between atoms: C_17  and  C_18 
REMARK    9  A    between atoms: C_18  and  C_19 
ROOT
HETATM    1  N           1     -20.234  -6.691  -6.117  0.00  0.00    -0.344 N 
HETATM    2  C           1     -20.333  -5.331  -5.991  0.00  0.00     0.249 C 
HETATM    3  O           1     -20.306  -4.824  -4.895  0.00  0.00    -0.271 OA
HETATM    4  H           1     -20.257  -7.117  -7.035  0.00  0.00     0.163 HD
ENDROOT
BRANCH   1   5
HETATM    5  C           1     -20.097  -7.521  -4.936  0.00  0.00     0.189 C 
BRANCH   5   6
HETATM    6  C           1     -21.446  -8.140  -4.593  0.00  0.00     0.074 C 
BRANCH   6   7
HETATM    7  C           1     -21.681  -8.041  -3.118  0.00  0.00    -0.056 A 
HETATM    8  C           1     -21.947  -6.801  -2.537  0.00  0.00     0.010 A 
HETATM    9  C           1     -22.166  -6.707  -1.163  0.00  0.00     0.037 A 
HETATM   10  C           1     -22.121  -7.854  -0.369  0.00  0.00     0.065 A 
HETATM   11  C           1     -21.856  -9.094  -0.951  0.00  0.00     0.037 A 
HETATM   12  C           1     -21.637  -9.187  -2.325  0.00  0.00     0.010 A 
BRANCH  10  13
HETATM   13  O           1     -22.334  -7.763   0.965  0.00  0.00    -0.361 OA
HETATM   14  H           1     -22.348  -6.821   1.204  0.00  0.00     0.217 HD
ENDBRANCH  10  13
ENDBRANCH   6   7
ENDBRANCH   5   6
BRANCH   5  15
HETATM   15  C           1     -19.094  -8.616  -5.205  0.00  0.00     0.197 C 
HETATM   16  O           1     -18.791  -9.422  -4.299  0.00  0.00    -0.646 OA
HETATM   17  O           1     -18.564  -8.716  -6.333  0.00  0.00    -0.646 OA
ENDBRANCH   5  15
ENDBRANCH   1   5
BRANCH   2  18
HETATM   18  C           1     -20.475  -4.468  -7.220  0.00  0.00     0.275 C 
BRANCH  18  19
HETATM   19  C           1     -21.523  -5.071  -8.146  0.00  0.00     0.046 C 
BRANCH  19  20
HETATM   20  C           1     -22.128  -3.974  -9.012  0.00  0.00    -0.020 C 
HETATM   21  C           1     -23.646  -4.033  -8.921  0.00  0.00     0.009 C 
HETATM   22  C           1     -21.698  -4.177 -10.460  0.00  0.00     0.009 C 
ENDBRANCH  19  20
ENDBRANCH  18  19
BRANCH  18  23
HETATM   23  N           1     -19.159  -4.397  -7.935  0.00  0.00    -0.066 N 
HETATM   24  H           1     -18.439  -4.927  -7.393  0.00  0.00     0.275 HD
HETATM   25  H           1     -19.257  -4.817  -8.886  0.00  0.00     0.275 HD
HETATM   26  H           1     -18.864  -3.399  -8.023  0.00  0.00     0.275 HD
ENDBRANCH  18  23
ENDBRANCH   2  18
TORSDOF 9
ENDMDL
MODEL 6
REMARK VINA RESULT:      -6.3      3.177      5.340
REMARK  9 active torsions:
REMARK  status: ('A' for Active; 'I' for Inactive)
REMARK    1  A    between atoms: C_1  and  C_10 
REMARK    2  A    between atoms: C_1  and  C_8 
REMARK    3  A    between atoms: C_1  and  N_21 
REMARK    4  A    between atoms: C_2  and  O_3 
REMARK    5  A    between atoms: N_6  and  C_18 
REMARK       I    between atoms: N_6  and  C_10 
REMARK    6  A    between atoms: C_8  and  C_23 
REMARK    7  A    between atoms: C_11  and  C_17 
REMARK    8  A    between atoms: C_17  and  C_18 
REMARK    9  A    between atoms: C_18  and  C_19 
ROOT
HETATM    1  N           1     -20.785  -7.974  -4.415  0.00  0.00    -0.344 N 
HETATM    2  C           1     -20.539  -7.250  -5.551  0.00  0.00     0.249 C 
HETATM    3  O           1     -19.568  -7.498  -6.227  0.00  0.00    -0.271 OA
HETATM    4  H           1     -21.597  -7.766  -3.848  0.00  0.00     0.163 HD
ENDROOT
BRANCH   1   5
HETATM    5  C           1     -19.881  -9.038  -4.024  0.00  0.00     0.189 C 
BRANCH   5   6
HETATM    6  C           1     -19.398  -8.795  -2.600  0.00  0.00     0.074 C 
BRANCH   6   7
HETATM    7  C           1     -20.569  -8.486  -1.720  0.00  0.00    -0.056 A 
HETATM    8  C           1     -21.051  -9.453  -0.837  0.00  0.00     0.010 A 
HETATM    9  C           1     -22.142  -9.166  -0.017  0.00  0.00     0.037 A 
HETATM   10  C           1     -22.751  -7.913  -0.079  0.00  0.00     0.065 A 
HETATM   11  C           1     -22.269  -6.946  -0.962  0.00  0.00     0.037 A 
HETATM   12  C           1     -21.178  -7.233  -1.782  0.00  0.00     0.010 A 
BRANCH  10  13
HETATM   13  O           1     -23.811  -7.635   0.717  0.00  0.00    -0.361 OA
HETATM   14  H           1     -24.431  -8.382   0.665  0.00  0.00     0.217 HD
ENDBRANCH  10  13
ENDBRANCH   6   7
ENDBRANCH   5   6
BRANCH   5  15
HETATM   15  C           1     -20.603 -10.361  -4.092  0.00  0.00     0.197 C 
HETATM   16  O           1     -21.820 -10.396  -4.375  0.00  0.00    -0.646 OA
HETATM   17  O           1     -19.984 -11.424  -3.866  0.00  0.00    -0.646 OA
ENDBRANCH   5  15
ENDBRANCH   1   5
BRANCH   2  18
HETATM   18  C           1     -21.480  -6.143  -5.959  0.00  0.00     0.275 C 
BRANCH  18  19
HETATM   19  C           1     -20.759  -4.804  -5.867  0.00  0.00     0.046 C 
BRANCH  19  20
HETATM   20  C           1     -20.692  -4.168  -7.249  0.00  0.00    -0.020 C 
HETATM   21  C           1     -21.681  -4.861  -8.176  0.00  0.00     0.009 C 
HETATM   22  C           1     -19.283  -4.316  -7.809  0.00  0.00     0.009 C 
ENDBRANCH  19  20
ENDBRANCH  18  19
BRANCH  18  23
HETATM   23  N           1     -22.667  -6.134  -5.042  0.00  0.00    -0.066 N 
HETATM   24  H           1     -22.348  -6.285  -4.058  0.00  0.00     0.275 HD
HETATM   25  H           1     -23.154  -5.213  -5.112  0.00  0.00     0.275 HD
HETATM   26  H           1     -23.324  -6.898  -5.316  0.00  0.00     0.275 HD
ENDBRANCH  18  23
ENDBRANCH   2  18
TORSDOF 9
ENDMDL
MODEL 7
REMARK VINA RESULT:      -6.2      4.238      6.840
REMARK  9 active torsions:
REMARK  status: ('A' for Active; 'I' for Inactive)
REMARK    1  A    between atoms: C_1  and  C_10 
REMARK    2  A    between atoms: C_1  and  C_8 
REMARK    3  A    between atoms: C_1  and  N_21 
REMARK    4  A    between atoms: C_2  and  O_3 
REMARK    5  A    between atoms: N_6  and  C_18 
REMARK       I    between atoms: N_6  and  C_10 
REMARK    6  A    between atoms: C_8  and  C_23 
REMARK    7  A    between atoms: C_11  and  C_17 
REMARK    8  A    between atoms: C_17  and  C_18 
REMARK    9  A    between atoms: C_18  and  C_19 
ROOT
HETATM    1  N           1     -20.806  -7.680  -2.745  0.00  0.00    -0.344 N 
HETATM    2  C           1     -20.991  -8.103  -4.034  0.00  0.00     0.249 C 
HETATM    3  O           1     -21.916  -8.832  -4.303  0.00  0.00    -0.271 OA
HETATM    4  H           1     -20.031  -7.070  -2.518  0.00  0.00     0.163 HD
ENDROOT
BRANCH   1   5
HETATM    5  C           1     -21.721  -8.107  -1.704  0.00  0.00     0.189 C 
BRANCH   5   6
HETATM    6  C           1     -20.942  -8.816  -0.604  0.00  0.00     0.074 C 
BRANCH   6   7
HETATM    7  C           1     -21.633 -10.094  -0.245  0.00  0.00    -0.056 A 
HETATM    8  C           1     -22.939 -10.326  -0.679  0.00  0.00     0.010 A 
HETATM    9  C           1     -23.583 -11.517  -0.346  0.00  0.00     0.037 A 
HETATM   10  C           1     -22.923 -12.476   0.421  0.00  0.00     0.065 A 
HETATM   11  C           1     -21.617 -12.245   0.854  0.00  0.00     0.037 A 
HETATM   12  C           1     -20.972 -11.054   0.521  0.00  0.00     0.010 A 
BRANCH  10  13
HETATM   13  O           1     -23.549 -13.633   0.745  0.00  0.00    -0.361 OA
HETATM   14  H           1     -22.974 -14.371   0.479  0.00  0.00     0.217 HD
ENDBRANCH  10  13
ENDBRANCH   6   7
ENDBRANCH   5   6
BRANCH   5  15
HETATM   15  C           1     -22.423  -6.902  -1.127  0.00  0.00     0.197 C 
HETATM   16  O           1     -22.413  -5.817  -1.746  0.00  0.00    -0.646 OA
HETATM   17  O           1     -23.015  -6.989  -0.029  0.00  0.00    -0.646 OA
ENDBRANCH   5  15
ENDBRANCH   1   5
BRANCH   2  18
HETATM   18  C           1     -20.039  -7.659  -5.117  0.00  0.00     0.275 C 
BRANCH  18  19
HETATM   19  C           1     -20.819  -6.965  -6.226  0.00  0.00     0.046 C 
BRANCH  19  20
HETATM   20  C           1     -21.250  -5.582  -5.754  0.00  0.00    -0.020 C 
HETATM   21  C           1     -22.126  -4.933  -6.817  0.00  0.00     0.009 C 
HETATM   22  C           1     -20.017  -4.720  -5.518  0.00  0.00     0.009 C 
ENDBRANCH  19  20
ENDBRANCH  18  19
BRANCH  18  23
HETATM   23  N           1     -19.329  -8.855  -5.679  0.00  0.00    -0.066 N 
HETATM   24  H           1     -18.403  -8.562  -6.065  0.00  0.00     0.275 HD
HETATM   25  H           1     -19.182  -9.560  -4.922  0.00  0.00     0.275 HD
HETATM   26  H           1     -19.907  -9.277  -6.440  0.00  0.00     0.275 HD
ENDBRANCH  18  23
ENDBRANCH   2  18
TORSDOF 9
ENDMDL
MODEL 8
REMARK VINA RESULT:      -6.1      6.448      8.377
REMARK  9 active torsions:
REMARK  status: ('A' for Active; 'I' for Inactive)
REMARK    1  A    between atoms: C_1  and  C_10 
REMARK    2  A    between atoms: C_1  and  C_8 
REMARK    3  A    between atoms: C_1  and  N_21 
REMARK    4  A    between atoms: C_2  and  O_3 
REMARK    5  A    between atoms: N_6  and  C_18 
REMARK       I    between atoms: N_6  and  C_10 
REMARK    6  A    between atoms: C_8  and  C_23 
REMARK    7  A    between atoms: C_11  and  C_17 
REMARK    8  A    between atoms: C_17  and  C_18 
REMARK    9  A    between atoms: C_18  and  C_19 
ROOT
HETATM    1  N           1     -20.401  -8.444  -2.693  0.00  0.00    -0.344 N 
HETATM    2  C           1     -20.306  -9.535  -3.515  0.00  0.00     0.249 C 
HETATM    3  O           1     -21.234 -10.302  -3.608  0.00  0.00    -0.271 OA
HETATM    4  H           1     -19.624  -7.801  -2.614  0.00  0.00     0.163 HD
ENDROOT
BRANCH   1   5
HETATM    5  C           1     -21.614  -8.211  -1.935  0.00  0.00     0.189 C 
BRANCH   5   6
HETATM    6  C           1     -21.361  -8.519  -0.465  0.00  0.00     0.074 C 
BRANCH   6   7
HETATM    7  C           1     -21.929  -9.863  -0.130  0.00  0.00    -0.056 A 
HETATM    8  C           1     -23.281 -10.123  -0.353  0.00  0.00     0.010 A 
HETATM    9  C           1     -23.811 -11.375  -0.042  0.00  0.00     0.037 A 
HETATM   10  C           1     -22.989 -12.367   0.492  0.00  0.00     0.065 A 
HETATM   11  C           1     -21.636 -12.107   0.714  0.00  0.00     0.037 A 
HETATM   12  C           1     -21.106 -10.855   0.403  0.00  0.00     0.010 A 
BRANCH  10  13
HETATM   13  O           1     -23.503 -13.583   0.795  0.00  0.00    -0.361 OA
HETATM   14  H           1     -22.808 -14.248   0.651  0.00  0.00     0.217 HD
ENDBRANCH  10  13
ENDBRANCH   6   7
ENDBRANCH   5   6
BRANCH   5  15
HETATM   15  C           1     -22.030  -6.767  -2.083  0.00  0.00     0.197 C 
HETATM   16  O           1     -21.944  -6.203  -3.194  0.00  0.00    -0.646 OA
HETATM   17  O           1     -22.460  -6.136  -1.093  0.00  0.00    -0.646 OA
ENDBRANCH   5  15
ENDBRANCH   1   5
BRANCH   2  18
HETATM   18  C           1     -19.043  -9.777  -4.304  0.00  0.00     0.275 C 
BRANCH  18  19
HETATM   19  C           1     -17.837  -9.355  -3.475  0.00  0.00     0.046 C 
BRANCH  19  20
HETATM   20  C           1     -16.699 -10.343  -3.694  0.00  0.00    -0.020 C 
HETATM   21  C           1     -15.883 -10.469  -2.414  0.00  0.00     0.009 C 
HETATM   22  C           1     -15.802  -9.843  -4.819  0.00  0.00     0.009 C 
ENDBRANCH  19  20
ENDBRANCH  18  19
BRANCH  18  23
HETATM   23  N           1     -19.084  -8.975  -5.571  0.00  0.00    -0.066 N 
HETATM   24  H           1     -20.006  -8.488  -5.645  0.00  0.00     0.275 HD
HETATM   25  H           1     -18.317  -8.266  -5.559  0.00  0.00     0.275 HD
HETATM   26  H           1     -18.958  -9.610  -6.390  0.00  0.00     0.275 HD
ENDBRANCH  18  23
ENDBRANCH   2  18
TORSDOF 9
ENDMDL
MODEL 9
REMARK VINA RESULT:      -5.9      4.503      6.298
REMARK  9 active torsions:
REMARK  status: ('A' for Active; 'I' for Inactive)
REMARK    1  A    between atoms: C_1  and  C_10 
REMARK    2  A    between atoms: C_1  and  C_8 
REMARK    3  A    between atoms: C_1  and  N_21 
REMARK    4  A    between atoms: C_2  and  O_3 
REMARK    5  A    between atoms: N_6  and  C_18 
REMARK       I    between atoms: N_6  and  C_10 
REMARK    6  A    between atoms: C_8  and  C_23 
REMARK    7  A    between atoms: C_11  and  C_17 
REMARK    8  A    between atoms: C_17  and  C_18 
REMARK    9  A    between atoms: C_18  and  C_19 
ROOT
HETATM    1  N           1     -20.332  -8.098  -4.831  0.00  0.00    -0.344 N 
HETATM    2  C           1     -20.319  -7.067  -5.732  0.00  0.00     0.249 C 
HETATM    3  O           1     -19.583  -7.111  -6.688  0.00  0.00    -0.271 OA
HETATM    4  H           1     -20.949  -8.061  -4.029  0.00  0.00     0.163 HD
ENDROOT
BRANCH   1   5
HETATM    5  C           1     -19.463  -9.241  -5.025  0.00  0.00     0.189 C 
BRANCH   5   6
HETATM    6  C           1     -18.525  -9.373  -3.831  0.00  0.00     0.074 C 
BRANCH   6   7
HETATM    7  C           1     -17.259 -10.046  -4.261  0.00  0.00    -0.056 A 
HETATM    8  C           1     -16.533 -10.812  -3.349  0.00  0.00     0.010 A 
HETATM    9  C           1     -15.353 -11.439  -3.748  0.00  0.00     0.037 A 
HETATM   10  C           1     -14.900 -11.303  -5.060  0.00  0.00     0.065 A 
HETATM   11  C           1     -15.628 -10.538  -5.973  0.00  0.00     0.037 A 
HETATM   12  C           1     -16.807  -9.910  -5.573  0.00  0.00     0.010 A 
BRANCH  10  13
HETATM   13  O           1     -13.755 -11.912  -5.449  0.00  0.00    -0.361 OA
HETATM   14  H           1     -13.963 -12.839  -5.658  0.00  0.00     0.217 HD
ENDBRANCH  10  13
ENDBRANCH   6   7
ENDBRANCH   5   6
BRANCH   5  15
HETATM   15  C           1     -20.298 -10.492  -5.150  0.00  0.00     0.197 C 
HETATM   16  O           1     -20.535 -10.974  -6.279  0.00  0.00    -0.646 OA
HETATM   17  O           1     -20.751 -11.046  -4.126  0.00  0.00    -0.646 OA
ENDBRANCH   5  15
ENDBRANCH   1   5
BRANCH   2  18
HETATM   18  C           1     -21.225  -5.877  -5.530  0.00  0.00     0.275 C 
BRANCH  18  19
HETATM   19  C           1     -20.436  -4.594  -5.756  0.00  0.00     0.046 C 
BRANCH  19  20
HETATM   20  C           1     -20.995  -3.860  -6.967  0.00  0.00    -0.020 C 
HETATM   21  C           1     -22.339  -4.464  -7.352  0.00  0.00     0.009 C 
HETATM   22  C           1     -20.026  -3.995  -8.135  0.00  0.00     0.009 C 
ENDBRANCH  19  20
ENDBRANCH  18  19
BRANCH  18  23
HETATM   23  N           1     -21.764  -5.892  -4.131  0.00  0.00    -0.066 N 
HETATM   24  H           1     -22.646  -5.331  -4.091  0.00  0.00     0.275 HD
HETATM   25  H           1     -21.966  -6.877  -3.847  0.00  0.00     0.275 HD
HETATM   26  H           1     -21.059  -5.479  -3.481  0.00  0.00     0.275 HD
ENDBRANCH  18  23
ENDBRANCH   2  18
TORSDOF 9
ENDMDL
