MODEL 1
REMARK VINA RESULT:      -8.3      0.000      0.000
REMARK  11 active torsions:
REMARK  status: ('A' for Active; 'I' for Inactive)
REMARK       I    between atoms: C_6  and  N_7 
REMARK    1  A    between atoms: C_6  and  C_28 
REMARK    2  A    between atoms: N_7  and  C_8 
REMARK    3  A    between atoms: C_8  and  C_15 
REMARK    4  A    between atoms: C_8  and  C_9 
REMARK    5  A    between atoms: C_12  and  C_28 
REMARK    6  A    between atoms: C_12  and  C_16 
REMARK    7  A    between atoms: N_14  and  C_22 
REMARK    8  A    between atoms: C_15  and  C_21 
REMARK    9  A    between atoms: C_20  and  C_22 
REMARK   10  A    between atoms: C_20  and  C_21 
REMARK   11  A    between atoms: N_27  and  C_28 
ROOT
HETATM    1  C           1     -21.579  -4.351  -7.580  0.00  0.00     0.249 C 
HETATM    2  N           1     -22.143  -4.729  -8.769  0.00  0.00    -0.345 N 
HETATM    3  H           1     -22.166  -5.705  -9.031  0.00  0.00     0.163 HD
HETATM    4  O           1     -21.551  -3.185  -7.268  0.00  0.00    -0.271 OA
ENDROOT
BRANCH   1   5
HETATM    5  C           1     -20.990  -5.393  -6.660  0.00  0.00     0.278 C 
BRANCH   5   6
HETATM    6  C           1     -22.058  -5.874  -5.687  0.00  0.00     0.083 C 
BRANCH   6   7
HETATM    7  C           1     -21.497  -6.961  -4.826  0.00  0.00    -0.028 A 
HETATM    8  C           1     -21.623  -7.061  -3.412  0.00  0.00    -0.002 A 
HETATM    9  C           1     -22.245  -6.272  -2.426  0.00  0.00     0.014 A 
HETATM   10  C           1     -20.953  -8.221  -3.021  0.00  0.00     0.042 A 
HETATM   11  C           1     -22.176  -6.671  -1.086  0.00  0.00     0.001 A 
HETATM   12  C           1     -21.500  -7.835  -0.724  0.00  0.00     0.002 A 
HETATM   13  C           1     -20.874  -8.634  -1.685  0.00  0.00     0.030 A 
HETATM   14  N           1     -20.442  -8.797  -4.162  0.00  0.00    -0.365 N 
HETATM   15  H           1     -19.885  -9.687  -4.188  0.00  0.00     0.165 HD
HETATM   16  C           1     -20.765  -8.044  -5.259  0.00  0.00     0.096 A 
ENDBRANCH   6   7
ENDBRANCH   5   6
BRANCH   5  17
HETATM   17  N           1     -19.848  -4.795  -5.894  0.00  0.00    -0.066 N 
HETATM   18  H           1     -19.475  -3.968  -6.412  0.00  0.00     0.275 HD
HETATM   19  H           1     -19.091  -5.507  -5.784  0.00  0.00     0.275 HD
HETATM   20  H           1     -20.182  -4.493  -4.952  0.00  0.00     0.275 HD
ENDBRANCH   5  17
ENDBRANCH   1   5
BRANCH   2  21
HETATM   21  C           1     -22.709  -3.727  -9.653  0.00  0.00     0.185 C 
BRANCH  21  22
HETATM   22  C           1     -22.195  -3.951 -11.069  0.00  0.00     0.036 C 
BRANCH  22  23
HETATM   23  C           1     -22.438  -2.699 -11.901  0.00  0.00     0.004 C 
BRANCH  23  24
HETATM   24  C           1     -23.657  -2.908 -12.789  0.00  0.00     0.027 C 
BRANCH  24  25
HETATM   25  C           1     -23.412  -2.268 -14.149  0.00  0.00     0.229 C 
BRANCH  25  26
HETATM   26  N           1     -22.365  -3.047 -14.888  0.00  0.00    -0.079 N 
HETATM   27  H           1     -21.984  -3.798 -14.268  0.00  0.00     0.274 HD
HETATM   28  H           1     -22.791  -3.482 -15.738  0.00  0.00     0.274 HD
HETATM   29  H           1     -21.591  -2.406 -15.174  0.00  0.00     0.274 HD
ENDBRANCH  25  26
ENDBRANCH  24  25
ENDBRANCH  23  24
ENDBRANCH  22  23
ENDBRANCH  21  22
BRANCH  21  30
HETATM   30  C           1     -24.214  -3.840  -9.641  0.00  0.00     0.196 C 
HETATM   31  O           1     -24.914  -2.831  -9.410  0.00  0.00    -0.646 OA
HETATM   32  O           1     -24.759  -4.942  -9.862  0.00  0.00    -0.646 OA
ENDBRANCH  21  30
ENDBRANCH   2  21
TORSDOF 11
ENDMDL
MODEL 2
REMARK VINA RESULT:      -8.1      2.910      8.655
REMARK  11 active torsions:
REMARK  status: ('A' for Active; 'I' for Inactive)
REMARK       I    between atoms: C_6  and  N_7 
REMARK    1  A    between atoms: C_6  and  C_28 
REMARK    2  A    between atoms: N_7  and  C_8 
REMARK    3  A    between atoms: C_8  and  C_15 
REMARK    4  A    between atoms: C_8  and  C_9 
REMARK    5  A    between atoms: C_12  and  C_28 
REMARK    6  A    between atoms: C_12  and  C_16 
REMARK    7  A    between atoms: N_14  and  C_22 
REMARK    8  A    between atoms: C_15  and  C_21 
REMARK    9  A    between atoms: C_20  and  C_22 
REMARK   10  A    between atoms: C_20  and  C_21 
REMARK   11  A    between atoms: N_27  and  C_28 
ROOT
HETATM    1  C           1     -20.288  -6.860  -5.838  0.00  0.00     0.249 C 
HETATM    2  N           1     -20.742  -7.529  -4.733  0.00  0.00    -0.345 N 
HETATM    3  H           1     -21.463  -7.120  -4.154  0.00  0.00     0.163 HD
HETATM    4  O           1     -19.426  -7.348  -6.529  0.00  0.00    -0.271 OA
ENDROOT
BRANCH   1   5
HETATM    5  C           1     -20.864  -5.510  -6.191  0.00  0.00     0.278 C 
BRANCH   5   6
HETATM    6  C           1     -20.678  -5.251  -7.680  0.00  0.00     0.083 C 
BRANCH   6   7
HETATM    7  C           1     -21.926  -4.646  -8.242  0.00  0.00    -0.028 A 
HETATM    8  C           1     -22.114  -4.204  -9.581  0.00  0.00    -0.002 A 
HETATM    9  C           1     -21.297  -4.175 -10.727  0.00  0.00     0.014 A 
HETATM   10  C           1     -23.416  -3.712  -9.672  0.00  0.00     0.042 A 
HETATM   11  C           1     -21.810  -3.656 -11.922  0.00  0.00     0.001 A 
HETATM   12  C           1     -23.116  -3.171 -11.983  0.00  0.00     0.002 A 
HETATM   13  C           1     -23.946  -3.189 -10.858  0.00  0.00     0.030 A 
HETATM   14  N           1     -23.990  -3.854  -8.429  0.00  0.00    -0.365 N 
HETATM   15  H           1     -24.972  -3.571  -8.183  0.00  0.00     0.165 HD
HETATM   16  C           1     -23.098  -4.419  -7.556  0.00  0.00     0.096 A 
ENDBRANCH   6   7
ENDBRANCH   5   6
BRANCH   5  17
HETATM   17  N           1     -20.157  -4.445  -5.407  0.00  0.00    -0.066 N 
HETATM   18  H           1     -20.383  -3.507  -5.809  0.00  0.00     0.275 HD
HETATM   19  H           1     -19.125  -4.604  -5.455  0.00  0.00     0.275 HD
HETATM   20  H           1     -20.469  -4.481  -4.411  0.00  0.00     0.275 HD
ENDBRANCH   5  17
ENDBRANCH   1   5
BRANCH   2  21
HETATM   21  C           1     -20.188  -8.826  -4.394  0.00  0.00     0.185 C 
BRANCH  21  22
HETATM   22  C           1     -20.005  -8.922  -2.885  0.00  0.00     0.036 C 
BRANCH  22  23
HETATM   23  C           1     -20.475  -7.628  -2.233  0.00  0.00     0.004 C 
BRANCH  23  24
HETATM   24  C           1     -21.318  -7.955  -1.007  0.00  0.00     0.027 C 
BRANCH  24  25
HETATM   25  C           1     -22.437  -6.931  -0.872  0.00  0.00     0.229 C 
BRANCH  25  26
HETATM   26  N           1     -22.323  -5.917  -1.971  0.00  0.00    -0.079 N 
HETATM   27  H           1     -23.274  -5.554  -2.212  0.00  0.00     0.274 HD
HETATM   28  H           1     -21.719  -5.126  -1.653  0.00  0.00     0.274 HD
HETATM   29  H           1     -21.898  -6.364  -2.815  0.00  0.00     0.274 HD
ENDBRANCH  25  26
ENDBRANCH  24  25
ENDBRANCH  23  24
ENDBRANCH  22  23
ENDBRANCH  21  22
BRANCH  21  30
HETATM   30  C           1     -21.131  -9.910  -4.856  0.00  0.00     0.196 C 
HETATM   31  O           1     -21.986 -10.371  -4.070  0.00  0.00    -0.646 OA
HETATM   32  O           1     -21.056 -10.347  -6.024  0.00  0.00    -0.646 OA
ENDBRANCH  21  30
ENDBRANCH   2  21
TORSDOF 11
ENDMDL
MODEL 3
REMARK VINA RESULT:      -7.7      2.826      8.503
REMARK  11 active torsions:
REMARK  status: ('A' for Active; 'I' for Inactive)
REMARK       I    between atoms: C_6  and  N_7 
REMARK    1  A    between atoms: C_6  and  C_28 
REMARK    2  A    between atoms: N_7  and  C_8 
REMARK    3  A    between atoms: C_8  and  C_15 
REMARK    4  A    between atoms: C_8  and  C_9 
REMARK    5  A    between atoms: C_12  and  C_28 
REMARK    6  A    between atoms: C_12  and  C_16 
REMARK    7  A    between atoms: N_14  and  C_22 
REMARK    8  A    between atoms: C_15  and  C_21 
REMARK    9  A    between atoms: C_20  and  C_22 
REMARK   10  A    between atoms: C_20  and  C_21 
REMARK   11  A    between atoms: N_27  and  C_28 
ROOT
HETATM    1  C           1     -21.461  -6.542  -4.648  0.00  0.00     0.249 C 
HETATM    2  N           1     -21.070  -6.591  -3.337  0.00  0.00    -0.345 N 
HETATM    3  H           1     -20.595  -5.801  -2.920  0.00  0.00     0.163 HD
HETATM    4  O           1     -22.028  -7.485  -5.145  0.00  0.00    -0.271 OA
ENDROOT
BRANCH   1   5
HETATM    5  C           1     -21.182  -5.309  -5.472  0.00  0.00     0.278 C 
BRANCH   5   6
HETATM    6  C           1     -20.988  -5.705  -6.930  0.00  0.00     0.083 C 
BRANCH   6   7
HETATM    7  C           1     -21.918  -4.911  -7.792  0.00  0.00    -0.028 A 
HETATM    8  C           1     -21.645  -4.435  -9.104  0.00  0.00    -0.002 A 
HETATM    9  C           1     -20.536  -4.523  -9.967  0.00  0.00     0.014 A 
HETATM   10  C           1     -22.779  -3.747  -9.537  0.00  0.00     0.042 A 
HETATM   11  C           1     -20.600  -3.923 -11.230  0.00  0.00     0.001 A 
HETATM   12  C           1     -21.747  -3.242 -11.636  0.00  0.00     0.002 A 
HETATM   13  C           1     -22.861  -3.141 -10.796  0.00  0.00     0.030 A 
HETATM   14  N           1     -23.702  -3.809  -8.518  0.00  0.00    -0.365 N 
HETATM   15  H           1     -24.661  -3.381  -8.548  0.00  0.00     0.165 HD
HETATM   16  C           1     -23.192  -4.511  -7.458  0.00  0.00     0.096 A 
ENDBRANCH   6   7
ENDBRANCH   5   6
BRANCH   5  17
HETATM   17  N           1     -19.939  -4.640  -4.966  0.00  0.00    -0.066 N 
HETATM   18  H           1     -19.179  -5.349  -4.863  0.00  0.00     0.275 HD
HETATM   19  H           1     -20.133  -4.201  -4.037  0.00  0.00     0.275 HD
HETATM   20  H           1     -19.639  -3.904  -5.644  0.00  0.00     0.275 HD
ENDBRANCH   5  17
ENDBRANCH   1   5
BRANCH   2  21
HETATM   21  C           1     -21.338  -7.776  -2.545  0.00  0.00     0.185 C 
BRANCH  21  22
HETATM   22  C           1     -20.020  -8.408  -2.114  0.00  0.00     0.036 C 
BRANCH  22  23
HETATM   23  C           1     -19.701  -9.586  -3.023  0.00  0.00     0.004 C 
BRANCH  23  24
HETATM   24  C           1     -18.422  -9.296  -3.800  0.00  0.00     0.027 C 
BRANCH  24  25
HETATM   25  C           1     -18.701  -9.397  -5.293  0.00  0.00     0.229 C 
BRANCH  25  26
HETATM   26  N           1     -20.131  -9.794  -5.511  0.00  0.00    -0.079 N 
HETATM   27  H           1     -20.169 -10.759  -5.911  0.00  0.00     0.274 HD
HETATM   28  H           1     -20.639  -9.775  -4.598  0.00  0.00     0.274 HD
HETATM   29  H           1     -20.581  -9.123  -6.175  0.00  0.00     0.274 HD
ENDBRANCH  25  26
ENDBRANCH  24  25
ENDBRANCH  23  24
ENDBRANCH  22  23
ENDBRANCH  21  22
BRANCH  21  30
HETATM   30  C           1     -22.135  -7.393  -1.322  0.00  0.00     0.196 C 
HETATM   31  O           1     -22.427  -8.259  -0.470  0.00  0.00    -0.646 OA
HETATM   32  O           1     -22.503  -6.209  -1.162  0.00  0.00    -0.646 OA
ENDBRANCH  21  30
ENDBRANCH   2  21
TORSDOF 11
ENDMDL
MODEL 4
REMARK VINA RESULT:      -7.5      1.949      2.539
REMARK  11 active torsions:
REMARK  status: ('A' for Active; 'I' for Inactive)
REMARK       I    between atoms: C_6  and  N_7 
REMARK    1  A    between atoms: C_6  and  C_28 
REMARK    2  A    between atoms: N_7  and  C_8 
REMARK    3  A    between atoms: C_8  and  C_15 
REMARK    4  A    between atoms: C_8  and  C_9 
REMARK    5  A    between atoms: C_12  and  C_28 
REMARK    6  A    between atoms: C_12  and  C_16 
REMARK    7  A    between atoms: N_14  and  C_22 
REMARK    8  A    between atoms: C_15  and  C_21 
REMARK    9  A    between atoms: C_20  and  C_22 
REMARK   10  A    between atoms: C_20  and  C_21 
REMARK   11  A    between atoms: N_27  and  C_28 
ROOT
HETATM    1  C           1     -21.058  -5.930  -6.581  0.00  0.00     0.249 C 
HETATM    2  N           1     -21.272  -4.771  -7.276  0.00  0.00    -0.345 N 
HETATM    3  H           1     -21.060  -3.878  -6.850  0.00  0.00     0.163 HD
HETATM    4  O           1     -21.312  -6.996  -7.089  0.00  0.00    -0.271 OA
ENDROOT
BRANCH   1   5
HETATM    5  C           1     -20.506  -5.877  -5.177  0.00  0.00     0.278 C 
BRANCH   5   6
HETATM    6  C           1     -21.606  -6.230  -4.184  0.00  0.00     0.083 C 
BRANCH   6   7
HETATM    7  C           1     -21.152  -7.362  -3.317  0.00  0.00    -0.028 A 
HETATM    8  C           1     -21.530  -7.586  -1.964  0.00  0.00    -0.002 A 
HETATM    9  C           1     -22.366  -6.909  -1.056  0.00  0.00     0.014 A 
HETATM   10  C           1     -20.880  -8.746  -1.543  0.00  0.00     0.042 A 
HETATM   11  C           1     -22.523  -7.416   0.240  0.00  0.00     0.001 A 
HETATM   12  C           1     -21.860  -8.578   0.633  0.00  0.00     0.002 A 
HETATM   13  C           1     -21.025  -9.267  -0.251  0.00  0.00     0.030 A 
HETATM   14  N           1     -20.137  -9.203  -2.607  0.00  0.00    -0.365 N 
HETATM   15  H           1     -19.535 -10.064  -2.595  0.00  0.00     0.165 HD
HETATM   16  C           1     -20.294  -8.373  -3.686  0.00  0.00     0.096 A 
ENDBRANCH   6   7
ENDBRANCH   5   6
BRANCH   5  17
HETATM   17  N           1     -20.001  -4.494  -4.891  0.00  0.00    -0.066 N 
HETATM   18  H           1     -20.082  -3.908  -5.752  0.00  0.00     0.275 HD
HETATM   19  H           1     -18.998  -4.543  -4.598  0.00  0.00     0.275 HD
HETATM   20  H           1     -20.568  -4.068  -4.125  0.00  0.00     0.275 HD
ENDBRANCH   5  17
ENDBRANCH   1   5
BRANCH   2  21
HETATM   21  C           1     -21.802  -4.822  -8.625  0.00  0.00     0.185 C 
BRANCH  21  22
HETATM   22  C           1     -23.009  -3.899  -8.732  0.00  0.00     0.036 C 
BRANCH  22  23
HETATM   23  C           1     -24.017  -4.492  -9.707  0.00  0.00     0.004 C 
BRANCH  23  24
HETATM   24  C           1     -24.648  -3.374 -10.528  0.00  0.00     0.027 C 
BRANCH  24  25
HETATM   25  C           1     -24.012  -3.338 -11.911  0.00  0.00     0.229 C 
BRANCH  25  26
HETATM   26  N           1     -23.518  -4.708 -12.271  0.00  0.00    -0.079 N 
HETATM   27  H           1     -22.517  -4.653 -12.569  0.00  0.00     0.274 HD
HETATM   28  H           1     -23.599  -5.337 -11.440  0.00  0.00     0.274 HD
HETATM   29  H           1     -24.094  -5.090 -13.056  0.00  0.00     0.274 HD
ENDBRANCH  25  26
ENDBRANCH  24  25
ENDBRANCH  23  24
ENDBRANCH  22  23
ENDBRANCH  21  22
BRANCH  21  30
HETATM   30  C           1     -20.740  -4.376  -9.599  0.00  0.00     0.196 C 
HETATM   31  O           1     -20.889  -4.580 -10.823  0.00  0.00    -0.646 OA
HETATM   32  O           1     -19.711  -3.802  -9.182  0.00  0.00    -0.646 OA
ENDBRANCH  21  30
ENDBRANCH   2  21
TORSDOF 11
ENDMDL
MODEL 5
REMARK VINA RESULT:      -7.5      2.466      8.754
REMARK  11 active torsions:
REMARK  status: ('A' for Active; 'I' for Inactive)
REMARK       I    between atoms: C_6  and  N_7 
REMARK    1  A    between atoms: C_6  and  C_28 
REMARK    2  A    between atoms: N_7  and  C_8 
REMARK    3  A    between atoms: C_8  and  C_15 
REMARK    4  A    between atoms: C_8  and  C_9 
REMARK    5  A    between atoms: C_12  and  C_28 
REMARK    6  A    between atoms: C_12  and  C_16 
REMARK    7  A    between atoms: N_14  and  C_22 
REMARK    8  A    between atoms: C_15  and  C_21 
REMARK    9  A    between atoms: C_20  and  C_22 
REMARK   10  A    between atoms: C_20  and  C_21 
REMARK   11  A    between atoms: N_27  and  C_28 
ROOT
HETATM    1  C           1     -21.059  -5.158  -6.111  0.00  0.00     0.249 C 
HETATM    2  N           1     -21.719  -6.281  -5.691  0.00  0.00    -0.345 N 
HETATM    3  H           1     -22.475  -6.662  -6.245  0.00  0.00     0.163 HD
HETATM    4  O           1     -20.157  -4.704  -5.449  0.00  0.00    -0.271 OA
ENDROOT
BRANCH   1   5
HETATM    5  C           1     -21.459  -4.487  -7.402  0.00  0.00     0.278 C 
BRANCH   5   6
HETATM    6  C           1     -20.532  -4.942  -8.522  0.00  0.00     0.083 C 
BRANCH   6   7
HETATM    7  C           1     -20.906  -4.250  -9.794  0.00  0.00    -0.028 A 
HETATM    8  C           1     -22.228  -3.974 -10.242  0.00  0.00    -0.002 A 
HETATM    9  C           1     -23.511  -4.222  -9.719  0.00  0.00     0.014 A 
HETATM   10  C           1     -22.118  -3.319 -11.469  0.00  0.00     0.042 A 
HETATM   11  C           1     -24.637  -3.805 -10.439  0.00  0.00     0.001 A 
HETATM   12  C           1     -24.497  -3.152 -11.662  0.00  0.00     0.002 A 
HETATM   13  C           1     -23.233  -2.896 -12.202  0.00  0.00     0.030 A 
HETATM   14  N           1     -20.775  -3.205 -11.747  0.00  0.00    -0.365 N 
HETATM   15  H           1     -20.375  -2.754 -12.608  0.00  0.00     0.165 HD
HETATM   16  C           1     -20.033  -3.765 -10.741  0.00  0.00     0.096 A 
ENDBRANCH   6   7
ENDBRANCH   5   6
BRANCH   5  17
HETATM   17  N           1     -21.358  -2.999  -7.244  0.00  0.00    -0.066 N 
HETATM   18  H           1     -20.676  -2.774  -6.485  0.00  0.00     0.275 HD
HETATM   19  H           1     -22.297  -2.611  -6.994  0.00  0.00     0.275 HD
HETATM   20  H           1     -21.033  -2.575  -8.141  0.00  0.00     0.275 HD
ENDBRANCH   5  17
ENDBRANCH   1   5
BRANCH   2  21
HETATM   21  C           1     -21.334  -6.926  -4.450  0.00  0.00     0.185 C 
BRANCH  21  22
HETATM   22  C           1     -22.427  -6.718  -3.409  0.00  0.00     0.036 C 
BRANCH  22  23
HETATM   23  C           1     -21.814  -6.152  -2.135  0.00  0.00     0.004 C 
BRANCH  23  24
HETATM   24  C           1     -22.346  -6.919  -0.931  0.00  0.00     0.027 C 
BRANCH  24  25
HETATM   25  C           1     -21.425  -8.092  -0.628  0.00  0.00     0.229 C 
BRANCH  25  26
HETATM   26  N           1     -22.103  -9.375  -1.009  0.00  0.00    -0.079 N 
HETATM   27  H           1     -23.139  -9.232  -1.019  0.00  0.00     0.274 HD
HETATM   28  H           1     -21.783  -9.668  -1.960  0.00  0.00     0.274 HD
HETATM   29  H           1     -21.860 -10.117  -0.314  0.00  0.00     0.274 HD
ENDBRANCH  25  26
ENDBRANCH  24  25
ENDBRANCH  23  24
ENDBRANCH  22  23
ENDBRANCH  21  22
BRANCH  21  30
HETATM   30  C           1     -21.143  -8.403  -4.690  0.00  0.00     0.196 C 
HETATM   31  O           1     -20.367  -8.795  -5.588  0.00  0.00    -0.646 OA
HETATM   32  O           1     -21.760  -9.235  -3.991  0.00  0.00    -0.646 OA
ENDBRANCH  21  30
ENDBRANCH   2  21
TORSDOF 11
ENDMDL
MODEL 6
REMARK VINA RESULT:      -7.5      3.004      8.756
REMARK  11 active torsions:
REMARK  status: ('A' for Active; 'I' for Inactive)
REMARK       I    between atoms: C_6  and  N_7 
REMARK    1  A    between atoms: C_6  and  C_28 
REMARK    2  A    between atoms: N_7  and  C_8 
REMARK    3  A    between atoms: C_8  and  C_15 
REMARK    4  A    between atoms: C_8  and  C_9 
REMARK    5  A    between atoms: C_12  and  C_28 
REMARK    6  A    between atoms: C_12  and  C_16 
REMARK    7  A    between atoms: N_14  and  C_22 
REMARK    8  A    between atoms: C_15  and  C_21 
REMARK    9  A    between atoms: C_20  and  C_22 
REMARK   10  A    between atoms: C_20  and  C_21 
REMARK   11  A    between atoms: N_27  and  C_28 
ROOT
HETATM    1  C           1     -20.619  -7.161  -5.736  0.00  0.00     0.249 C 
HETATM    2  N           1     -20.746  -8.058  -4.709  0.00  0.00    -0.345 N 
HETATM    3  H           1     -21.631  -8.156  -4.229  0.00  0.00     0.163 HD
HETATM    4  O           1     -19.562  -7.043  -6.308  0.00  0.00    -0.271 OA
ENDROOT
BRANCH   1   5
HETATM    5  C           1     -21.800  -6.317  -6.150  0.00  0.00     0.278 C 
BRANCH   5   6
HETATM    6  C           1     -21.313  -4.945  -6.598  0.00  0.00     0.083 C 
BRANCH   6   7
HETATM    7  C           1     -22.178  -4.447  -7.712  0.00  0.00    -0.028 A 
HETATM    8  C           1     -21.759  -4.180  -9.045  0.00  0.00    -0.002 A 
HETATM    9  C           1     -20.529  -4.274  -9.723  0.00  0.00     0.014 A 
HETATM   10  C           1     -22.880  -3.735  -9.747  0.00  0.00     0.042 A 
HETATM   11  C           1     -20.463  -3.922 -11.076  0.00  0.00     0.001 A 
HETATM   12  C           1     -21.599  -3.481 -11.752  0.00  0.00     0.002 A 
HETATM   13  C           1     -22.832  -3.378 -11.100  0.00  0.00     0.030 A 
HETATM   14  N           1     -23.936  -3.735  -8.864  0.00  0.00    -0.365 N 
HETATM   15  H           1     -24.918  -3.447  -9.101  0.00  0.00     0.165 HD
HETATM   16  C           1     -23.523  -4.164  -7.630  0.00  0.00     0.096 A 
ENDBRANCH   6   7
ENDBRANCH   5   6
BRANCH   5  17
HETATM   17  N           1     -22.734  -6.160  -4.987  0.00  0.00    -0.066 N 
HETATM   18  H           1     -22.201  -5.821  -4.155  0.00  0.00     0.275 HD
HETATM   19  H           1     -23.174  -7.083  -4.767  0.00  0.00     0.275 HD
HETATM   20  H           1     -23.478  -5.468  -5.230  0.00  0.00     0.275 HD
ENDBRANCH   5  17
ENDBRANCH   1   5
BRANCH   2  21
HETATM   21  C           1     -19.611  -8.868  -4.311  0.00  0.00     0.185 C 
BRANCH  21  22
HETATM   22  C           1     -19.569  -8.973  -2.792  0.00  0.00     0.036 C 
BRANCH  22  23
HETATM   23  C           1     -20.979  -8.834  -2.234  0.00  0.00     0.004 C 
BRANCH  23  24
HETATM   24  C           1     -20.969  -7.859  -1.064  0.00  0.00     0.027 C 
BRANCH  24  25
HETATM   25  C           1     -22.295  -7.112  -1.013  0.00  0.00     0.229 C 
BRANCH  25  26
HETATM   26  N           1     -22.194  -5.855  -1.825  0.00  0.00    -0.079 N 
HETATM   27  H           1     -22.315  -5.025  -1.201  0.00  0.00     0.274 HD
HETATM   28  H           1     -21.256  -5.812  -2.283  0.00  0.00     0.274 HD
HETATM   29  H           1     -22.941  -5.852  -2.557  0.00  0.00     0.274 HD
ENDBRANCH  25  26
ENDBRANCH  24  25
ENDBRANCH  23  24
ENDBRANCH  22  23
ENDBRANCH  21  22
BRANCH  21  30
HETATM   30  C           1     -19.746 -10.248  -4.906  0.00  0.00     0.196 C 
HETATM   31  O           1     -19.061 -11.192  -4.458  0.00  0.00    -0.646 OA
HETATM   32  O           1     -20.545 -10.447  -5.847  0.00  0.00    -0.646 OA
ENDBRANCH  21  30
ENDBRANCH   2  21
TORSDOF 11
ENDMDL
MODEL 7
REMARK VINA RESULT:      -7.4      3.617      9.081
REMARK  11 active torsions:
REMARK  status: ('A' for Active; 'I' for Inactive)
REMARK       I    between atoms: C_6  and  N_7 
REMARK    1  A    between atoms: C_6  and  C_28 
REMARK    2  A    between atoms: N_7  and  C_8 
REMARK    3  A    between atoms: C_8  and  C_15 
REMARK    4  A    between atoms: C_8  and  C_9 
REMARK    5  A    between atoms: C_12  and  C_28 
REMARK    6  A    between atoms: C_12  and  C_16 
REMARK    7  A    between atoms: N_14  and  C_22 
REMARK    8  A    between atoms: C_15  and  C_21 
REMARK    9  A    between atoms: C_20  and  C_22 
REMARK   10  A    between atoms: C_20  and  C_21 
REMARK   11  A    between atoms: N_27  and  C_28 
ROOT
HETATM    1  C           1     -20.218  -7.146  -5.727  0.00  0.00     0.249 C 
HETATM    2  N           1     -20.064  -8.147  -4.806  0.00  0.00    -0.345 N 
HETATM    3  H           1     -20.647  -8.171  -3.980  0.00  0.00     0.163 HD
HETATM    4  O           1     -19.520  -7.117  -6.712  0.00  0.00    -0.271 OA
ENDROOT
BRANCH   1   5
HETATM    5  C           1     -21.259  -6.075  -5.509  0.00  0.00     0.278 C 
BRANCH   5   6
HETATM    6  C           1     -20.840  -4.802  -6.232  0.00  0.00     0.083 C 
BRANCH   6   7
HETATM    7  C           1     -21.839  -4.481  -7.299  0.00  0.00    -0.028 A 
HETATM    8  C           1     -21.550  -4.213  -8.666  0.00  0.00    -0.002 A 
HETATM    9  C           1     -20.365  -4.158  -9.423  0.00  0.00     0.014 A 
HETATM   10  C           1     -22.766  -3.964  -9.302  0.00  0.00     0.042 A 
HETATM   11  C           1     -20.438  -3.857 -10.789  0.00  0.00     0.001 A 
HETATM   12  C           1     -21.667  -3.613 -11.398  0.00  0.00     0.002 A 
HETATM   13  C           1     -22.857  -3.661 -10.666  0.00  0.00     0.030 A 
HETATM   14  N           1     -23.752  -4.079  -8.348  0.00  0.00    -0.365 N 
HETATM   15  H           1     -24.779  -3.946  -8.526  0.00  0.00     0.165 HD
HETATM   16  C           1     -23.202  -4.391  -7.133  0.00  0.00     0.096 A 
ENDBRANCH   6   7
ENDBRANCH   5   6
BRANCH   5  17
HETATM   17  N           1     -21.389  -5.796  -4.041  0.00  0.00    -0.066 N 
HETATM   18  H           1     -20.746  -6.424  -3.508  0.00  0.00     0.275 HD
HETATM   19  H           1     -22.375  -5.971  -3.739  0.00  0.00     0.275 HD
HETATM   20  H           1     -21.138  -4.800  -3.853  0.00  0.00     0.275 HD
ENDBRANCH   5  17
ENDBRANCH   1   5
BRANCH   2  21
HETATM   21  C           1     -19.063  -9.175  -5.016  0.00  0.00     0.185 C 
BRANCH  21  22
HETATM   22  C           1     -18.298  -9.413  -3.719  0.00  0.00     0.036 C 
BRANCH  22  23
HETATM   23  C           1     -16.841  -9.720  -4.038  0.00  0.00     0.004 C 
BRANCH  23  24
HETATM   24  C           1     -15.992  -9.498  -2.793  0.00  0.00     0.027 C 
BRANCH  24  25
HETATM   25  C           1     -15.812 -10.819  -2.058  0.00  0.00     0.229 C 
BRANCH  25  26
HETATM   26  N           1     -15.356 -11.872  -3.025  0.00  0.00    -0.079 N 
HETATM   27  H           1     -16.112 -12.584  -3.149  0.00  0.00     0.274 HD
HETATM   28  H           1     -15.140 -11.428  -3.946  0.00  0.00     0.274 HD
HETATM   29  H           1     -14.498 -12.338  -2.652  0.00  0.00     0.274 HD
ENDBRANCH  25  26
ENDBRANCH  24  25
ENDBRANCH  23  24
ENDBRANCH  22  23
ENDBRANCH  21  22
BRANCH  21  30
HETATM   30  C           1     -19.739 -10.455  -5.442  0.00  0.00     0.196 C 
HETATM   31  O           1     -20.669 -10.929  -4.754  0.00  0.00    -0.646 OA
HETATM   32  O           1     -19.370 -11.041  -6.482  0.00  0.00    -0.646 OA
ENDBRANCH  21  30
ENDBRANCH   2  21
TORSDOF 11
ENDMDL
MODEL 8
REMARK VINA RESULT:      -7.1      2.351      3.515
REMARK  11 active torsions:
REMARK  status: ('A' for Active; 'I' for Inactive)
REMARK       I    between atoms: C_6  and  N_7 
REMARK    1  A    between atoms: C_6  and  C_28 
REMARK    2  A    between atoms: N_7  and  C_8 
REMARK    3  A    between atoms: C_8  and  C_15 
REMARK    4  A    between atoms: C_8  and  C_9 
REMARK    5  A    between atoms: C_12  and  C_28 
REMARK    6  A    between atoms: C_12  and  C_16 
REMARK    7  A    between atoms: N_14  and  C_22 
REMARK    8  A    between atoms: C_15  and  C_21 
REMARK    9  A    between atoms: C_20  and  C_22 
REMARK   10  A    between atoms: C_20  and  C_21 
REMARK   11  A    between atoms: N_27  and  C_28 
ROOT
HETATM    1  C           1     -21.176  -6.369  -5.984  0.00  0.00     0.249 C 
HETATM    2  N           1     -21.361  -5.145  -6.568  0.00  0.00    -0.345 N 
HETATM    3  H           1     -21.447  -4.317  -5.994  0.00  0.00     0.163 HD
HETATM    4  O           1     -21.074  -7.357  -6.670  0.00  0.00    -0.271 OA
ENDROOT
BRANCH   1   5
HETATM    5  C           1     -21.102  -6.483  -4.481  0.00  0.00     0.278 C 
BRANCH   5   6
HETATM    6  C           1     -20.617  -7.876  -4.100  0.00  0.00     0.083 C 
BRANCH   6   7
HETATM    7  C           1     -21.039  -8.186  -2.698  0.00  0.00    -0.028 A 
HETATM    8  C           1     -21.847  -9.282  -2.288  0.00  0.00    -0.002 A 
HETATM    9  C           1     -22.471 -10.346  -2.965  0.00  0.00     0.014 A 
HETATM   10  C           1     -21.992  -9.190  -0.903  0.00  0.00     0.042 A 
HETATM   11  C           1     -23.216 -11.281  -2.236  0.00  0.00     0.001 A 
HETATM   12  C           1     -23.344 -11.164  -0.853  0.00  0.00     0.002 A 
HETATM   13  C           1     -22.734 -10.115  -0.158  0.00  0.00     0.030 A 
HETATM   14  N           1     -21.294  -8.076  -0.496  0.00  0.00    -0.365 N 
HETATM   15  H           1     -21.217  -7.744   0.497  0.00  0.00     0.165 HD
HETATM   16  C           1     -20.713  -7.461  -1.574  0.00  0.00     0.096 A 
ENDBRANCH   6   7
ENDBRANCH   5   6
BRANCH   5  17
HETATM   17  N           1     -22.462  -6.249  -3.894  0.00  0.00    -0.066 N 
HETATM   18  H           1     -22.622  -6.918  -3.107  0.00  0.00     0.275 HD
HETATM   19  H           1     -23.189  -6.398  -4.630  0.00  0.00     0.275 HD
HETATM   20  H           1     -22.523  -5.270  -3.536  0.00  0.00     0.275 HD
ENDBRANCH   5  17
ENDBRANCH   1   5
BRANCH   2  21
HETATM   21  C           1     -21.432  -5.035  -8.013  0.00  0.00     0.185 C 
BRANCH  21  22
HETATM   22  C           1     -22.457  -3.974  -8.392  0.00  0.00     0.036 C 
BRANCH  22  23
HETATM   23  C           1     -23.317  -4.485  -9.539  0.00  0.00     0.004 C 
BRANCH  23  24
HETATM   24  C           1     -23.353  -3.444 -10.651  0.00  0.00     0.027 C 
BRANCH  24  25
HETATM   25  C           1     -22.446  -3.885 -11.791  0.00  0.00     0.229 C 
BRANCH  25  26
HETATM   26  N           1     -21.182  -3.078 -11.765  0.00  0.00    -0.079 N 
HETATM   27  H           1     -20.520  -3.443 -12.488  0.00  0.00     0.274 HD
HETATM   28  H           1     -21.403  -2.078 -11.970  0.00  0.00     0.274 HD
HETATM   29  H           1     -20.740  -3.153 -10.820  0.00  0.00     0.274 HD
ENDBRANCH  25  26
ENDBRANCH  24  25
ENDBRANCH  23  24
ENDBRANCH  22  23
ENDBRANCH  21  22
BRANCH  21  30
HETATM   30  C           1     -20.079  -4.643  -8.554  0.00  0.00     0.196 C 
HETATM   31  O           1     -19.244  -4.088  -7.808  0.00  0.00    -0.646 OA
HETATM   32  O           1     -19.793  -4.875  -9.749  0.00  0.00    -0.646 OA
ENDBRANCH  21  30
ENDBRANCH   2  21
TORSDOF 11
ENDMDL
MODEL 9
REMARK VINA RESULT:      -6.9      2.301      8.789
REMARK  11 active torsions:
REMARK  status: ('A' for Active; 'I' for Inactive)
REMARK       I    between atoms: C_6  and  N_7 
REMARK    1  A    between atoms: C_6  and  C_28 
REMARK    2  A    between atoms: N_7  and  C_8 
REMARK    3  A    between atoms: C_8  and  C_15 
REMARK    4  A    between atoms: C_8  and  C_9 
REMARK    5  A    between atoms: C_12  and  C_28 
REMARK    6  A    between atoms: C_12  and  C_16 
REMARK    7  A    between atoms: N_14  and  C_22 
REMARK    8  A    between atoms: C_15  and  C_21 
REMARK    9  A    between atoms: C_20  and  C_22 
REMARK   10  A    between atoms: C_20  and  C_21 
REMARK   11  A    between atoms: N_27  and  C_28 
ROOT
HETATM    1  C           1     -22.360  -5.406  -6.288  0.00  0.00     0.249 C 
HETATM    2  N           1     -21.309  -6.073  -5.719  0.00  0.00    -0.345 N 
HETATM    3  H           1     -20.378  -5.971  -6.101  0.00  0.00     0.163 HD
HETATM    4  O           1     -23.472  -5.529  -5.832  0.00  0.00    -0.271 OA
ENDROOT
BRANCH   1   5
HETATM    5  C           1     -22.130  -4.519  -7.487  0.00  0.00     0.278 C 
BRANCH   5   6
HETATM    6  C           1     -21.202  -5.221  -8.469  0.00  0.00     0.083 C 
BRANCH   6   7
HETATM    7  C           1     -21.164  -4.458  -9.756  0.00  0.00    -0.028 A 
HETATM    8  C           1     -22.291  -3.989 -10.486  0.00  0.00    -0.002 A 
HETATM    9  C           1     -23.683  -4.061 -10.291  0.00  0.00     0.014 A 
HETATM   10  C           1     -21.804  -3.333 -11.616  0.00  0.00     0.042 A 
HETATM   11  C           1     -24.538  -3.474 -11.232  0.00  0.00     0.001 A 
HETATM   12  C           1     -24.023  -2.825 -12.353  0.00  0.00     0.002 A 
HETATM   13  C           1     -22.644  -2.741 -12.568  0.00  0.00     0.030 A 
HETATM   14  N           1     -20.430  -3.406 -11.566  0.00  0.00    -0.365 N 
HETATM   15  H           1     -19.780  -3.000 -12.284  0.00  0.00     0.165 HD
HETATM   16  C           1     -20.032  -4.085 -10.445  0.00  0.00     0.096 A 
ENDBRANCH   6   7
ENDBRANCH   5   6
BRANCH   5  17
HETATM   17  N           1     -21.505  -3.230  -7.043  0.00  0.00    -0.066 N 
HETATM   18  H           1     -20.487  -3.237  -7.279  0.00  0.00     0.275 HD
HETATM   19  H           1     -21.621  -3.125  -6.009  0.00  0.00     0.275 HD
HETATM   20  H           1     -21.970  -2.432  -7.530  0.00  0.00     0.275 HD
ENDBRANCH   5  17
ENDBRANCH   1   5
BRANCH   2  21
HETATM   21  C           1     -21.530  -6.926  -4.567  0.00  0.00     0.185 C 
BRANCH  21  22
HETATM   22  C           1     -20.408  -7.952  -4.471  0.00  0.00     0.036 C 
BRANCH  22  23
HETATM   23  C           1     -20.511  -8.694  -3.146  0.00  0.00     0.004 C 
BRANCH  23  24
HETATM   24  C           1     -21.730  -9.608  -3.169  0.00  0.00     0.027 C 
BRANCH  24  25
HETATM   25  C           1     -22.068 -10.041  -1.750  0.00  0.00     0.229 C 
BRANCH  25  26
HETATM   26  N           1     -22.313  -8.830  -0.900  0.00  0.00    -0.079 N 
HETATM   27  H           1     -21.644  -8.826  -0.096  0.00  0.00     0.274 HD
HETATM   28  H           1     -22.172  -7.968  -1.475  0.00  0.00     0.274 HD
HETATM   29  H           1     -23.293  -8.851  -0.538  0.00  0.00     0.274 HD
ENDBRANCH  25  26
ENDBRANCH  24  25
ENDBRANCH  23  24
ENDBRANCH  22  23
ENDBRANCH  21  22
BRANCH  21  30
HETATM   30  C           1     -21.549  -6.083  -3.315  0.00  0.00     0.196 C 
HETATM   31  O           1     -22.513  -6.161  -2.524  0.00  0.00    -0.646 OA
HETATM   32  O           1     -20.601  -5.307  -3.070  0.00  0.00    -0.646 OA
ENDBRANCH  21  30
ENDBRANCH   2  21
TORSDOF 11
ENDMDL
