MODEL 1
REMARK VINA RESULT:      -6.3      0.000      0.000
REMARK  9 active torsions:
REMARK  status: ('A' for Active; 'I' for Inactive)
REMARK       I    between atoms: C_1  and  N_7 
REMARK    1  A    between atoms: C_1  and  C_3 
REMARK    2  A    between atoms: C_2  and  C_8 
REMARK    3  A    between atoms: C_2  and  C_17 
REMARK    4  A    between atoms: C_2  and  N_7 
REMARK    5  A    between atoms: C_3  and  C_4 
REMARK    6  A    between atoms: C_3  and  N_20 
REMARK    7  A    between atoms: C_4  and  C_13 
REMARK    8  A    between atoms: C_8  and  C_9 
REMARK    9  A    between atoms: C_9  and  Se_10 
ROOT
HETATM    1  C           1     -34.356  -2.452 -12.415  0.00  0.00     0.249 C 
HETATM    2  N           1     -35.042  -1.285 -12.216  0.00  0.00    -0.345 N 
HETATM    3  H           1     -34.917  -0.765 -11.356  0.00  0.00     0.163 HD
HETATM    4  O           1     -34.504  -3.072 -13.442  0.00  0.00    -0.271 OA
ENDROOT
BRANCH   1   5
HETATM    5  C           1     -33.415  -2.965 -11.353  0.00  0.00     0.278 C 
BRANCH   5   6
HETATM    6  C           1     -34.064  -4.131 -10.617  0.00  0.00     0.021 C 
HETATM    7  C           1     -35.575  -4.067 -10.798  0.00  0.00     0.012 C 
BRANCH   6   8
HETATM    8  C           1     -33.541  -5.444 -11.187  0.00  0.00     0.002 C 
HETATM    9  C           1     -34.308  -6.605 -10.570  0.00  0.00     0.005 C 
ENDBRANCH   6   8
ENDBRANCH   5   6
BRANCH   5  10
HETATM   10  N           1     -33.115  -1.866 -10.378  0.00  0.00    -0.066 N 
HETATM   11  H           1     -33.938  -1.722  -9.750  0.00  0.00     0.275 HD
HETATM   12  H           1     -32.917  -0.982 -10.900  0.00  0.00     0.275 HD
HETATM   13  H           1     -32.280  -2.127  -9.805  0.00  0.00     0.275 HD
ENDBRANCH   5  10
ENDBRANCH   1   5
BRANCH   2  14
HETATM   14  C           1     -35.945  -0.791 -13.237  0.00  0.00     0.185 C 
BRANCH  14  15
HETATM   15  C           1     -37.115  -0.074 -12.575  0.00  0.00     0.036 C 
BRANCH  15  16
HETATM   16  C           1     -37.317  -0.622 -11.169  0.00  0.00     0.003 C 
BRANCH  16  17
HETATM   17 Se           1     -37.086   0.816  -9.872  0.00  0.00     0.000 Se
HETATM   18  C           1     -37.500  -0.293  -8.324  0.00  0.00     0.000 C 
ENDBRANCH  16  17
ENDBRANCH  15  16
ENDBRANCH  14  15
BRANCH  14  19
HETATM   19  C           1     -35.210   0.169 -14.138  0.00  0.00     0.196 C 
HETATM   20  O           1     -34.833   1.277 -13.697  0.00  0.00    -0.646 OA
HETATM   21  O           1     -34.976  -0.143 -15.326  0.00  0.00    -0.646 OA
ENDBRANCH  14  19
ENDBRANCH   2  14
TORSDOF 9
ENDMDL
MODEL 2
REMARK VINA RESULT:      -6.3      2.544      3.153
REMARK  9 active torsions:
REMARK  status: ('A' for Active; 'I' for Inactive)
REMARK       I    between atoms: C_1  and  N_7 
REMARK    1  A    between atoms: C_1  and  C_3 
REMARK    2  A    between atoms: C_2  and  C_8 
REMARK    3  A    between atoms: C_2  and  C_17 
REMARK    4  A    between atoms: C_2  and  N_7 
REMARK    5  A    between atoms: C_3  and  C_4 
REMARK    6  A    between atoms: C_3  and  N_20 
REMARK    7  A    between atoms: C_4  and  C_13 
REMARK    8  A    between atoms: C_8  and  C_9 
REMARK    9  A    between atoms: C_9  and  Se_10 
ROOT
HETATM    1  C           1     -34.029  -2.458 -11.595  0.00  0.00     0.249 C 
HETATM    2  N           1     -34.960  -1.775 -12.329  0.00  0.00    -0.345 N 
HETATM    3  H           1     -35.488  -2.253 -13.047  0.00  0.00     0.163 HD
HETATM    4  O           1     -33.399  -1.887 -10.736  0.00  0.00    -0.271 OA
ENDROOT
BRANCH   1   5
HETATM    5  C           1     -33.789  -3.924 -11.857  0.00  0.00     0.278 C 
BRANCH   5   6
HETATM    6  C           1     -34.310  -4.744 -10.684  0.00  0.00     0.021 C 
HETATM    7  C           1     -35.816  -4.551 -10.559  0.00  0.00     0.012 C 
BRANCH   6   8
HETATM    8  C           1     -34.006  -6.218 -10.921  0.00  0.00     0.002 C 
HETATM    9  C           1     -34.743  -7.060  -9.888  0.00  0.00     0.005 C 
ENDBRANCH   6   8
ENDBRANCH   5   6
BRANCH   5  10
HETATM   10  N           1     -32.317  -4.168 -12.021  0.00  0.00    -0.066 N 
HETATM   11  H           1     -31.887  -3.369 -12.539  0.00  0.00     0.275 HD
HETATM   12  H           1     -32.168  -5.052 -12.558  0.00  0.00     0.275 HD
HETATM   13  H           1     -31.872  -4.252 -11.078  0.00  0.00     0.275 HD
ENDBRANCH   5  10
ENDBRANCH   1   5
BRANCH   2  14
HETATM   14  C           1     -35.191  -0.366 -12.075  0.00  0.00     0.185 C 
BRANCH  14  15
HETATM   15  C           1     -35.393   0.361 -13.398  0.00  0.00     0.036 C 
BRANCH  15  16
HETATM   16  C           1     -35.293  -0.636 -14.546  0.00  0.00     0.003 C 
BRANCH  16  17
HETATM   17 Se           1     -36.631  -0.208 -15.897  0.00  0.00     0.000 Se
HETATM   18  C           1     -38.070   0.084 -14.615  0.00  0.00     0.000 C 
ENDBRANCH  16  17
ENDBRANCH  15  16
ENDBRANCH  14  15
BRANCH  14  19
HETATM   19  C           1     -36.422  -0.204 -11.218  0.00  0.00     0.196 C 
HETATM   20  O           1     -36.476   0.712 -10.369  0.00  0.00    -0.646 OA
HETATM   21  O           1     -37.389  -0.984 -11.359  0.00  0.00    -0.646 OA
ENDBRANCH  14  19
ENDBRANCH   2  14
TORSDOF 9
ENDMDL
MODEL 3
REMARK VINA RESULT:      -6.0     12.430     14.028
REMARK  9 active torsions:
REMARK  status: ('A' for Active; 'I' for Inactive)
REMARK       I    between atoms: C_1  and  N_7 
REMARK    1  A    between atoms: C_1  and  C_3 
REMARK    2  A    between atoms: C_2  and  C_8 
REMARK    3  A    between atoms: C_2  and  C_17 
REMARK    4  A    between atoms: C_2  and  N_7 
REMARK    5  A    between atoms: C_3  and  C_4 
REMARK    6  A    between atoms: C_3  and  N_20 
REMARK    7  A    between atoms: C_4  and  C_13 
REMARK    8  A    between atoms: C_8  and  C_9 
REMARK    9  A    between atoms: C_9  and  Se_10 
ROOT
HETATM    1  C           1     -21.481  -4.436  -8.125  0.00  0.00     0.249 C 
HETATM    2  N           1     -21.945  -4.668  -9.392  0.00  0.00    -0.345 N 
HETATM    3  H           1     -21.776  -5.561  -9.837  0.00  0.00     0.163 HD
HETATM    4  O           1     -21.683  -3.371  -7.593  0.00  0.00    -0.271 OA
ENDROOT
BRANCH   1   5
HETATM    5  C           1     -20.716  -5.512  -7.393  0.00  0.00     0.278 C 
BRANCH   5   6
HETATM    6  C           1     -21.466  -5.896  -6.124  0.00  0.00     0.021 C 
HETATM    7  C           1     -21.504  -7.414  -5.997  0.00  0.00     0.012 C 
BRANCH   6   8
HETATM    8  C           1     -20.752  -5.304  -4.915  0.00  0.00     0.002 C 
HETATM    9  C           1     -21.215  -6.020  -3.653  0.00  0.00     0.005 C 
ENDBRANCH   6   8
ENDBRANCH   5   6
BRANCH   5  10
HETATM   10  N           1     -19.354  -4.997  -7.031  0.00  0.00    -0.066 N 
HETATM   11  H           1     -18.800  -4.832  -7.902  0.00  0.00     0.275 HD
HETATM   12  H           1     -18.863  -5.701  -6.434  0.00  0.00     0.275 HD
HETATM   13  H           1     -19.451  -4.099  -6.504  0.00  0.00     0.275 HD
ENDBRANCH   5  10
ENDBRANCH   1   5
BRANCH   2  14
HETATM   14  C           1     -22.681  -3.635 -10.094  0.00  0.00     0.185 C 
BRANCH  14  15
HETATM   15  C           1     -22.364  -3.710 -11.582  0.00  0.00     0.036 C 
BRANCH  15  16
HETATM   16  C           1     -23.046  -2.556 -12.305  0.00  0.00     0.003 C 
BRANCH  16  17
HETATM   17 Se           1     -23.038  -2.897 -14.225  0.00  0.00     0.000 Se
HETATM   18  C           1     -23.942  -1.234 -14.689  0.00  0.00     0.000 C 
ENDBRANCH  16  17
ENDBRANCH  15  16
ENDBRANCH  14  15
BRANCH  14  19
HETATM   19  C           1     -24.160  -3.838  -9.883  0.00  0.00     0.196 C 
HETATM   20  O           1     -24.876  -2.883  -9.511  0.00  0.00    -0.646 OA
HETATM   21  O           1     -24.672  -4.962 -10.081  0.00  0.00    -0.646 OA
ENDBRANCH  14  19
ENDBRANCH   2  14
TORSDOF 9
ENDMDL
MODEL 4
REMARK VINA RESULT:      -6.0     13.451     15.381
REMARK  9 active torsions:
REMARK  status: ('A' for Active; 'I' for Inactive)
REMARK       I    between atoms: C_1  and  N_7 
REMARK    1  A    between atoms: C_1  and  C_3 
REMARK    2  A    between atoms: C_2  and  C_8 
REMARK    3  A    between atoms: C_2  and  C_17 
REMARK    4  A    between atoms: C_2  and  N_7 
REMARK    5  A    between atoms: C_3  and  C_4 
REMARK    6  A    between atoms: C_3  and  N_20 
REMARK    7  A    between atoms: C_4  and  C_13 
REMARK    8  A    between atoms: C_8  and  C_9 
REMARK    9  A    between atoms: C_9  and  Se_10 
ROOT
HETATM    1  C           1     -22.320  -4.178  -8.047  0.00  0.00     0.249 C 
HETATM    2  N           1     -22.141  -5.342  -7.350  0.00  0.00    -0.345 N 
HETATM    3  H           1     -22.595  -6.192  -7.658  0.00  0.00     0.163 HD
HETATM    4  O           1     -21.777  -3.164  -7.679  0.00  0.00    -0.271 OA
ENDROOT
BRANCH   1   5
HETATM    5  C           1     -23.198  -4.162  -9.274  0.00  0.00     0.278 C 
BRANCH   5   6
HETATM    6  C           1     -22.471  -3.453 -10.410  0.00  0.00     0.021 C 
HETATM    7  C           1     -21.413  -4.381 -10.994  0.00  0.00     0.012 C 
BRANCH   6   8
HETATM    8  C           1     -23.472  -3.079 -11.496  0.00  0.00     0.002 C 
HETATM    9  C           1     -22.773  -3.069 -12.849  0.00  0.00     0.005 C 
ENDBRANCH   6   8
ENDBRANCH   5   6
BRANCH   5  10
HETATM   10  N           1     -24.473  -3.434  -8.967  0.00  0.00    -0.066 N 
HETATM   11  H           1     -25.274  -3.923  -9.427  0.00  0.00     0.275 HD
HETATM   12  H           1     -24.410  -2.454  -9.326  0.00  0.00     0.275 HD
HETATM   13  H           1     -24.623  -3.417  -7.932  0.00  0.00     0.275 HD
ENDBRANCH   5  10
ENDBRANCH   1   5
BRANCH   2  14
HETATM   14  C           1     -21.297  -5.357  -6.171  0.00  0.00     0.185 C 
BRANCH  14  15
HETATM   15  C           1     -21.838  -6.373  -5.173  0.00  0.00     0.036 C 
BRANCH  15  16
HETATM   16  C           1     -21.357  -6.017  -3.773  0.00  0.00     0.003 C 
BRANCH  16  17
HETATM   17 Se           1     -21.281  -7.630  -2.681  0.00  0.00     0.000 Se
HETATM   18  C           1     -22.271  -6.863  -1.188  0.00  0.00     0.000 C 
ENDBRANCH  16  17
ENDBRANCH  15  16
ENDBRANCH  14  15
BRANCH  14  19
HETATM   19  C           1     -19.890  -5.736  -6.563  0.00  0.00     0.196 C 
HETATM   20  O           1     -19.031  -4.846  -6.747  0.00  0.00    -0.646 OA
HETATM   21  O           1     -19.583  -6.940  -6.702  0.00  0.00    -0.646 OA
ENDBRANCH  14  19
ENDBRANCH   2  14
TORSDOF 9
ENDMDL
MODEL 5
REMARK VINA RESULT:      -5.9     14.519     16.241
REMARK  9 active torsions:
REMARK  status: ('A' for Active; 'I' for Inactive)
REMARK       I    between atoms: C_1  and  N_7 
REMARK    1  A    between atoms: C_1  and  C_3 
REMARK    2  A    between atoms: C_2  and  C_8 
REMARK    3  A    between atoms: C_2  and  C_17 
REMARK    4  A    between atoms: C_2  and  N_7 
REMARK    5  A    between atoms: C_3  and  C_4 
REMARK    6  A    between atoms: C_3  and  N_20 
REMARK    7  A    between atoms: C_4  and  C_13 
REMARK    8  A    between atoms: C_8  and  C_9 
REMARK    9  A    between atoms: C_9  and  Se_10 
ROOT
HETATM    1  C           1     -21.565  -6.553  -4.240  0.00  0.00     0.249 C 
HETATM    2  N           1     -21.076  -5.536  -5.014  0.00  0.00    -0.345 N 
HETATM    3  H           1     -20.549  -4.784  -4.589  0.00  0.00     0.163 HD
HETATM    4  O           1     -22.193  -7.451  -4.747  0.00  0.00    -0.271 OA
ENDROOT
BRANCH   1   5
HETATM    5  C           1     -21.318  -6.553  -2.751  0.00  0.00     0.278 C 
BRANCH   5   6
HETATM    6  C           1     -21.420  -7.976  -2.217  0.00  0.00     0.021 C 
HETATM    7  C           1     -20.021  -8.548  -2.024  0.00  0.00     0.012 C 
BRANCH   6   8
HETATM    8  C           1     -22.152  -7.965  -0.881  0.00  0.00     0.002 C 
HETATM    9  C           1     -21.271  -8.604   0.184  0.00  0.00     0.005 C 
ENDBRANCH   6   8
ENDBRANCH   5   6
BRANCH   5  10
HETATM   10  N           1     -22.344  -5.692  -2.075  0.00  0.00    -0.066 N 
HETATM   11  H           1     -22.131  -5.633  -1.053  0.00  0.00     0.275 HD
HETATM   12  H           1     -23.292  -6.110  -2.210  0.00  0.00     0.275 HD
HETATM   13  H           1     -22.322  -4.733  -2.491  0.00  0.00     0.275 HD
ENDBRANCH   5  10
ENDBRANCH   1   5
BRANCH   2  14
HETATM   14  C           1     -21.312  -5.537  -6.445  0.00  0.00     0.185 C 
BRANCH  14  15
HETATM   15  C           1     -21.832  -4.171  -6.873  0.00  0.00     0.036 C 
BRANCH  15  16
HETATM   16  C           1     -23.122  -4.343  -7.664  0.00  0.00     0.003 C 
BRANCH  16  17
HETATM   17 Se           1     -22.811  -3.866  -9.528  0.00  0.00     0.000 Se
HETATM   18  C           1     -24.676  -3.442  -9.902  0.00  0.00     0.000 C 
ENDBRANCH  16  17
ENDBRANCH  15  16
ENDBRANCH  14  15
BRANCH  14  19
HETATM   19  C           1     -20.023  -5.835  -7.168  0.00  0.00     0.196 C 
HETATM   20  O           1     -19.429  -6.917  -6.967  0.00  0.00    -0.646 OA
HETATM   21  O           1     -19.548  -5.001  -7.970  0.00  0.00    -0.646 OA
ENDBRANCH  14  19
ENDBRANCH   2  14
TORSDOF 9
ENDMDL
MODEL 6
REMARK VINA RESULT:      -5.6     14.255     16.330
REMARK  9 active torsions:
REMARK  status: ('A' for Active; 'I' for Inactive)
REMARK       I    between atoms: C_1  and  N_7 
REMARK    1  A    between atoms: C_1  and  C_3 
REMARK    2  A    between atoms: C_2  and  C_8 
REMARK    3  A    between atoms: C_2  and  C_17 
REMARK    4  A    between atoms: C_2  and  N_7 
REMARK    5  A    between atoms: C_3  and  C_4 
REMARK    6  A    between atoms: C_3  and  N_20 
REMARK    7  A    between atoms: C_4  and  C_13 
REMARK    8  A    between atoms: C_8  and  C_9 
REMARK    9  A    between atoms: C_9  and  Se_10 
ROOT
HETATM    1  C           1     -21.618  -5.101  -6.950  0.00  0.00     0.249 C 
HETATM    2  N           1     -21.670  -6.367  -6.433  0.00  0.00    -0.345 N 
HETATM    3  H           1     -22.159  -7.098  -6.933  0.00  0.00     0.163 HD
HETATM    4  O           1     -21.033  -4.229  -6.354  0.00  0.00    -0.271 OA
ENDROOT
BRANCH   1   5
HETATM    5  C           1     -22.292  -4.795  -8.265  0.00  0.00     0.278 C 
BRANCH   5   6
HETATM    6  C           1     -21.368  -3.940  -9.124  0.00  0.00     0.021 C 
HETATM    7  C           1     -20.134  -4.749  -9.503  0.00  0.00     0.012 C 
BRANCH   6   8
HETATM    8  C           1     -22.103  -3.513 -10.388  0.00  0.00     0.002 C 
HETATM    9  C           1     -21.503  -4.231 -11.590  0.00  0.00     0.005 C 
ENDBRANCH   6   8
ENDBRANCH   5   6
BRANCH   5  10
HETATM   10  N           1     -23.568  -4.048  -8.011  0.00  0.00    -0.066 N 
HETATM   11  H           1     -24.373  -4.592  -8.397  0.00  0.00     0.275 HD
HETATM   12  H           1     -23.523  -3.113  -8.476  0.00  0.00     0.275 HD
HETATM   13  H           1     -23.696  -3.920  -6.981  0.00  0.00     0.275 HD
ENDBRANCH   5  10
ENDBRANCH   1   5
BRANCH   2  14
HETATM   14  C           1     -21.022  -6.662  -5.170  0.00  0.00     0.185 C 
BRANCH  14  15
HETATM   15  C           1     -22.049  -6.602  -4.047  0.00  0.00     0.036 C 
BRANCH  15  16
HETATM   16  C           1     -21.394  -6.053  -2.787  0.00  0.00     0.003 C 
BRANCH  16  17
HETATM   17 Se           1     -22.153  -6.935  -1.223  0.00  0.00     0.000 Se
HETATM   18  C           1     -20.816  -8.353  -1.170  0.00  0.00     0.000 C 
ENDBRANCH  16  17
ENDBRANCH  15  16
ENDBRANCH  14  15
BRANCH  14  19
HETATM   19  C           1     -20.414  -8.041  -5.225  0.00  0.00     0.196 C 
HETATM   20  O           1     -21.024  -9.013  -4.728  0.00  0.00    -0.646 OA
HETATM   21  O           1     -19.302  -8.213  -5.770  0.00  0.00    -0.646 OA
ENDBRANCH  14  19
ENDBRANCH   2  14
TORSDOF 9
ENDMDL
MODEL 7
REMARK VINA RESULT:      -5.5     10.848     12.421
REMARK  9 active torsions:
REMARK  status: ('A' for Active; 'I' for Inactive)
REMARK       I    between atoms: C_1  and  N_7 
REMARK    1  A    between atoms: C_1  and  C_3 
REMARK    2  A    between atoms: C_2  and  C_8 
REMARK    3  A    between atoms: C_2  and  C_17 
REMARK    4  A    between atoms: C_2  and  N_7 
REMARK    5  A    between atoms: C_3  and  C_4 
REMARK    6  A    between atoms: C_3  and  N_20 
REMARK    7  A    between atoms: C_4  and  C_13 
REMARK    8  A    between atoms: C_8  and  C_9 
REMARK    9  A    between atoms: C_9  and  Se_10 
ROOT
HETATM    1  C           1     -27.075  -6.074 -19.232  0.00  0.00     0.249 C 
HETATM    2  N           1     -26.427  -6.633 -18.163  0.00  0.00    -0.345 N 
HETATM    3  H           1     -25.665  -7.281 -18.316  0.00  0.00     0.163 HD
HETATM    4  O           1     -27.984  -5.300 -19.050  0.00  0.00    -0.271 OA
ENDROOT
BRANCH   1   5
HETATM    5  C           1     -26.652  -6.425 -20.638  0.00  0.00     0.278 C 
BRANCH   5   6
HETATM    6  C           1     -26.207  -7.881 -20.688  0.00  0.00     0.021 C 
HETATM    7  C           1     -27.353  -8.745 -21.200  0.00  0.00     0.012 C 
BRANCH   6   8
HETATM    8  C           1     -25.014  -8.015 -21.625  0.00  0.00     0.002 C 
HETATM    9  C           1     -23.745  -8.213 -20.807  0.00  0.00     0.005 C 
ENDBRANCH   6   8
ENDBRANCH   5   6
BRANCH   5  10
HETATM   10  N           1     -25.513  -5.541 -21.051  0.00  0.00    -0.066 N 
HETATM   11  H           1     -25.535  -5.405 -22.087  0.00  0.00     0.275 HD
HETATM   12  H           1     -24.608  -5.988 -20.778  0.00  0.00     0.275 HD
HETATM   13  H           1     -25.601  -4.614 -20.576  0.00  0.00     0.275 HD
ENDBRANCH   5  10
ENDBRANCH   1   5
BRANCH   2  14
HETATM   14  C           1     -26.833  -6.295 -16.813  0.00  0.00     0.185 C 
BRANCH  14  15
HETATM   15  C           1     -27.978  -7.203 -16.386  0.00  0.00     0.036 C 
BRANCH  15  16
HETATM   16  C           1     -29.074  -6.368 -15.738  0.00  0.00     0.003 C 
BRANCH  16  17
HETATM   17 Se           1     -30.554  -6.153 -16.990  0.00  0.00     0.000 Se
HETATM   18  C           1     -30.106  -7.731 -18.043  0.00  0.00     0.000 C 
ENDBRANCH  16  17
ENDBRANCH  15  16
ENDBRANCH  14  15
BRANCH  14  19
HETATM   19  C           1     -25.666  -6.481 -15.875  0.00  0.00     0.196 C 
HETATM   20  O           1     -25.310  -7.631 -15.540  0.00  0.00    -0.646 OA
HETATM   21  O           1     -25.053  -5.484 -15.435  0.00  0.00    -0.646 OA
ENDBRANCH  14  19
ENDBRANCH   2  14
TORSDOF 9
ENDMDL
MODEL 8
REMARK VINA RESULT:      -5.5     15.157     17.291
REMARK  9 active torsions:
REMARK  status: ('A' for Active; 'I' for Inactive)
REMARK       I    between atoms: C_1  and  N_7 
REMARK    1  A    between atoms: C_1  and  C_3 
REMARK    2  A    between atoms: C_2  and  C_8 
REMARK    3  A    between atoms: C_2  and  C_17 
REMARK    4  A    between atoms: C_2  and  N_7 
REMARK    5  A    between atoms: C_3  and  C_4 
REMARK    6  A    between atoms: C_3  and  N_20 
REMARK    7  A    between atoms: C_4  and  C_13 
REMARK    8  A    between atoms: C_8  and  C_9 
REMARK    9  A    between atoms: C_9  and  Se_10 
ROOT
HETATM    1  C           1     -21.714  -5.563  -5.811  0.00  0.00     0.249 C 
HETATM    2  N           1     -20.973  -6.394  -5.015  0.00  0.00    -0.345 N 
HETATM    3  H           1     -19.963  -6.339  -5.027  0.00  0.00     0.163 HD
HETATM    4  O           1     -22.920  -5.629  -5.796  0.00  0.00    -0.271 OA
ENDROOT
BRANCH   1   5
HETATM    5  C           1     -21.024  -4.564  -6.707  0.00  0.00     0.278 C 
BRANCH   5   6
HETATM    6  C           1     -21.392  -4.842  -8.159  0.00  0.00     0.021 C 
HETATM    7  C           1     -22.386  -3.793  -8.641  0.00  0.00     0.012 C 
BRANCH   6   8
HETATM    8  C           1     -20.137  -4.784  -9.020  0.00  0.00     0.002 C 
HETATM    9  C           1     -20.491  -4.240 -10.397  0.00  0.00     0.005 C 
ENDBRANCH   6   8
ENDBRANCH   5   6
BRANCH   5  10
HETATM   10  N           1     -19.539  -4.684  -6.538  0.00  0.00    -0.066 N 
HETATM   11  H           1     -19.059  -4.003  -7.170  0.00  0.00     0.275 HD
HETATM   12  H           1     -19.238  -5.655  -6.778  0.00  0.00     0.275 HD
HETATM   13  H           1     -19.284  -4.475  -5.545  0.00  0.00     0.275 HD
ENDBRANCH   5  10
ENDBRANCH   1   5
BRANCH   2  14
HETATM   14  C           1     -21.637  -7.354  -4.154  0.00  0.00     0.185 C 
BRANCH  14  15
HETATM   15  C           1     -20.915  -8.692  -4.236  0.00  0.00     0.036 C 
BRANCH  15  16
HETATM   16  C           1     -19.578  -8.506  -4.941  0.00  0.00     0.003 C 
BRANCH  16  17
HETATM   17 Se           1     -18.467 -10.083  -4.654  0.00  0.00     0.000 Se
HETATM   18  C           1     -17.714  -9.447  -2.973  0.00  0.00     0.000 C 
ENDBRANCH  16  17
ENDBRANCH  15  16
ENDBRANCH  14  15
BRANCH  14  19
HETATM   19  C           1     -21.612  -6.854  -2.731  0.00  0.00     0.196 C 
HETATM   20  O           1     -20.829  -7.365  -1.902  0.00  0.00    -0.646 OA
HETATM   21  O           1     -22.375  -5.926  -2.381  0.00  0.00    -0.646 OA
ENDBRANCH  14  19
ENDBRANCH   2  14
TORSDOF 9
ENDMDL
MODEL 9
REMARK VINA RESULT:      -5.5     14.829     16.933
REMARK  9 active torsions:
REMARK  status: ('A' for Active; 'I' for Inactive)
REMARK       I    between atoms: C_1  and  N_7 
REMARK    1  A    between atoms: C_1  and  C_3 
REMARK    2  A    between atoms: C_2  and  C_8 
REMARK    3  A    between atoms: C_2  and  C_17 
REMARK    4  A    between atoms: C_2  and  N_7 
REMARK    5  A    between atoms: C_3  and  C_4 
REMARK    6  A    between atoms: C_3  and  N_20 
REMARK    7  A    between atoms: C_4  and  C_13 
REMARK    8  A    between atoms: C_8  and  C_9 
REMARK    9  A    between atoms: C_9  and  Se_10 
ROOT
HETATM    1  C           1     -21.667  -5.555  -5.808  0.00  0.00     0.249 C 
HETATM    2  N           1     -20.920  -6.378  -5.009  0.00  0.00    -0.345 N 
HETATM    3  H           1     -19.910  -6.313  -5.019  0.00  0.00     0.163 HD
HETATM    4  O           1     -22.872  -5.632  -5.795  0.00  0.00    -0.271 OA
ENDROOT
BRANCH   1   5
HETATM    5  C           1     -20.985  -4.552  -6.705  0.00  0.00     0.278 C 
BRANCH   5   6
HETATM    6  C           1     -21.352  -4.833  -8.156  0.00  0.00     0.021 C 
HETATM    7  C           1     -22.368  -3.801  -8.632  0.00  0.00     0.012 C 
BRANCH   6   8
HETATM    8  C           1     -20.101  -4.747  -9.021  0.00  0.00     0.002 C 
HETATM    9  C           1     -20.491  -4.358 -10.440  0.00  0.00     0.005 C 
ENDBRANCH   6   8
ENDBRANCH   5   6
BRANCH   5  10
HETATM   10  N           1     -19.498  -4.662  -6.537  0.00  0.00    -0.066 N 
HETATM   11  H           1     -19.030  -3.875  -7.043  0.00  0.00     0.275 HD
HETATM   12  H           1     -19.169  -5.573  -6.929  0.00  0.00     0.275 HD
HETATM   13  H           1     -19.258  -4.613  -5.520  0.00  0.00     0.275 HD
ENDBRANCH   5  10
ENDBRANCH   1   5
BRANCH   2  14
HETATM   14  C           1     -21.576  -7.341  -4.146  0.00  0.00     0.185 C 
BRANCH  14  15
HETATM   15  C           1     -20.823  -8.664  -4.199  0.00  0.00     0.036 C 
BRANCH  15  16
HETATM   16  C           1     -21.797  -9.812  -3.974  0.00  0.00     0.003 C 
BRANCH  16  17
HETATM   17 Se           1     -21.207 -10.875  -2.449  0.00  0.00     0.000 Se
HETATM   18  C           1     -22.603 -10.230  -1.251  0.00  0.00     0.000 C 
ENDBRANCH  16  17
ENDBRANCH  15  16
ENDBRANCH  14  15
BRANCH  14  19
HETATM   19  C           1     -21.586  -6.824  -2.729  0.00  0.00     0.196 C 
HETATM   20  O           1     -20.758  -7.257  -1.899  0.00  0.00    -0.646 OA
HETATM   21  O           1     -22.423  -5.960  -2.386  0.00  0.00    -0.646 OA
ENDBRANCH  14  19
ENDBRANCH   2  14
TORSDOF 9
ENDMDL
