MODEL 1
REMARK VINA RESULT:      -7.8      0.000      0.000
REMARK  8 active torsions:
REMARK  status: ('A' for Active; 'I' for Inactive)
REMARK    1  A    between atoms: N_2  and  C_18 
REMARK    2  A    between atoms: C_5  and  C_7 
REMARK    3  A    between atoms: C_7  and  C_8 
REMARK    4  A    between atoms: C_7  and  N_19 
REMARK    5  A    between atoms: C_8  and  C_9 
REMARK       I    between atoms: C_17  and  N_19 
REMARK    6  A    between atoms: C_17  and  C_18 
REMARK    7  A    between atoms: C_18  and  C_24 
REMARK    8  A    between atoms: C_24  and  C_25 
REMARK       I    between atoms: C_25  and  N_26 
ROOT
HETATM    1  O           1     -37.533  -0.809 -13.453  0.00  0.00    -0.271 OA
HETATM    2  C           1     -36.541  -0.367 -12.921  0.00  0.00     0.249 C 
HETATM    3  N           1     -36.584   0.027 -11.611  0.00  0.00    -0.344 N 
HETATM    4  H           1     -36.828   0.981 -11.376  0.00  0.00     0.163 HD
ENDROOT
BRANCH   2   5
HETATM    5  C           1     -35.256  -0.246 -13.703  0.00  0.00     0.283 C 
BRANCH   5   6
HETATM    6  N           1     -35.016  -1.516 -14.465  0.00  0.00    -0.066 N 
HETATM    7  H           1     -34.903  -2.310 -13.795  0.00  0.00     0.275 HD
HETATM    8  H           1     -35.831  -1.705 -15.092  0.00  0.00     0.275 HD
HETATM    9  H           1     -34.148  -1.419 -15.040  0.00  0.00     0.275 HD
ENDBRANCH   5   6
BRANCH   5  10
HETATM   10  C           1     -35.363   0.918 -14.680  0.00  0.00     0.145 C 
BRANCH  10  11
HETATM   11  C           1     -36.351   0.574 -15.767  0.00  0.00     0.217 C 
HETATM   12  O           1     -36.035  -0.183 -16.654  0.00  0.00    -0.274 OA
HETATM   13  N           1     -37.607   1.119 -15.748  0.00  0.00    -0.370 N 
HETATM   14  H           1     -38.270   0.887 -16.477  0.00  0.00     0.159 HD
HETATM   15  H           1     -37.873   1.752 -15.005  0.00  0.00     0.159 HD
ENDBRANCH  10  11
ENDBRANCH   5  10
ENDBRANCH   2   5
BRANCH   3  16
HETATM   16  C           1     -36.283  -0.925 -10.559  0.00  0.00     0.189 C 
BRANCH  16  17
HETATM   17  C           1     -36.758  -0.377  -9.235  0.00  0.00     0.197 C 
HETATM   18  O           1     -35.928   0.039  -8.397  0.00  0.00    -0.646 OA
HETATM   19  O           1     -37.980  -0.339  -8.976  0.00  0.00    -0.646 OA
ENDBRANCH  16  17
BRANCH  16  20
HETATM   20  C           1     -34.778  -1.156 -10.502  0.00  0.00     0.074 C 
BRANCH  20  21
HETATM   21  C           1     -34.478  -2.581 -10.851  0.00  0.00    -0.056 A 
HETATM   22  C           1     -35.487  -3.542 -10.782  0.00  0.00     0.007 A 
HETATM   23  C           1     -35.208  -4.870 -11.107  0.00  0.00     0.001 A 
HETATM   24  C           1     -33.921  -5.236 -11.501  0.00  0.00     0.000 A 
HETATM   25  C           1     -32.913  -4.275 -11.568  0.00  0.00     0.001 A 
HETATM   26  C           1     -33.191  -2.947 -11.244  0.00  0.00     0.007 A 
ENDBRANCH  20  21
ENDBRANCH  16  20
ENDBRANCH   3  16
TORSDOF 8
ENDMDL
MODEL 2
REMARK VINA RESULT:      -7.7      2.016      2.770
REMARK  8 active torsions:
REMARK  status: ('A' for Active; 'I' for Inactive)
REMARK    1  A    between atoms: N_2  and  C_18 
REMARK    2  A    between atoms: C_5  and  C_7 
REMARK    3  A    between atoms: C_7  and  C_8 
REMARK    4  A    between atoms: C_7  and  N_19 
REMARK    5  A    between atoms: C_8  and  C_9 
REMARK       I    between atoms: C_17  and  N_19 
REMARK    6  A    between atoms: C_17  and  C_18 
REMARK    7  A    between atoms: C_18  and  C_24 
REMARK    8  A    between atoms: C_24  and  C_25 
REMARK       I    between atoms: C_25  and  N_26 
ROOT
HETATM    1  O           1     -36.266   0.831 -14.623  0.00  0.00    -0.271 OA
HETATM    2  C           1     -35.836  -0.297 -14.689  0.00  0.00     0.249 C 
HETATM    3  N           1     -34.937  -0.743 -13.757  0.00  0.00    -0.344 N 
HETATM    4  H           1     -33.945  -0.625 -13.915  0.00  0.00     0.163 HD
ENDROOT
BRANCH   2   5
HETATM    5  C           1     -36.287  -1.212 -15.800  0.00  0.00     0.283 C 
BRANCH   5   6
HETATM    6  N           1     -37.474  -0.608 -16.492  0.00  0.00    -0.066 N 
HETATM    7  H           1     -38.180  -1.353 -16.689  0.00  0.00     0.275 HD
HETATM    8  H           1     -37.901   0.121 -15.877  0.00  0.00     0.275 HD
HETATM    9  H           1     -37.169  -0.171 -17.391  0.00  0.00     0.275 HD
ENDBRANCH   5   6
BRANCH   5  10
HETATM   10  C           1     -35.155  -1.391 -16.803  0.00  0.00     0.145 C 
BRANCH  10  11
HETATM   11  C           1     -34.473  -2.715 -16.562  0.00  0.00     0.217 C 
HETATM   12  O           1     -34.683  -3.325 -15.541  0.00  0.00    -0.274 OA
HETATM   13  N           1     -33.616  -3.224 -17.501  0.00  0.00    -0.370 N 
HETATM   14  H           1     -33.159  -4.113 -17.339  0.00  0.00     0.159 HD
HETATM   15  H           1     -33.441  -2.714 -18.356  0.00  0.00     0.159 HD
ENDBRANCH  10  11
ENDBRANCH   5  10
ENDBRANCH   2   5
BRANCH   3  16
HETATM   16  C           1     -35.409  -1.382 -12.544  0.00  0.00     0.189 C 
BRANCH  16  17
HETATM   17  C           1     -36.411  -0.484 -11.860  0.00  0.00     0.197 C 
HETATM   18  O           1     -37.634  -0.721 -11.963  0.00  0.00    -0.646 OA
HETATM   19  O           1     -36.018   0.495 -11.191  0.00  0.00    -0.646 OA
ENDBRANCH  16  17
BRANCH  16  20
HETATM   20  C           1     -34.230  -1.631 -11.612  0.00  0.00     0.074 C 
BRANCH  20  21
HETATM   21  C           1     -34.050  -3.104 -11.416  0.00  0.00    -0.056 A 
HETATM   22  C           1     -35.074  -3.862 -10.847  0.00  0.00     0.007 A 
HETATM   23  C           1     -34.907  -5.235 -10.664  0.00  0.00     0.001 A 
HETATM   24  C           1     -33.716  -5.849 -11.051  0.00  0.00     0.000 A 
HETATM   25  C           1     -32.692  -5.092 -11.619  0.00  0.00     0.001 A 
HETATM   26  C           1     -32.859  -3.719 -11.802  0.00  0.00     0.007 A 
ENDBRANCH  20  21
ENDBRANCH  16  20
ENDBRANCH   3  16
TORSDOF 8
ENDMDL
MODEL 3
REMARK VINA RESULT:      -7.6      2.586      5.066
REMARK  8 active torsions:
REMARK  status: ('A' for Active; 'I' for Inactive)
REMARK    1  A    between atoms: N_2  and  C_18 
REMARK    2  A    between atoms: C_5  and  C_7 
REMARK    3  A    between atoms: C_7  and  C_8 
REMARK    4  A    between atoms: C_7  and  N_19 
REMARK    5  A    between atoms: C_8  and  C_9 
REMARK       I    between atoms: C_17  and  N_19 
REMARK    6  A    between atoms: C_17  and  C_18 
REMARK    7  A    between atoms: C_18  and  C_24 
REMARK    8  A    between atoms: C_24  and  C_25 
REMARK       I    between atoms: C_25  and  N_26 
ROOT
HETATM    1  O           1     -33.640  -1.641 -10.375  0.00  0.00    -0.271 OA
HETATM    2  C           1     -34.789  -1.892 -10.654  0.00  0.00     0.249 C 
HETATM    3  N           1     -35.806  -1.200 -10.054  0.00  0.00    -0.344 N 
HETATM    4  H           1     -36.208  -1.539  -9.189  0.00  0.00     0.163 HD
ENDROOT
BRANCH   2   5
HETATM    5  C           1     -35.101  -2.970 -11.662  0.00  0.00     0.283 C 
BRANCH   5   6
HETATM    6  N           1     -33.999  -3.037 -12.679  0.00  0.00    -0.066 N 
HETATM    7  H           1     -33.094  -2.772 -12.229  0.00  0.00     0.275 HD
HETATM    8  H           1     -33.930  -4.010 -13.052  0.00  0.00     0.275 HD
HETATM    9  H           1     -34.206  -2.375 -13.461  0.00  0.00     0.275 HD
ENDBRANCH   5   6
BRANCH   5  10
HETATM   10  C           1     -35.216  -4.313 -10.952  0.00  0.00     0.145 C 
BRANCH  10  11
HETATM   11  C           1     -34.669  -5.401 -11.841  0.00  0.00     0.217 C 
HETATM   12  O           1     -35.166  -5.605 -12.923  0.00  0.00    -0.274 OA
HETATM   13  N           1     -33.608  -6.158 -11.422  0.00  0.00    -0.370 N 
HETATM   14  H           1     -33.240  -6.889 -12.019  0.00  0.00     0.159 HD
HETATM   15  H           1     -33.190  -5.988 -10.516  0.00  0.00     0.159 HD
ENDBRANCH  10  11
ENDBRANCH   5  10
ENDBRANCH   2   5
BRANCH   3  16
HETATM   16  C           1     -36.307   0.020 -10.658  0.00  0.00     0.189 C 
BRANCH  16  17
HETATM   17  C           1     -36.955   0.876  -9.597  0.00  0.00     0.197 C 
HETATM   18  O           1     -36.370   1.070  -8.509  0.00  0.00    -0.646 OA
HETATM   19  O           1     -38.075   1.391  -9.806  0.00  0.00    -0.646 OA
ENDBRANCH  16  17
BRANCH  16  20
HETATM   20  C           1     -37.336  -0.330 -11.726  0.00  0.00     0.074 C 
BRANCH  20  21
HETATM   21  C           1     -36.806   0.051 -13.074  0.00  0.00    -0.056 A 
HETATM   22  C           1     -37.626  -0.046 -14.197  0.00  0.00     0.007 A 
HETATM   23  C           1     -37.132   0.308 -15.453  0.00  0.00     0.001 A 
HETATM   24  C           1     -35.819   0.759 -15.584  0.00  0.00     0.000 A 
HETATM   25  C           1     -34.999   0.856 -14.460  0.00  0.00     0.001 A 
HETATM   26  C           1     -35.493   0.502 -13.204  0.00  0.00     0.007 A 
ENDBRANCH  20  21
ENDBRANCH  16  20
ENDBRANCH   3  16
TORSDOF 8
ENDMDL
MODEL 4
REMARK VINA RESULT:      -7.2      1.441      1.845
REMARK  8 active torsions:
REMARK  status: ('A' for Active; 'I' for Inactive)
REMARK    1  A    between atoms: N_2  and  C_18 
REMARK    2  A    between atoms: C_5  and  C_7 
REMARK    3  A    between atoms: C_7  and  C_8 
REMARK    4  A    between atoms: C_7  and  N_19 
REMARK    5  A    between atoms: C_8  and  C_9 
REMARK       I    between atoms: C_17  and  N_19 
REMARK    6  A    between atoms: C_17  and  C_18 
REMARK    7  A    between atoms: C_18  and  C_24 
REMARK    8  A    between atoms: C_24  and  C_25 
REMARK       I    between atoms: C_25  and  N_26 
ROOT
HETATM    1  O           1     -35.041  -1.797 -14.031  0.00  0.00    -0.271 OA
HETATM    2  C           1     -35.629  -0.987 -13.353  0.00  0.00     0.249 C 
HETATM    3  N           1     -36.438  -1.407 -12.332  0.00  0.00    -0.344 N 
HETATM    4  H           1     -37.418  -1.595 -12.506  0.00  0.00     0.163 HD
ENDROOT
BRANCH   2   5
HETATM    5  C           1     -35.472   0.487 -13.634  0.00  0.00     0.283 C 
BRANCH   5   6
HETATM    6  N           1     -34.354   1.037 -12.798  0.00  0.00    -0.066 N 
HETATM    7  H           1     -34.401   2.081 -12.795  0.00  0.00     0.275 HD
HETATM    8  H           1     -34.445   0.683 -11.819  0.00  0.00     0.275 HD
HETATM    9  H           1     -33.438   0.732 -13.197  0.00  0.00     0.275 HD
ENDBRANCH   5   6
BRANCH   5  10
HETATM   10  C           1     -35.150   0.692 -15.108  0.00  0.00     0.145 C 
BRANCH  10  11
HETATM   11  C           1     -36.337   0.286 -15.945  0.00  0.00     0.217 C 
HETATM   12  O           1     -37.408   0.819 -15.773  0.00  0.00    -0.274 OA
HETATM   13  N           1     -36.201  -0.684 -16.901  0.00  0.00    -0.370 N 
HETATM   14  H           1     -36.998  -0.956 -17.463  0.00  0.00     0.159 HD
HETATM   15  H           1     -35.304  -1.130 -17.046  0.00  0.00     0.159 HD
ENDBRANCH  10  11
ENDBRANCH   5  10
ENDBRANCH   2   5
BRANCH   3  16
HETATM   16  C           1     -35.892  -1.584 -11.001  0.00  0.00     0.189 C 
BRANCH  16  17
HETATM   17  C           1     -36.200  -0.366 -10.165  0.00  0.00     0.197 C 
HETATM   18  O           1     -35.845  -0.324  -8.967  0.00  0.00    -0.646 OA
HETATM   19  O           1     -36.810   0.601 -10.671  0.00  0.00    -0.646 OA
ENDBRANCH  16  17
BRANCH  16  20
HETATM   20  C           1     -34.383  -1.768 -11.093  0.00  0.00     0.074 C 
BRANCH  20  21
HETATM   21  C           1     -34.057  -3.230 -11.090  0.00  0.00    -0.056 A 
HETATM   22  C           1     -32.861  -3.678 -11.651  0.00  0.00     0.007 A 
HETATM   23  C           1     -32.557  -5.040 -11.649  0.00  0.00     0.001 A 
HETATM   24  C           1     -33.449  -5.952 -11.085  0.00  0.00     0.000 A 
HETATM   25  C           1     -34.645  -5.504 -10.525  0.00  0.00     0.001 A 
HETATM   26  C           1     -34.949  -4.142 -10.527  0.00  0.00     0.007 A 
ENDBRANCH  20  21
ENDBRANCH  16  20
ENDBRANCH   3  16
TORSDOF 8
ENDMDL
MODEL 5
REMARK VINA RESULT:      -6.5     17.053     18.814
REMARK  8 active torsions:
REMARK  status: ('A' for Active; 'I' for Inactive)
REMARK    1  A    between atoms: N_2  and  C_18 
REMARK    2  A    between atoms: C_5  and  C_7 
REMARK    3  A    between atoms: C_7  and  C_8 
REMARK    4  A    between atoms: C_7  and  N_19 
REMARK    5  A    between atoms: C_8  and  C_9 
REMARK       I    between atoms: C_17  and  N_19 
REMARK    6  A    between atoms: C_17  and  C_18 
REMARK    7  A    between atoms: C_18  and  C_24 
REMARK    8  A    between atoms: C_24  and  C_25 
REMARK       I    between atoms: C_25  and  N_26 
ROOT
HETATM    1  O           1     -22.131  -5.715  -2.407  0.00  0.00    -0.271 OA
HETATM    2  C           1     -21.701  -6.785  -2.768  0.00  0.00     0.249 C 
HETATM    3  N           1     -21.081  -7.612  -1.869  0.00  0.00    -0.344 N 
HETATM    4  H           1     -20.081  -7.544  -1.725  0.00  0.00     0.163 HD
ENDROOT
BRANCH   2   5
HETATM    5  C           1     -21.845  -7.210  -4.208  0.00  0.00     0.283 C 
BRANCH   5   6
HETATM    6  N           1     -22.712  -6.223  -4.934  0.00  0.00    -0.066 N 
HETATM    7  H           1     -22.193  -5.323  -5.051  0.00  0.00     0.275 HD
HETATM    8  H           1     -22.961  -6.605  -5.874  0.00  0.00     0.275 HD
HETATM    9  H           1     -23.584  -6.053  -4.383  0.00  0.00     0.275 HD
ENDBRANCH   5   6
BRANCH   5  10
HETATM   10  C           1     -20.472  -7.255  -4.865  0.00  0.00     0.145 C 
BRANCH  10  11
HETATM   11  C           1     -20.334  -6.101  -5.826  0.00  0.00     0.217 C 
HETATM   12  O           1     -20.249  -4.971  -5.405  0.00  0.00    -0.274 OA
HETATM   13  N           1     -20.305  -6.332  -7.175  0.00  0.00    -0.370 N 
HETATM   14  H           1     -20.212  -5.557  -7.819  0.00  0.00     0.159 HD
HETATM   15  H           1     -20.376  -7.278  -7.528  0.00  0.00     0.159 HD
ENDBRANCH  10  11
ENDBRANCH   5  10
ENDBRANCH   2   5
BRANCH   3  16
HETATM   16  C           1     -21.857  -8.584  -1.124  0.00  0.00     0.189 C 
BRANCH  16  17
HETATM   17  C           1     -22.301  -7.975   0.184  0.00  0.00     0.197 C 
HETATM   18  O           1     -21.524  -7.961   1.162  0.00  0.00    -0.646 OA
HETATM   19  O           1     -23.447  -7.484   0.288  0.00  0.00    -0.646 OA
ENDBRANCH  16  17
BRANCH  16  20
HETATM   20  C           1     -20.999  -9.811  -0.846  0.00  0.00     0.074 C 
BRANCH  20  21
HETATM   21  C           1     -21.873 -10.940  -0.394  0.00  0.00    -0.056 A 
HETATM   22  C           1     -21.453 -11.776   0.640  0.00  0.00     0.007 A 
HETATM   23  C           1     -22.267 -12.827   1.062  0.00  0.00     0.001 A 
HETATM   24  C           1     -23.501 -13.042   0.449  0.00  0.00     0.000 A 
HETATM   25  C           1     -23.921 -12.207  -0.586  0.00  0.00     0.001 A 
HETATM   26  C           1     -23.107 -11.155  -1.008  0.00  0.00     0.007 A 
ENDBRANCH  20  21
ENDBRANCH  16  20
ENDBRANCH   3  16
TORSDOF 8
ENDMDL
MODEL 6
REMARK VINA RESULT:      -6.5     15.661     18.245
REMARK  8 active torsions:
REMARK  status: ('A' for Active; 'I' for Inactive)
REMARK    1  A    between atoms: N_2  and  C_18 
REMARK    2  A    between atoms: C_5  and  C_7 
REMARK    3  A    between atoms: C_7  and  C_8 
REMARK    4  A    between atoms: C_7  and  N_19 
REMARK    5  A    between atoms: C_8  and  C_9 
REMARK       I    between atoms: C_17  and  N_19 
REMARK    6  A    between atoms: C_17  and  C_18 
REMARK    7  A    between atoms: C_18  and  C_24 
REMARK    8  A    between atoms: C_24  and  C_25 
REMARK       I    between atoms: C_25  and  N_26 
ROOT
HETATM    1  O           1     -21.564  -5.356  -2.306  0.00  0.00    -0.271 OA
HETATM    2  C           1     -21.935  -6.422  -2.738  0.00  0.00     0.249 C 
HETATM    3  N           1     -22.557  -6.489  -3.956  0.00  0.00    -0.344 N 
HETATM    4  H           1     -23.563  -6.401  -4.016  0.00  0.00     0.163 HD
ENDROOT
BRANCH   2   5
HETATM    5  C           1     -21.714  -7.679  -1.934  0.00  0.00     0.283 C 
BRANCH   5   6
HETATM    6  N           1     -20.242  -7.891  -1.733  0.00  0.00    -0.066 N 
HETATM    7  H           1     -20.087  -8.770  -1.190  0.00  0.00     0.275 HD
HETATM    8  H           1     -19.773  -7.971  -2.664  0.00  0.00     0.275 HD
HETATM    9  H           1     -19.842  -7.081  -1.208  0.00  0.00     0.275 HD
ENDBRANCH   5   6
BRANCH   5  10
HETATM   10  C           1     -22.394  -7.541  -0.578  0.00  0.00     0.145 C 
BRANCH  10  11
HETATM   11  C           1     -22.335  -8.859   0.153  0.00  0.00     0.217 C 
HETATM   12  O           1     -21.432  -9.082   0.925  0.00  0.00    -0.274 OA
HETATM   13  N           1     -23.303  -9.803  -0.058  0.00  0.00    -0.370 N 
HETATM   14  H           1     -23.263 -10.687   0.433  0.00  0.00     0.159 HD
HETATM   15  H           1     -24.060  -9.617  -0.704  0.00  0.00     0.159 HD
ENDBRANCH  10  11
ENDBRANCH   5  10
ENDBRANCH   2   5
BRANCH   3  16
HETATM   16  C           1     -21.773  -6.685  -5.160  0.00  0.00     0.189 C 
BRANCH  16  17
HETATM   17  C           1     -20.964  -7.952  -5.032  0.00  0.00     0.197 C 
HETATM   18  O           1     -21.533  -9.064  -5.077  0.00  0.00    -0.646 OA
HETATM   19  O           1     -19.724  -7.890  -4.881  0.00  0.00    -0.646 OA
ENDBRANCH  16  17
BRANCH  16  20
HETATM   20  C           1     -20.834  -5.500  -5.351  0.00  0.00     0.074 C 
BRANCH  20  21
HETATM   21  C           1     -20.940  -5.001  -6.759  0.00  0.00    -0.056 A 
HETATM   22  C           1     -22.161  -4.531  -7.241  0.00  0.00     0.007 A 
HETATM   23  C           1     -22.261  -4.066  -8.553  0.00  0.00     0.001 A 
HETATM   24  C           1     -21.139  -4.070  -9.381  0.00  0.00     0.000 A 
HETATM   25  C           1     -19.918  -4.541  -8.899  0.00  0.00     0.001 A 
HETATM   26  C           1     -19.818  -5.006  -7.587  0.00  0.00     0.007 A 
ENDBRANCH  20  21
ENDBRANCH  16  20
ENDBRANCH   3  16
TORSDOF 8
ENDMDL
MODEL 7
REMARK VINA RESULT:      -6.5     17.593     20.010
REMARK  8 active torsions:
REMARK  status: ('A' for Active; 'I' for Inactive)
REMARK    1  A    between atoms: N_2  and  C_18 
REMARK    2  A    between atoms: C_5  and  C_7 
REMARK    3  A    between atoms: C_7  and  C_8 
REMARK    4  A    between atoms: C_7  and  N_19 
REMARK    5  A    between atoms: C_8  and  C_9 
REMARK       I    between atoms: C_17  and  N_19 
REMARK    6  A    between atoms: C_17  and  C_18 
REMARK    7  A    between atoms: C_18  and  C_24 
REMARK    8  A    between atoms: C_24  and  C_25 
REMARK       I    between atoms: C_25  and  N_26 
ROOT
HETATM    1  O           1     -19.496  -9.967  -5.930  0.00  0.00    -0.271 OA
HETATM    2  C           1     -19.353  -9.481  -4.833  0.00  0.00     0.249 C 
HETATM    3  N           1     -19.691  -8.173  -4.613  0.00  0.00    -0.344 N 
HETATM    4  H           1     -19.002  -7.443  -4.747  0.00  0.00     0.163 HD
ENDROOT
BRANCH   2   5
HETATM    5  C           1     -18.802 -10.317  -3.704  0.00  0.00     0.283 C 
BRANCH   5   6
HETATM    6  N           1     -18.024 -11.469  -4.271  0.00  0.00    -0.066 N 
HETATM    7  H           1     -17.858 -11.309  -5.290  0.00  0.00     0.275 HD
HETATM    8  H           1     -17.107 -11.545  -3.777  0.00  0.00     0.275 HD
HETATM    9  H           1     -18.566 -12.353  -4.141  0.00  0.00     0.275 HD
ENDBRANCH   5   6
BRANCH   5  10
HETATM   10  C           1     -17.883  -9.463  -2.840  0.00  0.00     0.145 C 
BRANCH  10  11
HETATM   11  C           1     -16.446  -9.810  -3.137  0.00  0.00     0.217 C 
HETATM   12  O           1     -15.972  -9.551  -4.218  0.00  0.00    -0.274 OA
HETATM   13  N           1     -15.678 -10.419  -2.182  0.00  0.00    -0.370 N 
HETATM   14  H           1     -14.712 -10.652  -2.381  0.00  0.00     0.159 HD
HETATM   15  H           1     -16.073 -10.636  -1.276  0.00  0.00     0.159 HD
ENDBRANCH  10  11
ENDBRANCH   5  10
ENDBRANCH   2   5
BRANCH   3  16
HETATM   16  C           1     -21.035  -7.832  -4.191  0.00  0.00     0.189 C 
BRANCH  16  17
HETATM   17  C           1     -21.699  -6.994  -5.257  0.00  0.00     0.197 C 
HETATM   18  O           1     -21.266  -7.016  -6.429  0.00  0.00    -0.646 OA
HETATM   19  O           1     -22.683  -6.279  -4.967  0.00  0.00    -0.646 OA
ENDBRANCH  16  17
BRANCH  16  20
HETATM   20  C           1     -20.972  -7.042  -2.890  0.00  0.00     0.074 C 
BRANCH  20  21
HETATM   21  C           1     -21.703  -7.787  -1.817  0.00  0.00    -0.056 A 
HETATM   22  C           1     -21.773  -9.179  -1.860  0.00  0.00     0.007 A 
HETATM   23  C           1     -22.455  -9.875  -0.860  0.00  0.00     0.001 A 
HETATM   24  C           1     -23.065  -9.177   0.182  0.00  0.00     0.000 A 
HETATM   25  C           1     -22.996  -7.785   0.224  0.00  0.00     0.001 A 
HETATM   26  C           1     -22.315  -7.089  -0.775  0.00  0.00     0.007 A 
ENDBRANCH  20  21
ENDBRANCH  16  20
ENDBRANCH   3  16
TORSDOF 8
ENDMDL
MODEL 8
REMARK VINA RESULT:      -6.4      5.106      7.538
REMARK  8 active torsions:
REMARK  status: ('A' for Active; 'I' for Inactive)
REMARK    1  A    between atoms: N_2  and  C_18 
REMARK    2  A    between atoms: C_5  and  C_7 
REMARK    3  A    between atoms: C_7  and  C_8 
REMARK    4  A    between atoms: C_7  and  N_19 
REMARK    5  A    between atoms: C_8  and  C_9 
REMARK       I    between atoms: C_17  and  N_19 
REMARK    6  A    between atoms: C_17  and  C_18 
REMARK    7  A    between atoms: C_18  and  C_24 
REMARK    8  A    between atoms: C_24  and  C_25 
REMARK       I    between atoms: C_25  and  N_26 
ROOT
HETATM    1  O           1     -34.684  -2.762 -14.987  0.00  0.00    -0.271 OA
HETATM    2  C           1     -34.200  -3.842 -14.745  0.00  0.00     0.249 C 
HETATM    3  N           1     -33.794  -4.657 -15.768  0.00  0.00    -0.344 N 
HETATM    4  H           1     -34.442  -5.321 -16.173  0.00  0.00     0.163 HD
ENDROOT
BRANCH   2   5
HETATM    5  C           1     -34.044  -4.295 -13.314  0.00  0.00     0.283 C 
BRANCH   5   6
HETATM    6  N           1     -32.584  -4.428 -12.990  0.00  0.00    -0.066 N 
HETATM    7  H           1     -32.470  -5.005 -12.126  0.00  0.00     0.275 HD
HETATM    8  H           1     -32.093  -4.894 -13.786  0.00  0.00     0.275 HD
HETATM    9  H           1     -32.174  -3.480 -12.833  0.00  0.00     0.275 HD
ENDBRANCH   5   6
BRANCH   5  10
HETATM   10  C           1     -34.676  -3.267 -12.384  0.00  0.00     0.145 C 
BRANCH  10  11
HETATM   11  C           1     -33.895  -3.206 -11.095  0.00  0.00     0.217 C 
HETATM   12  O           1     -33.733  -4.208 -10.439  0.00  0.00    -0.274 OA
HETATM   13  N           1     -33.370  -2.016 -10.668  0.00  0.00    -0.370 N 
HETATM   14  H           1     -32.846  -1.976  -9.802  0.00  0.00     0.159 HD
HETATM   15  H           1     -33.505  -1.177 -11.217  0.00  0.00     0.159 HD
ENDBRANCH  10  11
ENDBRANCH   5  10
ENDBRANCH   2   5
BRANCH   3  16
HETATM   16  C           1     -32.438  -4.567 -16.271  0.00  0.00     0.189 C 
BRANCH  16  17
HETATM   17  C           1     -32.331  -3.399 -17.222  0.00  0.00     0.197 C 
HETATM   18  O           1     -31.209  -2.936 -17.520  0.00  0.00    -0.646 OA
HETATM   19  O           1     -33.365  -2.895 -17.712  0.00  0.00    -0.646 OA
ENDBRANCH  16  17
BRANCH  16  20
HETATM   20  C           1     -32.084  -5.853 -17.006  0.00  0.00     0.074 C 
BRANCH  20  21
HETATM   21  C           1     -30.606  -6.084 -16.927  0.00  0.00    -0.056 A 
HETATM   22  C           1     -29.887  -6.397 -18.080  0.00  0.00     0.007 A 
HETATM   23  C           1     -28.510  -6.612 -18.007  0.00  0.00     0.001 A 
HETATM   24  C           1     -27.854  -6.512 -16.780  0.00  0.00     0.000 A 
HETATM   25  C           1     -28.573  -6.200 -15.627  0.00  0.00     0.001 A 
HETATM   26  C           1     -29.950  -5.985 -15.700  0.00  0.00     0.007 A 
ENDBRANCH  20  21
ENDBRANCH  16  20
ENDBRANCH   3  16
TORSDOF 8
ENDMDL
MODEL 9
REMARK VINA RESULT:      -6.3     15.955     18.096
REMARK  8 active torsions:
REMARK  status: ('A' for Active; 'I' for Inactive)
REMARK    1  A    between atoms: N_2  and  C_18 
REMARK    2  A    between atoms: C_5  and  C_7 
REMARK    3  A    between atoms: C_7  and  C_8 
REMARK    4  A    between atoms: C_7  and  N_19 
REMARK    5  A    between atoms: C_8  and  C_9 
REMARK       I    between atoms: C_17  and  N_19 
REMARK    6  A    between atoms: C_17  and  C_18 
REMARK    7  A    between atoms: C_18  and  C_24 
REMARK    8  A    between atoms: C_24  and  C_25 
REMARK       I    between atoms: C_25  and  N_26 
ROOT
HETATM    1  O           1     -19.663  -7.049  -6.460  0.00  0.00    -0.271 OA
HETATM    2  C           1     -20.676  -7.288  -5.846  0.00  0.00     0.249 C 
HETATM    3  N           1     -20.876  -8.534  -5.314  0.00  0.00    -0.344 N 
HETATM    4  H           1     -21.339  -9.249  -5.860  0.00  0.00     0.163 HD
ENDROOT
BRANCH   2   5
HETATM    5  C           1     -21.722  -6.215  -5.668  0.00  0.00     0.283 C 
BRANCH   5   6
HETATM    6  N           1     -21.923  -5.955  -4.203  0.00  0.00    -0.066 N 
HETATM    7  H           1     -22.491  -5.086  -4.079  0.00  0.00     0.275 HD
HETATM    8  H           1     -22.427  -6.763  -3.773  0.00  0.00     0.275 HD
HETATM    9  H           1     -20.995  -5.834  -3.740  0.00  0.00     0.275 HD
ENDBRANCH   5   6
BRANCH   5  10
HETATM   10  C           1     -21.258  -4.935  -6.350  0.00  0.00     0.145 C 
BRANCH  10  11
HETATM   11  C           1     -22.182  -4.612  -7.497  0.00  0.00     0.217 C 
HETATM   12  O           1     -21.751  -4.564  -8.625  0.00  0.00    -0.274 OA
HETATM   13  N           1     -23.509  -4.374  -7.261  0.00  0.00    -0.370 N 
HETATM   14  H           1     -24.130  -4.158  -8.032  0.00  0.00     0.159 HD
HETATM   15  H           1     -23.871  -4.416  -6.317  0.00  0.00     0.159 HD
ENDBRANCH  10  11
ENDBRANCH   5  10
ENDBRANCH   2   5
BRANCH   3  16
HETATM   16  C           1     -20.423  -8.828  -3.968  0.00  0.00     0.189 C 
BRANCH  16  17
HETATM   17  C           1     -19.003  -9.338  -4.017  0.00  0.00     0.197 C 
HETATM   18  O           1     -18.240  -9.154  -3.044  0.00  0.00    -0.646 OA
HETATM   19  O           1     -18.591  -9.946  -5.029  0.00  0.00    -0.646 OA
ENDBRANCH  16  17
BRANCH  16  20
HETATM   20  C           1     -21.324  -9.891  -3.352  0.00  0.00     0.074 C 
BRANCH  20  21
HETATM   21  C           1     -21.874  -9.388  -2.053  0.00  0.00    -0.056 A 
HETATM   22  C           1     -21.536  -8.113  -1.601  0.00  0.00     0.007 A 
HETATM   23  C           1     -22.048  -7.644  -0.391  0.00  0.00     0.001 A 
HETATM   24  C           1     -22.897  -8.451   0.366  0.00  0.00     0.000 A 
HETATM   25  C           1     -23.234  -9.726  -0.086  0.00  0.00     0.001 A 
HETATM   26  C           1     -22.722 -10.196  -1.296  0.00  0.00     0.007 A 
ENDBRANCH  20  21
ENDBRANCH  16  20
ENDBRANCH   3  16
TORSDOF 8
ENDMDL
