MODEL 1
REMARK VINA RESULT:      -6.2      0.000      0.000
REMARK  7 active torsions:
REMARK  status: ('A' for Active; 'I' for Inactive)
REMARK    1  A    between atoms: C_1  and  C_7 
REMARK    2  A    between atoms: C_1  and  C_4 
REMARK    3  A    between atoms: C_1  and  N_13 
REMARK    4  A    between atoms: N_3  and  C_19 
REMARK       I    between atoms: N_13  and  C_20 
REMARK    5  A    between atoms: C_16  and  C_18 
REMARK    6  A    between atoms: C_18  and  C_19 
REMARK    7  A    between atoms: C_19  and  C_20 
ROOT
HETATM    1  O           1     -21.590  -3.469  -7.373  0.00  0.00    -0.271 OA
HETATM    2  H           1     -21.896  -5.684  -9.573  0.00  0.00     0.163 HD
HETATM    3  N           1     -21.990  -4.774  -9.140  0.00  0.00    -0.344 N 
HETATM    4  C           1     -21.478  -4.554  -7.889  0.00  0.00     0.249 C 
ENDROOT
BRANCH   4   5
HETATM    5  C           1     -20.776  -5.670  -7.155  0.00  0.00     0.278 C 
BRANCH   5   6
HETATM    6  N           1     -19.398  -5.223  -6.768  0.00  0.00    -0.066 N 
HETATM    7  H           1     -19.372  -5.018  -5.743  0.00  0.00     0.275 HD
HETATM    8  H           1     -18.711  -5.979  -6.988  0.00  0.00     0.275 HD
HETATM    9  H           1     -19.149  -4.360  -7.302  0.00  0.00     0.275 HD
ENDBRANCH   5   6
BRANCH   5  10
HETATM   10  C           1     -21.563  -6.029  -5.902  0.00  0.00     0.021 C 
HETATM   11  C           1     -21.618  -7.544  -5.753  0.00  0.00     0.012 C 
BRANCH  10  12
HETATM   12  C           1     -20.879  -5.424  -4.683  0.00  0.00     0.002 C 
HETATM   13  C           1     -21.351  -6.142  -3.426  0.00  0.00     0.005 C 
ENDBRANCH  10  12
ENDBRANCH   5  10
ENDBRANCH   4   5
BRANCH   3  14
HETATM   14  C           1     -22.665  -3.702  -9.845  0.00  0.00     0.189 C 
BRANCH  14  15
HETATM   15  C           1     -22.236  -3.707 -11.306  0.00  0.00     0.010 C 
HETATM   16  C           1     -22.898  -2.544 -12.033  0.00  0.00     0.012 C 
HETATM   17  C           1     -20.722  -3.564 -11.390  0.00  0.00     0.012 C 
ENDBRANCH  14  15
BRANCH  14  18
HETATM   18  C           1     -24.158  -3.905  -9.758  0.00  0.00     0.197 C 
HETATM   19  O           1     -24.898  -2.960  -9.409  0.00  0.00    -0.646 OA
HETATM   20  O           1     -24.654  -5.018 -10.034  0.00  0.00    -0.646 OA
ENDBRANCH  14  18
ENDBRANCH   3  14
TORSDOF 7
ENDMDL
MODEL 2
REMARK VINA RESULT:      -5.6      2.818      6.460
REMARK  7 active torsions:
REMARK  status: ('A' for Active; 'I' for Inactive)
REMARK    1  A    between atoms: C_1  and  C_7 
REMARK    2  A    between atoms: C_1  and  C_4 
REMARK    3  A    between atoms: C_1  and  N_13 
REMARK    4  A    between atoms: N_3  and  C_19 
REMARK       I    between atoms: N_13  and  C_20 
REMARK    5  A    between atoms: C_16  and  C_18 
REMARK    6  A    between atoms: C_18  and  C_19 
REMARK    7  A    between atoms: C_19  and  C_20 
ROOT
HETATM    1  O           1     -22.849  -5.750  -5.686  0.00  0.00    -0.271 OA
HETATM    2  H           1     -19.878  -6.316  -4.852  0.00  0.00     0.163 HD
HETATM    3  N           1     -20.886  -6.419  -4.860  0.00  0.00    -0.344 N 
HETATM    4  C           1     -21.648  -5.628  -5.676  0.00  0.00     0.249 C 
ENDROOT
BRANCH   4   5
HETATM    5  C           1     -20.987  -4.601  -6.563  0.00  0.00     0.278 C 
BRANCH   5   6
HETATM    6  N           1     -19.499  -4.683  -6.398  0.00  0.00    -0.066 N 
HETATM    7  H           1     -19.128  -3.749  -6.109  0.00  0.00     0.275 HD
HETATM    8  H           1     -19.268  -5.391  -5.664  0.00  0.00     0.275 HD
HETATM    9  H           1     -19.063  -4.965  -7.305  0.00  0.00     0.275 HD
ENDBRANCH   5   6
BRANCH   5  10
HETATM   10  C           1     -21.352  -4.874  -8.017  0.00  0.00     0.021 C 
HETATM   11  C           1     -22.360  -3.836  -8.491  0.00  0.00     0.012 C 
BRANCH  10  12
HETATM   12  C           1     -20.098  -4.794  -8.877  0.00  0.00     0.002 C 
HETATM   13  C           1     -20.474  -4.353 -10.285  0.00  0.00     0.005 C 
ENDBRANCH  10  12
ENDBRANCH   5  10
ENDBRANCH   4   5
BRANCH   3  14
HETATM   14  C           1     -21.521  -7.406  -4.008  0.00  0.00     0.189 C 
BRANCH  14  15
HETATM   15  C           1     -20.696  -8.686  -4.012  0.00  0.00     0.010 C 
HETATM   16  C           1     -21.583  -9.859  -4.407  0.00  0.00     0.012 C 
HETATM   17  C           1     -19.555  -8.550  -5.013  0.00  0.00     0.012 C 
ENDBRANCH  14  15
BRANCH  14  18
HETATM   18  C           1     -21.611  -6.870  -2.600  0.00  0.00     0.197 C 
HETATM   19  O           1     -22.412  -5.947  -2.333  0.00  0.00    -0.646 OA
HETATM   20  O           1     -20.886  -7.347  -1.702  0.00  0.00    -0.646 OA
ENDBRANCH  14  18
ENDBRANCH   3  14
TORSDOF 7
ENDMDL
MODEL 3
REMARK VINA RESULT:      -5.4      5.496      7.701
REMARK  7 active torsions:
REMARK  status: ('A' for Active; 'I' for Inactive)
REMARK    1  A    between atoms: C_1  and  C_7 
REMARK    2  A    between atoms: C_1  and  C_4 
REMARK    3  A    between atoms: C_1  and  N_13 
REMARK    4  A    between atoms: N_3  and  C_19 
REMARK       I    between atoms: N_13  and  C_20 
REMARK    5  A    between atoms: C_16  and  C_18 
REMARK    6  A    between atoms: C_18  and  C_19 
REMARK    7  A    between atoms: C_19  and  C_20 
ROOT
HETATM    1  O           1     -22.376 -10.587  -3.861  0.00  0.00    -0.271 OA
HETATM    2  H           1     -20.749  -8.519  -2.154  0.00  0.00     0.163 HD
HETATM    3  N           1     -21.175  -8.925  -2.977  0.00  0.00    -0.344 N 
HETATM    4  C           1     -21.868 -10.102  -2.879  0.00  0.00     0.249 C 
ENDROOT
BRANCH   4   5
HETATM    5  C           1     -21.994 -10.794  -1.544  0.00  0.00     0.278 C 
BRANCH   5   6
HETATM    6  N           1     -20.680 -10.732  -0.823  0.00  0.00    -0.066 N 
HETATM    7  H           1     -20.738 -11.290   0.058  0.00  0.00     0.275 HD
HETATM    8  H           1     -19.928 -11.125  -1.434  0.00  0.00     0.275 HD
HETATM    9  H           1     -20.457  -9.737  -0.592  0.00  0.00     0.275 HD
ENDBRANCH   5   6
BRANCH   5  10
HETATM   10  C           1     -23.063 -10.100  -0.710  0.00  0.00     0.021 C 
HETATM   11  C           1     -23.973 -11.146  -0.080  0.00  0.00     0.012 C 
BRANCH  10  12
HETATM   12  C           1     -22.397  -9.280   0.386  0.00  0.00     0.002 C 
HETATM   13  C           1     -23.101  -7.936   0.514  0.00  0.00     0.005 C 
ENDBRANCH  10  12
ENDBRANCH   5  10
ENDBRANCH   4   5
BRANCH   3  14
HETATM   14  C           1     -21.054  -8.260  -4.260  0.00  0.00     0.189 C 
BRANCH  14  15
HETATM   15  C           1     -21.307  -6.769  -4.084  0.00  0.00     0.010 C 
HETATM   16  C           1     -22.362  -6.312  -5.082  0.00  0.00     0.012 C 
HETATM   17  C           1     -21.797  -6.502  -2.666  0.00  0.00     0.012 C 
ENDBRANCH  14  15
BRANCH  14  18
HETATM   18  C           1     -19.665  -8.474  -4.807  0.00  0.00     0.197 C 
HETATM   19  O           1     -19.400  -8.150  -5.986  0.00  0.00    -0.646 OA
HETATM   20  O           1     -18.778  -8.976  -4.084  0.00  0.00    -0.646 OA
ENDBRANCH  14  18
ENDBRANCH   3  14
TORSDOF 7
ENDMDL
MODEL 4
REMARK VINA RESULT:      -5.2      5.804      8.850
REMARK  7 active torsions:
REMARK  status: ('A' for Active; 'I' for Inactive)
REMARK    1  A    between atoms: C_1  and  C_7 
REMARK    2  A    between atoms: C_1  and  C_4 
REMARK    3  A    between atoms: C_1  and  N_13 
REMARK    4  A    between atoms: N_3  and  C_19 
REMARK       I    between atoms: N_13  and  C_20 
REMARK    5  A    between atoms: C_16  and  C_18 
REMARK    6  A    between atoms: C_18  and  C_19 
REMARK    7  A    between atoms: C_19  and  C_20 
ROOT
HETATM    1  O           1     -19.799  -9.619  -2.318  0.00  0.00    -0.271 OA
HETATM    2  H           1     -22.703  -8.439  -2.444  0.00  0.00     0.163 HD
HETATM    3  N           1     -21.927  -8.984  -2.088  0.00  0.00    -0.344 N 
HETATM    4  C           1     -20.724  -8.969  -2.741  0.00  0.00     0.249 C 
ENDROOT
BRANCH   4   5
HETATM    5  C           1     -20.554  -8.141  -3.991  0.00  0.00     0.278 C 
BRANCH   5   6
HETATM    6  N           1     -20.704  -9.020  -5.197  0.00  0.00    -0.066 N 
HETATM    7  H           1     -21.488  -8.666  -5.791  0.00  0.00     0.275 HD
HETATM    8  H           1     -19.817  -9.008  -5.749  0.00  0.00     0.275 HD
HETATM    9  H           1     -20.912  -9.997  -4.891  0.00  0.00     0.275 HD
ENDBRANCH   5   6
BRANCH   5  10
HETATM   10  C           1     -21.614  -7.048  -4.024  0.00  0.00     0.021 C 
HETATM   11  C           1     -21.217  -5.926  -3.075  0.00  0.00     0.012 C 
BRANCH  10  12
HETATM   12  C           1     -21.730  -6.498  -5.440  0.00  0.00     0.002 C 
HETATM   13  C           1     -20.766  -5.331  -5.613  0.00  0.00     0.005 C 
ENDBRANCH  10  12
ENDBRANCH   5  10
ENDBRANCH   4   5
BRANCH   3  14
HETATM   14  C           1     -22.090  -9.780  -0.887  0.00  0.00     0.189 C 
BRANCH  14  15
HETATM   15  C           1     -22.355  -8.862   0.298  0.00  0.00     0.010 C 
HETATM   16  C           1     -21.096  -8.754   1.148  0.00  0.00     0.012 C 
HETATM   17  C           1     -22.746  -7.479  -0.210  0.00  0.00     0.012 C 
ENDBRANCH  14  15
BRANCH  14  18
HETATM   18  C           1     -23.255 -10.723  -1.064  0.00  0.00     0.197 C 
HETATM   19  O           1     -24.100 -10.850  -0.151  0.00  0.00    -0.646 OA
HETATM   20  O           1     -23.375 -11.377  -2.122  0.00  0.00    -0.646 OA
ENDBRANCH  14  18
ENDBRANCH   3  14
TORSDOF 7
ENDMDL
MODEL 5
REMARK VINA RESULT:      -5.1      7.380      9.003
REMARK  7 active torsions:
REMARK  status: ('A' for Active; 'I' for Inactive)
REMARK    1  A    between atoms: C_1  and  C_7 
REMARK    2  A    between atoms: C_1  and  C_4 
REMARK    3  A    between atoms: C_1  and  N_13 
REMARK    4  A    between atoms: N_3  and  C_19 
REMARK       I    between atoms: N_13  and  C_20 
REMARK    5  A    between atoms: C_16  and  C_18 
REMARK    6  A    between atoms: C_18  and  C_19 
REMARK    7  A    between atoms: C_19  and  C_20 
ROOT
HETATM    1  O           1     -20.795 -10.350  -3.220  0.00  0.00    -0.271 OA
HETATM    2  H           1     -19.739  -8.544  -0.882  0.00  0.00     0.163 HD
HETATM    3  N           1     -20.402  -8.928  -1.544  0.00  0.00    -0.344 N 
HETATM    4  C           1     -20.004  -9.893  -2.430  0.00  0.00     0.249 C 
ENDROOT
BRANCH   4   5
HETATM    5  C           1     -18.578 -10.384  -2.420  0.00  0.00     0.278 C 
BRANCH   5   6
HETATM    6  N           1     -18.521 -11.765  -3.003  0.00  0.00    -0.066 N 
HETATM    7  H           1     -18.312 -12.455  -2.246  0.00  0.00     0.275 HD
HETATM    8  H           1     -19.442 -11.997  -3.440  0.00  0.00     0.275 HD
HETATM    9  H           1     -17.771 -11.806  -3.729  0.00  0.00     0.275 HD
ENDBRANCH   5   6
BRANCH   5  10
HETATM   10  C           1     -17.711  -9.447  -3.251  0.00  0.00     0.021 C 
HETATM   11  C           1     -16.272  -9.516  -2.759  0.00  0.00     0.012 C 
BRANCH  10  12
HETATM   12  C           1     -17.768  -9.868  -4.713  0.00  0.00     0.002 C 
HETATM   13  C           1     -16.357  -9.926  -5.282  0.00  0.00     0.005 C 
ENDBRANCH  10  12
ENDBRANCH   5  10
ENDBRANCH   4   5
BRANCH   3  14
HETATM   14  C           1     -21.773  -8.455  -1.554  0.00  0.00     0.189 C 
BRANCH  14  15
HETATM   15  C           1     -22.388  -8.656  -0.175  0.00  0.00     0.010 C 
HETATM   16  C           1     -23.219  -9.932  -0.172  0.00  0.00     0.012 C 
HETATM   17  C           1     -21.279  -8.768   0.863  0.00  0.00     0.012 C 
ENDBRANCH  14  15
BRANCH  14  18
HETATM   18  C           1     -21.796  -6.989  -1.907  0.00  0.00     0.197 C 
HETATM   19  O           1     -22.494  -6.196  -1.237  0.00  0.00    -0.646 OA
HETATM   20  O           1     -21.119  -6.566  -2.868  0.00  0.00    -0.646 OA
ENDBRANCH  14  18
ENDBRANCH   3  14
TORSDOF 7
ENDMDL
MODEL 6
REMARK VINA RESULT:      -5.0      5.735      7.619
REMARK  7 active torsions:
REMARK  status: ('A' for Active; 'I' for Inactive)
REMARK    1  A    between atoms: C_1  and  C_7 
REMARK    2  A    between atoms: C_1  and  C_4 
REMARK    3  A    between atoms: C_1  and  N_13 
REMARK    4  A    between atoms: N_3  and  C_19 
REMARK       I    between atoms: N_13  and  C_20 
REMARK    5  A    between atoms: C_16  and  C_18 
REMARK    6  A    between atoms: C_18  and  C_19 
REMARK    7  A    between atoms: C_19  and  C_20 
ROOT
HETATM    1  O           1     -19.887  -9.346  -1.670  0.00  0.00    -0.271 OA
HETATM    2  H           1     -22.601  -8.989  -3.203  0.00  0.00     0.163 HD
HETATM    3  N           1     -21.639  -8.807  -2.945  0.00  0.00    -0.344 N 
HETATM    4  C           1     -21.034  -9.563  -1.978  0.00  0.00     0.249 C 
ENDROOT
BRANCH   4   5
HETATM    5  C           1     -21.802 -10.668  -1.294  0.00  0.00     0.278 C 
BRANCH   5   6
HETATM    6  N           1     -20.930 -11.317  -0.261  0.00  0.00    -0.066 N 
HETATM    7  H           1     -21.490 -12.011   0.283  0.00  0.00     0.275 HD
HETATM    8  H           1     -20.135 -11.806  -0.733  0.00  0.00     0.275 HD
HETATM    9  H           1     -20.554 -10.588   0.386  0.00  0.00     0.275 HD
ENDBRANCH   5   6
BRANCH   5  10
HETATM   10  C           1     -23.038 -10.087  -0.621  0.00  0.00     0.021 C 
HETATM   11  C           1     -23.936 -11.220  -0.143  0.00  0.00     0.012 C 
BRANCH  10  12
HETATM   12  C           1     -22.615  -9.238   0.570  0.00  0.00     0.002 C 
HETATM   13  C           1     -23.168  -7.828   0.413  0.00  0.00     0.005 C 
ENDBRANCH  10  12
ENDBRANCH   5  10
ENDBRANCH   4   5
BRANCH   3  14
HETATM   14  C           1     -20.901  -7.745  -3.602  0.00  0.00     0.189 C 
BRANCH  14  15
HETATM   15  C           1     -20.546  -8.176  -5.018  0.00  0.00     0.010 C 
HETATM   16  C           1     -19.091  -8.626  -5.062  0.00  0.00     0.012 C 
HETATM   17  C           1     -21.448  -9.329  -5.439  0.00  0.00     0.012 C 
ENDBRANCH  14  15
BRANCH  14  18
HETATM   18  C           1     -21.751  -6.500  -3.653  0.00  0.00     0.197 C 
HETATM   19  O           1     -22.179  -5.991  -2.593  0.00  0.00    -0.646 OA
HETATM   20  O           1     -22.028  -5.976  -4.753  0.00  0.00    -0.646 OA
ENDBRANCH  14  18
ENDBRANCH   3  14
TORSDOF 7
ENDMDL
MODEL 7
REMARK VINA RESULT:      -5.0      6.471      7.998
REMARK  7 active torsions:
REMARK  status: ('A' for Active; 'I' for Inactive)
REMARK    1  A    between atoms: C_1  and  C_7 
REMARK    2  A    between atoms: C_1  and  C_4 
REMARK    3  A    between atoms: C_1  and  N_13 
REMARK    4  A    between atoms: N_3  and  C_19 
REMARK       I    between atoms: N_13  and  C_20 
REMARK    5  A    between atoms: C_16  and  C_18 
REMARK    6  A    between atoms: C_18  and  C_19 
REMARK    7  A    between atoms: C_19  and  C_20 
ROOT
HETATM    1  O           1     -20.862  -6.919  -2.509  0.00  0.00    -0.271 OA
HETATM    2  H           1     -20.340  -9.999  -2.223  0.00  0.00     0.163 HD
HETATM    3  N           1     -20.343  -9.086  -2.659  0.00  0.00    -0.344 N 
HETATM    4  C           1     -20.859  -8.009  -1.989  0.00  0.00     0.249 C 
ENDROOT
BRANCH   4   5
HETATM    5  C           1     -21.424  -8.184  -0.601  0.00  0.00     0.278 C 
BRANCH   5   6
HETATM    6  N           1     -22.601  -7.272  -0.423  0.00  0.00    -0.066 N 
HETATM    7  H           1     -22.266  -6.313  -0.181  0.00  0.00     0.275 HD
HETATM    8  H           1     -23.151  -7.235  -1.311  0.00  0.00     0.275 HD
HETATM    9  H           1     -23.208  -7.634   0.347  0.00  0.00     0.275 HD
ENDBRANCH   5   6
BRANCH   5  10
HETATM   10  C           1     -21.868  -9.629  -0.412  0.00  0.00     0.021 C 
HETATM   11  C           1     -21.073 -10.260   0.723  0.00  0.00     0.012 C 
BRANCH  10  12
HETATM   12  C           1     -23.352  -9.662  -0.072  0.00  0.00     0.002 C 
HETATM   13  C           1     -23.871 -11.089  -0.193  0.00  0.00     0.005 C 
ENDBRANCH  10  12
ENDBRANCH   5  10
ENDBRANCH   4   5
BRANCH   3  14
HETATM   14  C           1     -19.800  -8.917  -3.993  0.00  0.00     0.189 C 
BRANCH  14  15
HETATM   15  C           1     -18.587  -9.821  -4.164  0.00  0.00     0.010 C 
HETATM   16  C           1     -17.961  -9.578  -5.532  0.00  0.00     0.012 C 
HETATM   17  C           1     -17.566  -9.512  -3.076  0.00  0.00     0.012 C 
ENDBRANCH  14  15
BRANCH  14  18
HETATM   18  C           1     -20.849  -9.284  -5.013  0.00  0.00     0.197 C 
HETATM   19  O           1     -21.352 -10.429  -5.008  0.00  0.00    -0.646 OA
HETATM   20  O           1     -21.216  -8.444  -5.863  0.00  0.00    -0.646 OA
ENDBRANCH  14  18
ENDBRANCH   3  14
TORSDOF 7
ENDMDL
MODEL 8
REMARK VINA RESULT:      -5.0      7.257      9.480
REMARK  7 active torsions:
REMARK  status: ('A' for Active; 'I' for Inactive)
REMARK    1  A    between atoms: C_1  and  C_7 
REMARK    2  A    between atoms: C_1  and  C_4 
REMARK    3  A    between atoms: C_1  and  N_13 
REMARK    4  A    between atoms: N_3  and  C_19 
REMARK       I    between atoms: N_13  and  C_20 
REMARK    5  A    between atoms: C_16  and  C_18 
REMARK    6  A    between atoms: C_18  and  C_19 
REMARK    7  A    between atoms: C_19  and  C_20 
ROOT
HETATM    1  O           1     -22.602 -10.908  -2.993  0.00  0.00    -0.271 OA
HETATM    2  H           1     -20.905  -9.832  -0.584  0.00  0.00     0.163 HD
HETATM    3  N           1     -21.400  -9.807  -1.467  0.00  0.00    -0.344 N 
HETATM    4  C           1     -22.012 -10.937  -1.940  0.00  0.00     0.249 C 
ENDROOT
BRANCH   4   5
HETATM    5  C           1     -21.948 -12.219  -1.146  0.00  0.00     0.278 C 
BRANCH   5   6
HETATM    6  N           1     -20.539 -12.732  -1.139  0.00  0.00    -0.066 N 
HETATM    7  H           1     -20.023 -12.328  -0.325  0.00  0.00     0.275 HD
HETATM    8  H           1     -20.548 -13.774  -1.062  0.00  0.00     0.275 HD
HETATM    9  H           1     -20.062 -12.453  -2.027  0.00  0.00     0.275 HD
ENDBRANCH   5   6
BRANCH   5  10
HETATM   10  C           1     -22.398 -11.954   0.285  0.00  0.00     0.021 C 
HETATM   11  C           1     -23.889 -11.646   0.300  0.00  0.00     0.012 C 
BRANCH  10  12
HETATM   12  C           1     -22.125 -13.185   1.138  0.00  0.00     0.002 C 
HETATM   13  C           1     -23.416 -13.638   1.807  0.00  0.00     0.005 C 
ENDBRANCH  10  12
ENDBRANCH   5  10
ENDBRANCH   4   5
BRANCH   3  14
HETATM   14  C           1     -21.462  -8.576  -2.230  0.00  0.00     0.189 C 
BRANCH  14  15
HETATM   15  C           1     -21.588  -7.395  -1.277  0.00  0.00     0.010 C 
HETATM   16  C           1     -22.199  -6.211  -2.015  0.00  0.00     0.012 C 
HETATM   17  C           1     -22.484  -7.782  -0.107  0.00  0.00     0.012 C 
ENDBRANCH  14  15
BRANCH  14  18
HETATM   18  C           1     -20.204  -8.429  -3.049  0.00  0.00     0.197 C 
HETATM   19  O           1     -20.261  -7.944  -4.200  0.00  0.00    -0.646 OA
HETATM   20  O           1     -19.105  -8.793  -2.578  0.00  0.00    -0.646 OA
ENDBRANCH  14  18
ENDBRANCH   3  14
TORSDOF 7
ENDMDL
MODEL 9
REMARK VINA RESULT:      -5.0      6.328      8.841
REMARK  7 active torsions:
REMARK  status: ('A' for Active; 'I' for Inactive)
REMARK    1  A    between atoms: C_1  and  C_7 
REMARK    2  A    between atoms: C_1  and  C_4 
REMARK    3  A    between atoms: C_1  and  N_13 
REMARK    4  A    between atoms: N_3  and  C_19 
REMARK       I    between atoms: N_13  and  C_20 
REMARK    5  A    between atoms: C_16  and  C_18 
REMARK    6  A    between atoms: C_18  and  C_19 
REMARK    7  A    between atoms: C_19  and  C_20 
ROOT
HETATM    1  O           1     -20.461 -10.086  -0.706  0.00  0.00    -0.271 OA
HETATM    2  H           1     -22.719  -9.314  -2.742  0.00  0.00     0.163 HD
HETATM    3  N           1     -21.884  -9.200  -2.180  0.00  0.00    -0.344 N 
HETATM    4  C           1     -21.455 -10.222  -1.376  0.00  0.00     0.249 C 
ENDROOT
BRANCH   4   5
HETATM    5  C           1     -22.227 -11.517  -1.327  0.00  0.00     0.278 C 
BRANCH   5   6
HETATM    6  N           1     -21.280 -12.670  -1.487  0.00  0.00    -0.066 N 
HETATM    7  H           1     -20.789 -12.593  -2.406  0.00  0.00     0.275 HD
HETATM    8  H           1     -20.577 -12.652  -0.714  0.00  0.00     0.275 HD
HETATM    9  H           1     -21.815 -13.567  -1.451  0.00  0.00     0.275 HD
ENDBRANCH   5   6
BRANCH   5  10
HETATM   10  C           1     -22.944 -11.632   0.013  0.00  0.00     0.021 C 
HETATM   11  C           1     -24.130 -10.678   0.037  0.00  0.00     0.012 C 
BRANCH  10  12
HETATM   12  C           1     -23.437 -13.060   0.202  0.00  0.00     0.002 C 
HETATM   13  C           1     -23.224 -13.484   1.649  0.00  0.00     0.005 C 
ENDBRANCH  10  12
ENDBRANCH   5  10
ENDBRANCH   4   5
BRANCH   3  14
HETATM   14  C           1     -21.143  -7.955  -2.227  0.00  0.00     0.189 C 
BRANCH  14  15
HETATM   15  C           1     -20.710  -7.677  -3.661  0.00  0.00     0.010 C 
HETATM   16  C           1     -19.491  -8.525  -3.997  0.00  0.00     0.012 C 
HETATM   17  C           1     -21.850  -8.024  -4.610  0.00  0.00     0.012 C 
ENDBRANCH  14  15
BRANCH  14  18
HETATM   18  C           1     -22.019  -6.829  -1.738  0.00  0.00     0.197 C 
HETATM   19  O           1     -21.985  -5.717  -2.309  0.00  0.00    -0.646 OA
HETATM   20  O           1     -22.780  -7.007  -0.763  0.00  0.00    -0.646 OA
ENDBRANCH  14  18
ENDBRANCH   3  14
TORSDOF 7
ENDMDL
