MODEL 1
REMARK VINA RESULT:      -5.8      0.000      0.000
REMARK  12 active torsions:
REMARK  status: ('A' for Active; 'I' for Inactive)
REMARK    1  A    between atoms: N_1  and  C_21 
REMARK       I    between atoms: N_1  and  C_12 
REMARK    2  A    between atoms: N_6  and  C_11 
REMARK    3  A    between atoms: C_8  and  C_17 
REMARK    4  A    between atoms: C_8  and  C_23 
REMARK    5  A    between atoms: C_10  and  C_11 
REMARK    6  A    between atoms: C_10  and  C_17 
REMARK    7  A    between atoms: C_11  and  C_12 
REMARK    8  A    between atoms: N_13  and  C_23 
REMARK    9  A    between atoms: S_18  and  C_19 
REMARK   10  A    between atoms: C_19  and  C_20 
REMARK   11  A    between atoms: C_20  and  C_21 
REMARK   12  A    between atoms: C_21  and  C_22 
ROOT
HETATM    1  C           1     -36.714   0.071  -8.867  0.00  0.00     0.274 C 
ENDROOT
BRANCH   1   2
HETATM    2  N           1     -36.235   1.480  -9.049  0.00  0.00    -0.067 N 
HETATM    3  H           1     -35.227   1.543  -8.779  0.00  0.00     0.275 HD
HETATM    4  H           1     -36.344   1.758 -10.050  0.00  0.00     0.275 HD
HETATM    5  H           1     -36.799   2.120  -8.445  0.00  0.00     0.275 HD
ENDBRANCH   1   2
BRANCH   1   6
HETATM    6  C           1     -38.075   0.082  -8.183  0.00  0.00     0.042 C 
BRANCH   6   7
HETATM    7  C           1     -37.922  -0.382  -6.741  0.00  0.00     0.004 C 
BRANCH   7   8
HETATM    8  C           1     -37.061   0.614  -5.974  0.00  0.00     0.027 C 
BRANCH   8   9
HETATM    9  C           1     -37.511   0.661  -4.520  0.00  0.00     0.229 C 
BRANCH   9  10
HETATM   10  N           1     -37.946  -0.708  -4.086  0.00  0.00    -0.079 N 
HETATM   11  H           1     -37.726  -1.398  -4.839  0.00  0.00     0.274 HD
HETATM   12  H           1     -37.439  -0.973  -3.212  0.00  0.00     0.274 HD
HETATM   13  H           1     -38.975  -0.705  -3.905  0.00  0.00     0.274 HD
ENDBRANCH   9  10
ENDBRANCH   8   9
ENDBRANCH   7   8
ENDBRANCH   6   7
ENDBRANCH   1   6
BRANCH   1  14
HETATM   14  C           1     -36.834  -0.598 -10.214  0.00  0.00     0.249 C 
HETATM   15  N           1     -35.732  -0.719 -11.019  0.00  0.00    -0.345 N 
HETATM   16  H           1     -34.838  -0.360 -10.710  0.00  0.00     0.163 HD
HETATM   17  O           1     -37.902  -1.026 -10.583  0.00  0.00    -0.271 OA
BRANCH  15  18
HETATM   18  C           1     -35.848  -1.361 -12.315  0.00  0.00     0.186 C 
BRANCH  18  19
HETATM   19  C           1     -35.906  -0.297 -13.403  0.00  0.00     0.046 C 
BRANCH  19  20
HETATM   20  C           1     -37.342  -0.138 -13.882  0.00  0.00     0.076 C 
BRANCH  20  21
HETATM   21  S           1     -37.375  -0.098 -15.697  0.00  0.00    -0.173 SA
HETATM   22  C           1     -35.611  -0.451 -15.936  0.00  0.00     0.089 C 
ENDBRANCH  20  21
ENDBRANCH  19  20
ENDBRANCH  18  19
BRANCH  18  23
HETATM   23  C           1     -34.649  -2.250 -12.543  0.00  0.00     0.196 C 
HETATM   24  O           1     -34.536  -2.882 -13.614  0.00  0.00    -0.646 OA
HETATM   25  O           1     -33.771  -2.353 -11.659  0.00  0.00    -0.646 OA
ENDBRANCH  18  23
ENDBRANCH  15  18
ENDBRANCH   1  14
TORSDOF 12
ENDMDL
MODEL 2
REMARK VINA RESULT:      -5.8     14.088     15.446
REMARK  12 active torsions:
REMARK  status: ('A' for Active; 'I' for Inactive)
REMARK    1  A    between atoms: N_1  and  C_21 
REMARK       I    between atoms: N_1  and  C_12 
REMARK    2  A    between atoms: N_6  and  C_11 
REMARK    3  A    between atoms: C_8  and  C_17 
REMARK    4  A    between atoms: C_8  and  C_23 
REMARK    5  A    between atoms: C_10  and  C_11 
REMARK    6  A    between atoms: C_10  and  C_17 
REMARK    7  A    between atoms: C_11  and  C_12 
REMARK    8  A    between atoms: N_13  and  C_23 
REMARK    9  A    between atoms: S_18  and  C_19 
REMARK   10  A    between atoms: C_19  and  C_20 
REMARK   11  A    between atoms: C_20  and  C_21 
REMARK   12  A    between atoms: C_21  and  C_22 
ROOT
HETATM    1  C           1     -20.367  -5.518  -7.130  0.00  0.00     0.274 C 
ENDROOT
BRANCH   1   2
HETATM    2  N           1     -19.520  -4.771  -6.144  0.00  0.00    -0.067 N 
HETATM    3  H           1     -19.953  -4.832  -5.194  0.00  0.00     0.275 HD
HETATM    4  H           1     -18.564  -5.192  -6.117  0.00  0.00     0.275 HD
HETATM    5  H           1     -19.452  -3.768  -6.432  0.00  0.00     0.275 HD
ENDBRANCH   1   2
BRANCH   1   6
HETATM    6  C           1     -21.528  -6.182  -6.402  0.00  0.00     0.042 C 
BRANCH   6   7
HETATM    7  C           1     -20.993  -7.272  -5.482  0.00  0.00     0.004 C 
BRANCH   7   8
HETATM    8  C           1     -21.811  -7.298  -4.197  0.00  0.00     0.027 C 
BRANCH   8   9
HETATM    9  C           1     -21.366  -6.161  -3.287  0.00  0.00     0.229 C 
BRANCH   9  10
HETATM   10  N           1     -22.391  -5.950  -2.211  0.00  0.00    -0.079 N 
HETATM   11  H           1     -21.909  -5.767  -1.302  0.00  0.00     0.274 HD
HETATM   12  H           1     -22.992  -5.132  -2.458  0.00  0.00     0.274 HD
HETATM   13  H           1     -22.985  -6.805  -2.126  0.00  0.00     0.274 HD
ENDBRANCH   9  10
ENDBRANCH   8   9
ENDBRANCH   7   8
ENDBRANCH   6   7
ENDBRANCH   1   6
BRANCH   1  14
HETATM   14  C           1     -20.904  -4.556  -8.161  0.00  0.00     0.249 C 
HETATM   15  N           1     -22.129  -4.778  -8.732  0.00  0.00    -0.345 N 
HETATM   16  H           1     -22.674  -5.587  -8.462  0.00  0.00     0.163 HD
HETATM   17  O           1     -20.253  -3.591  -8.484  0.00  0.00    -0.271 OA
BRANCH  15  18
HETATM   18  C           1     -22.645  -3.855  -9.724  0.00  0.00     0.186 C 
BRANCH  18  19
HETATM   19  C           1     -22.155  -4.269 -11.105  0.00  0.00     0.046 C 
BRANCH  19  20
HETATM   20  C           1     -22.253  -3.084 -12.056  0.00  0.00     0.076 C 
BRANCH  20  21
HETATM   21  S           1     -23.713  -3.278 -13.117  0.00  0.00    -0.173 SA
HETATM   22  C           1     -22.947  -2.634 -14.631  0.00  0.00     0.089 C 
ENDBRANCH  20  21
ENDBRANCH  19  20
ENDBRANCH  18  19
BRANCH  18  23
HETATM   23  C           1     -24.154  -3.880  -9.697  0.00  0.00     0.196 C 
HETATM   24  O           1     -24.792  -2.825  -9.500  0.00  0.00    -0.646 OA
HETATM   25  O           1     -24.764  -4.957  -9.871  0.00  0.00    -0.646 OA
ENDBRANCH  18  23
ENDBRANCH  15  18
ENDBRANCH   1  14
TORSDOF 12
ENDMDL
MODEL 3
REMARK VINA RESULT:      -5.6     14.799     17.115
REMARK  12 active torsions:
REMARK  status: ('A' for Active; 'I' for Inactive)
REMARK    1  A    between atoms: N_1  and  C_21 
REMARK       I    between atoms: N_1  and  C_12 
REMARK    2  A    between atoms: N_6  and  C_11 
REMARK    3  A    between atoms: C_8  and  C_17 
REMARK    4  A    between atoms: C_8  and  C_23 
REMARK    5  A    between atoms: C_10  and  C_11 
REMARK    6  A    between atoms: C_10  and  C_17 
REMARK    7  A    between atoms: C_11  and  C_12 
REMARK    8  A    between atoms: N_13  and  C_23 
REMARK    9  A    between atoms: S_18  and  C_19 
REMARK   10  A    between atoms: C_19  and  C_20 
REMARK   11  A    between atoms: C_20  and  C_21 
REMARK   12  A    between atoms: C_21  and  C_22 
ROOT
HETATM    1  C           1     -23.113  -4.274  -8.955  0.00  0.00     0.274 C 
ENDROOT
BRANCH   1   2
HETATM    2  N           1     -24.296  -3.384  -8.721  0.00  0.00    -0.067 N 
HETATM    3  H           1     -25.049  -3.923  -8.237  0.00  0.00     0.275 HD
HETATM    4  H           1     -24.011  -2.574  -8.126  0.00  0.00     0.275 HD
HETATM    5  H           1     -24.655  -3.033  -9.639  0.00  0.00     0.275 HD
ENDBRANCH   1   2
BRANCH   1   6
HETATM    6  C           1     -22.278  -3.719 -10.101  0.00  0.00     0.042 C 
BRANCH   6   7
HETATM    7  C           1     -23.191  -3.341 -11.259  0.00  0.00     0.004 C 
BRANCH   7   8
HETATM    8  C           1     -22.355  -3.115 -12.512  0.00  0.00     0.027 C 
BRANCH   8   9
HETATM    9  C           1     -23.273  -2.781 -13.681  0.00  0.00     0.229 C 
BRANCH   9  10
HETATM   10  N           1     -22.510  -2.907 -14.968  0.00  0.00    -0.079 N 
HETATM   11  H           1     -22.172  -3.890 -15.077  0.00  0.00     0.274 HD
HETATM   12  H           1     -23.136  -2.663 -15.768  0.00  0.00     0.274 HD
HETATM   13  H           1     -21.693  -2.257 -14.953  0.00  0.00     0.274 HD
ENDBRANCH   9  10
ENDBRANCH   8   9
ENDBRANCH   7   8
ENDBRANCH   6   7
ENDBRANCH   1   6
BRANCH   1  14
HETATM   14  C           1     -22.274  -4.335  -7.703  0.00  0.00     0.249 C 
HETATM   15  N           1     -22.189  -5.502  -6.991  0.00  0.00    -0.345 N 
HETATM   16  H           1     -22.689  -6.324  -7.305  0.00  0.00     0.163 HD
HETATM   17  O           1     -21.677  -3.354  -7.327  0.00  0.00    -0.271 OA
BRANCH  15  18
HETATM   18  C           1     -21.383  -5.560  -5.787  0.00  0.00     0.186 C 
BRANCH  18  19
HETATM   19  C           1     -22.039  -6.499  -4.783  0.00  0.00     0.046 C 
BRANCH  19  20
HETATM   20  C           1     -21.580  -6.140  -3.376  0.00  0.00     0.076 C 
BRANCH  20  21
HETATM   21  S           1     -21.362  -7.657  -2.405  0.00  0.00    -0.173 SA
HETATM   22  C           1     -22.274  -7.090  -0.942  0.00  0.00     0.089 C 
ENDBRANCH  20  21
ENDBRANCH  19  20
ENDBRANCH  18  19
BRANCH  18  23
HETATM   23  C           1     -20.005  -6.073  -6.129  0.00  0.00     0.196 C 
HETATM   24  O           1     -19.769  -7.299  -6.096  0.00  0.00    -0.646 OA
HETATM   25  O           1     -19.101  -5.270  -6.447  0.00  0.00    -0.646 OA
ENDBRANCH  18  23
ENDBRANCH  15  18
ENDBRANCH   1  14
TORSDOF 12
ENDMDL
MODEL 4
REMARK VINA RESULT:      -5.5     15.994     18.152
REMARK  12 active torsions:
REMARK  status: ('A' for Active; 'I' for Inactive)
REMARK    1  A    between atoms: N_1  and  C_21 
REMARK       I    between atoms: N_1  and  C_12 
REMARK    2  A    between atoms: N_6  and  C_11 
REMARK    3  A    between atoms: C_8  and  C_17 
REMARK    4  A    between atoms: C_8  and  C_23 
REMARK    5  A    between atoms: C_10  and  C_11 
REMARK    6  A    between atoms: C_10  and  C_17 
REMARK    7  A    between atoms: C_11  and  C_12 
REMARK    8  A    between atoms: N_13  and  C_23 
REMARK    9  A    between atoms: S_18  and  C_19 
REMARK   10  A    between atoms: C_19  and  C_20 
REMARK   11  A    between atoms: C_20  and  C_21 
REMARK   12  A    between atoms: C_21  and  C_22 
ROOT
HETATM    1  C           1     -21.540  -4.833  -8.015  0.00  0.00     0.274 C 
ENDROOT
BRANCH   1   2
HETATM    2  N           1     -22.191  -3.486  -7.916  0.00  0.00    -0.067 N 
HETATM    3  H           1     -21.656  -2.796  -8.491  0.00  0.00     0.275 HD
HETATM    4  H           1     -23.172  -3.547  -8.271  0.00  0.00     0.275 HD
HETATM    5  H           1     -22.199  -3.175  -6.918  0.00  0.00     0.275 HD
ENDBRANCH   1   2
BRANCH   1   6
HETATM    6  C           1     -20.361  -4.757  -8.977  0.00  0.00     0.042 C 
BRANCH   6   7
HETATM    7  C           1     -20.584  -3.620  -9.965  0.00  0.00     0.004 C 
BRANCH   7   8
HETATM    8  C           1     -20.989  -4.194 -11.317  0.00  0.00     0.027 C 
BRANCH   8   9
HETATM    9  C           1     -22.193  -3.430 -11.853  0.00  0.00     0.229 C 
BRANCH   9  10
HETATM   10  N           1     -22.135  -3.393 -13.352  0.00  0.00    -0.079 N 
HETATM   11  H           1     -21.668  -2.511 -13.661  0.00  0.00     0.274 HD
HETATM   12  H           1     -21.592  -4.215 -13.700  0.00  0.00     0.274 HD
HETATM   13  H           1     -23.105  -3.428 -13.738  0.00  0.00     0.274 HD
ENDBRANCH   9  10
ENDBRANCH   8   9
ENDBRANCH   7   8
ENDBRANCH   6   7
ENDBRANCH   1   6
BRANCH   1  14
HETATM   14  C           1     -21.051  -5.257  -6.653  0.00  0.00     0.249 C 
HETATM   15  N           1     -21.224  -6.549  -6.235  0.00  0.00    -0.345 N 
HETATM   16  H           1     -21.680  -7.220  -6.840  0.00  0.00     0.163 HD
HETATM   17  O           1     -20.507  -4.456  -5.930  0.00  0.00    -0.271 OA
BRANCH  15  18
HETATM   18  C           1     -20.756  -6.957  -4.924  0.00  0.00     0.186 C 
BRANCH  18  19
HETATM   19  C           1     -21.920  -6.941  -3.942  0.00  0.00     0.046 C 
BRANCH  19  20
HETATM   20  C           1     -21.540  -6.121  -2.717  0.00  0.00     0.076 C 
BRANCH  20  21
HETATM   21  S           1     -22.181  -6.931  -1.224  0.00  0.00    -0.173 SA
HETATM   22  C           1     -20.857  -8.164  -1.082  0.00  0.00     0.089 C 
ENDBRANCH  20  21
ENDBRANCH  19  20
ENDBRANCH  18  19
BRANCH  18  23
HETATM   23  C           1     -20.186  -8.352  -5.007  0.00  0.00     0.196 C 
HETATM   24  O           1     -19.162  -8.648  -4.355  0.00  0.00    -0.646 OA
HETATM   25  O           1     -20.738  -9.212  -5.727  0.00  0.00    -0.646 OA
ENDBRANCH  18  23
ENDBRANCH  15  18
ENDBRANCH   1  14
TORSDOF 12
ENDMDL
MODEL 5
REMARK VINA RESULT:      -5.4     11.372     15.158
REMARK  12 active torsions:
REMARK  status: ('A' for Active; 'I' for Inactive)
REMARK    1  A    between atoms: N_1  and  C_21 
REMARK       I    between atoms: N_1  and  C_12 
REMARK    2  A    between atoms: N_6  and  C_11 
REMARK    3  A    between atoms: C_8  and  C_17 
REMARK    4  A    between atoms: C_8  and  C_23 
REMARK    5  A    between atoms: C_10  and  C_11 
REMARK    6  A    between atoms: C_10  and  C_17 
REMARK    7  A    between atoms: C_11  and  C_12 
REMARK    8  A    between atoms: N_13  and  C_23 
REMARK    9  A    between atoms: S_18  and  C_19 
REMARK   10  A    between atoms: C_19  and  C_20 
REMARK   11  A    between atoms: C_20  and  C_21 
REMARK   12  A    between atoms: C_21  and  C_22 
ROOT
HETATM    1  C           1     -26.053  -6.395 -19.568  0.00  0.00     0.274 C 
ENDROOT
BRANCH   1   2
HETATM    2  N           1     -25.066  -7.078 -18.669  0.00  0.00    -0.067 N 
HETATM    3  H           1     -24.560  -6.362 -18.099  0.00  0.00     0.275 HD
HETATM    4  H           1     -25.571  -7.735 -18.033  0.00  0.00     0.275 HD
HETATM    5  H           1     -24.378  -7.611 -19.248  0.00  0.00     0.275 HD
ENDBRANCH   1   2
BRANCH   1   6
HETATM    6  C           1     -26.350  -7.288 -20.767  0.00  0.00     0.042 C 
BRANCH   6   7
HETATM    7  C           1     -25.129  -8.142 -21.078  0.00  0.00     0.004 C 
BRANCH   7   8
HETATM    8  C           1     -24.351  -7.518 -22.229  0.00  0.00     0.027 C 
BRANCH   8   9
HETATM    9  C           1     -23.061  -8.296 -22.452  0.00  0.00     0.229 C 
BRANCH   9  10
HETATM   10  N           1     -22.700  -9.036 -21.198  0.00  0.00    -0.079 N 
HETATM   11  H           1     -22.107  -9.862 -21.439  0.00  0.00     0.274 HD
HETATM   12  H           1     -22.169  -8.401 -20.560  0.00  0.00     0.274 HD
HETATM   13  H           1     -23.572  -9.359 -20.722  0.00  0.00     0.274 HD
ENDBRANCH   9  10
ENDBRANCH   8   9
ENDBRANCH   7   8
ENDBRANCH   6   7
ENDBRANCH   1   6
BRANCH   1  14
HETATM   14  C           1     -27.329  -6.133 -18.808  0.00  0.00     0.249 C 
HETATM   15  N           1     -27.559  -6.768 -17.616  0.00  0.00    -0.345 N 
HETATM   16  H           1     -26.873  -7.413 -17.246  0.00  0.00     0.163 HD
HETATM   17  O           1     -28.149  -5.364 -19.250  0.00  0.00    -0.271 OA
BRANCH  15  18
HETATM   18  C           1     -28.787  -6.518 -16.886  0.00  0.00     0.186 C 
BRANCH  18  19
HETATM   19  C           1     -29.866  -7.479 -17.363  0.00  0.00     0.046 C 
BRANCH  19  20
HETATM   20  C           1     -31.221  -6.786 -17.320  0.00  0.00     0.076 C 
BRANCH  20  21
HETATM   21  S           1     -30.981  -4.987 -17.325  0.00  0.00    -0.173 SA
HETATM   22  C           1     -32.636  -4.564 -16.712  0.00  0.00     0.089 C 
ENDBRANCH  20  21
ENDBRANCH  19  20
ENDBRANCH  18  19
BRANCH  18  23
HETATM   23  C           1     -28.544  -6.725 -15.410  0.00  0.00     0.196 C 
HETATM   24  O           1     -27.780  -7.636 -15.026  0.00  0.00    -0.646 OA
HETATM   25  O           1     -29.107  -5.986 -14.574  0.00  0.00    -0.646 OA
ENDBRANCH  18  23
ENDBRANCH  15  18
ENDBRANCH   1  14
TORSDOF 12
ENDMDL
MODEL 6
REMARK VINA RESULT:      -5.4     16.033     17.895
REMARK  12 active torsions:
REMARK  status: ('A' for Active; 'I' for Inactive)
REMARK    1  A    between atoms: N_1  and  C_21 
REMARK       I    between atoms: N_1  and  C_12 
REMARK    2  A    between atoms: N_6  and  C_11 
REMARK    3  A    between atoms: C_8  and  C_17 
REMARK    4  A    between atoms: C_8  and  C_23 
REMARK    5  A    between atoms: C_10  and  C_11 
REMARK    6  A    between atoms: C_10  and  C_17 
REMARK    7  A    between atoms: C_11  and  C_12 
REMARK    8  A    between atoms: N_13  and  C_23 
REMARK    9  A    between atoms: S_18  and  C_19 
REMARK   10  A    between atoms: C_19  and  C_20 
REMARK   11  A    between atoms: C_20  and  C_21 
REMARK   12  A    between atoms: C_21  and  C_22 
ROOT
HETATM    1  C           1     -20.768  -4.931  -6.704  0.00  0.00     0.274 C 
ENDROOT
BRANCH   1   2
HETATM    2  N           1     -20.097  -5.843  -7.687  0.00  0.00    -0.067 N 
HETATM    3  H           1     -20.732  -6.642  -7.911  0.00  0.00     0.275 HD
HETATM    4  H           1     -19.882  -5.314  -8.562  0.00  0.00     0.275 HD
HETATM    5  H           1     -19.209  -6.208  -7.272  0.00  0.00     0.275 HD
ENDBRANCH   1   2
BRANCH   1   6
HETATM    6  C           1     -21.689  -3.972  -7.447  0.00  0.00     0.042 C 
BRANCH   6   7
HETATM    7  C           1     -21.991  -4.529  -8.832  0.00  0.00     0.004 C 
BRANCH   7   8
HETATM    8  C           1     -22.994  -3.625  -9.536  0.00  0.00     0.027 C 
BRANCH   8   9
HETATM    9  C           1     -24.205  -4.444  -9.963  0.00  0.00     0.229 C 
BRANCH   9  10
HETATM   10  N           1     -25.457  -3.656  -9.708  0.00  0.00    -0.079 N 
HETATM   11  H           1     -25.993  -3.555 -10.599  0.00  0.00     0.274 HD
HETATM   12  H           1     -26.045  -4.155  -9.003  0.00  0.00     0.274 HD
HETATM   13  H           1     -25.204  -2.710  -9.344  0.00  0.00     0.274 HD
ENDBRANCH   9  10
ENDBRANCH   8   9
ENDBRANCH   7   8
ENDBRANCH   6   7
ENDBRANCH   1   6
BRANCH   1  14
HETATM   14  C           1     -21.576  -5.750  -5.728  0.00  0.00     0.249 C 
HETATM   15  N           1     -20.953  -6.665  -4.922  0.00  0.00    -0.345 N 
HETATM   16  H           1     -19.951  -6.792  -4.980  0.00  0.00     0.163 HD
HETATM   17  O           1     -22.773  -5.599  -5.658  0.00  0.00    -0.271 OA
BRANCH  15  18
HETATM   18  C           1     -21.730  -7.454  -3.984  0.00  0.00     0.186 C 
BRANCH  18  19
HETATM   19  C           1     -21.224  -8.890  -3.989  0.00  0.00     0.046 C 
BRANCH  19  20
HETATM   20  C           1     -20.110  -9.033  -5.016  0.00  0.00     0.076 C 
BRANCH  20  21
HETATM   21  S           1     -18.560  -9.462  -4.174  0.00  0.00    -0.173 SA
HETATM   22  C           1     -17.634  -9.899  -5.673  0.00  0.00     0.089 C 
ENDBRANCH  20  21
ENDBRANCH  19  20
ENDBRANCH  18  19
BRANCH  18  23
HETATM   23  C           1     -21.585  -6.872  -2.599  0.00  0.00     0.196 C 
HETATM   24  O           1     -22.306  -5.915  -2.245  0.00  0.00    -0.646 OA
HETATM   25  O           1     -20.745  -7.349  -1.806  0.00  0.00    -0.646 OA
ENDBRANCH  18  23
ENDBRANCH  15  18
ENDBRANCH   1  14
TORSDOF 12
ENDMDL
MODEL 7
REMARK VINA RESULT:      -5.2      3.197      4.800
REMARK  12 active torsions:
REMARK  status: ('A' for Active; 'I' for Inactive)
REMARK    1  A    between atoms: N_1  and  C_21 
REMARK       I    between atoms: N_1  and  C_12 
REMARK    2  A    between atoms: N_6  and  C_11 
REMARK    3  A    between atoms: C_8  and  C_17 
REMARK    4  A    between atoms: C_8  and  C_23 
REMARK    5  A    between atoms: C_10  and  C_11 
REMARK    6  A    between atoms: C_10  and  C_17 
REMARK    7  A    between atoms: C_11  and  C_12 
REMARK    8  A    between atoms: N_13  and  C_23 
REMARK    9  A    between atoms: S_18  and  C_19 
REMARK   10  A    between atoms: C_19  and  C_20 
REMARK   11  A    between atoms: C_20  and  C_21 
REMARK   12  A    between atoms: C_21  and  C_22 
ROOT
HETATM    1  C           1     -35.511   0.069 -11.989  0.00  0.00     0.274 C 
ENDROOT
BRANCH   1   2
HETATM    2  N           1     -35.070   0.776 -13.236  0.00  0.00    -0.067 N 
HETATM    3  H           1     -34.067   1.055 -13.143  0.00  0.00     0.275 HD
HETATM    4  H           1     -35.179   0.137 -14.055  0.00  0.00     0.275 HD
HETATM    5  H           1     -35.657   1.630 -13.378  0.00  0.00     0.275 HD
ENDBRANCH   1   2
BRANCH   1   6
HETATM    6  C           1     -37.010  -0.190 -12.055  0.00  0.00     0.042 C 
BRANCH   6   7
HETATM    7  C           1     -37.652   0.202 -10.731  0.00  0.00     0.004 C 
BRANCH   7   8
HETATM    8  C           1     -37.127  -0.704  -9.625  0.00  0.00     0.027 C 
BRANCH   8   9
HETATM    9  C           1     -37.099   0.064  -8.310  0.00  0.00     0.229 C 
BRANCH   9  10
HETATM   10  N           1     -36.287   1.315  -8.478  0.00  0.00    -0.079 N 
HETATM   11  H           1     -36.485   1.736  -9.413  0.00  0.00     0.274 HD
HETATM   12  H           1     -36.539   1.997  -7.728  0.00  0.00     0.274 HD
HETATM   13  H           1     -35.271   1.081  -8.408  0.00  0.00     0.274 HD
ENDBRANCH   9  10
ENDBRANCH   8   9
ENDBRANCH   7   8
ENDBRANCH   6   7
ENDBRANCH   1   6
BRANCH   1  14
HETATM   14  C           1     -34.778  -1.244 -11.870  0.00  0.00     0.249 C 
HETATM   15  N           1     -35.160  -2.314 -12.635  0.00  0.00    -0.345 N 
HETATM   16  H           1     -35.934  -2.223 -13.281  0.00  0.00     0.163 HD
HETATM   17  O           1     -33.854  -1.353 -11.099  0.00  0.00    -0.271 OA
BRANCH  15  18
HETATM   18  C           1     -34.457  -3.577 -12.520  0.00  0.00     0.186 C 
BRANCH  18  19
HETATM   19  C           1     -35.107  -4.421 -11.432  0.00  0.00     0.046 C 
BRANCH  19  20
HETATM   20  C           1     -34.042  -4.895 -10.452  0.00  0.00     0.076 C 
BRANCH  20  21
HETATM   21  S           1     -33.683  -6.649 -10.749  0.00  0.00    -0.173 SA
HETATM   22  C           1     -35.003  -7.305  -9.690  0.00  0.00     0.089 C 
ENDBRANCH  20  21
ENDBRANCH  19  20
ENDBRANCH  18  19
BRANCH  18  23
HETATM   23  C           1     -34.526  -4.312 -13.836  0.00  0.00     0.196 C 
HETATM   24  O           1     -34.056  -3.789 -14.869  0.00  0.00    -0.646 OA
HETATM   25  O           1     -35.053  -5.444 -13.893  0.00  0.00    -0.646 OA
ENDBRANCH  18  23
ENDBRANCH  15  18
ENDBRANCH   1  14
TORSDOF 12
ENDMDL
MODEL 8
REMARK VINA RESULT:      -5.1     16.954     18.723
REMARK  12 active torsions:
REMARK  status: ('A' for Active; 'I' for Inactive)
REMARK    1  A    between atoms: N_1  and  C_21 
REMARK       I    between atoms: N_1  and  C_12 
REMARK    2  A    between atoms: N_6  and  C_11 
REMARK    3  A    between atoms: C_8  and  C_17 
REMARK    4  A    between atoms: C_8  and  C_23 
REMARK    5  A    between atoms: C_10  and  C_11 
REMARK    6  A    between atoms: C_10  and  C_17 
REMARK    7  A    between atoms: C_11  and  C_12 
REMARK    8  A    between atoms: N_13  and  C_23 
REMARK    9  A    between atoms: S_18  and  C_19 
REMARK   10  A    between atoms: C_19  and  C_20 
REMARK   11  A    between atoms: C_20  and  C_21 
REMARK   12  A    between atoms: C_21  and  C_22 
ROOT
HETATM    1  C           1     -20.450  -6.694  -5.545  0.00  0.00     0.274 C 
ENDROOT
BRANCH   1   2
HETATM    2  N           1     -21.088  -7.068  -6.849  0.00  0.00    -0.067 N 
HETATM    3  H           1     -21.214  -6.211  -7.434  0.00  0.00     0.275 HD
HETATM    4  H           1     -20.476  -7.747  -7.354  0.00  0.00     0.275 HD
HETATM    5  H           1     -22.021  -7.505  -6.667  0.00  0.00     0.275 HD
ENDBRANCH   1   2
BRANCH   1   6
HETATM    6  C           1     -20.572  -5.191  -5.332  0.00  0.00     0.042 C 
BRANCH   6   7
HETATM    7  C           1     -20.209  -4.465  -6.619  0.00  0.00     0.004 C 
BRANCH   7   8
HETATM    8  C           1     -21.354  -3.546  -7.025  0.00  0.00     0.027 C 
BRANCH   8   9
HETATM    9  C           1     -21.896  -3.978  -8.381  0.00  0.00     0.229 C 
BRANCH   9  10
HETATM   10  N           1     -23.331  -3.555  -8.505  0.00  0.00    -0.079 N 
HETATM   11  H           1     -23.444  -2.948  -9.347  0.00  0.00     0.274 HD
HETATM   12  H           1     -23.936  -4.402  -8.602  0.00  0.00     0.274 HD
HETATM   13  H           1     -23.611  -3.023  -7.650  0.00  0.00     0.274 HD
ENDBRANCH   9  10
ENDBRANCH   8   9
ENDBRANCH   7   8
ENDBRANCH   6   7
ENDBRANCH   1   6
BRANCH   1  14
HETATM   14  C           1     -21.144  -7.420  -4.419  0.00  0.00     0.249 C 
HETATM   15  N           1     -20.857  -7.100  -3.118  0.00  0.00    -0.345 N 
HETATM   16  H           1     -20.180  -6.376  -2.912  0.00  0.00     0.163 HD
HETATM   17  O           1     -21.951  -8.285  -4.664  0.00  0.00    -0.271 OA
BRANCH  15  18
HETATM   18  C           1     -21.523  -7.799  -2.035  0.00  0.00     0.186 C 
BRANCH  18  19
HETATM   19  C           1     -20.480  -8.436  -1.127  0.00  0.00     0.046 C 
BRANCH  19  20
HETATM   20  C           1     -20.993  -9.780  -0.628  0.00  0.00     0.076 C 
BRANCH  20  21
HETATM   21  S           1     -22.065 -10.525  -1.888  0.00  0.00    -0.173 SA
HETATM   22  C           1     -23.519 -10.724  -0.820  0.00  0.00     0.089 C 
ENDBRANCH  20  21
ENDBRANCH  19  20
ENDBRANCH  18  19
BRANCH  18  23
HETATM   23  C           1     -22.353  -6.820  -1.242  0.00  0.00     0.196 C 
HETATM   24  O           1     -22.990  -7.209  -0.240  0.00  0.00    -0.646 OA
HETATM   25  O           1     -22.402  -5.619  -1.586  0.00  0.00    -0.646 OA
ENDBRANCH  18  23
ENDBRANCH  15  18
ENDBRANCH   1  14
TORSDOF 12
ENDMDL
MODEL 9
REMARK VINA RESULT:      -5.1     16.125     18.069
REMARK  12 active torsions:
REMARK  status: ('A' for Active; 'I' for Inactive)
REMARK    1  A    between atoms: N_1  and  C_21 
REMARK       I    between atoms: N_1  and  C_12 
REMARK    2  A    between atoms: N_6  and  C_11 
REMARK    3  A    between atoms: C_8  and  C_17 
REMARK    4  A    between atoms: C_8  and  C_23 
REMARK    5  A    between atoms: C_10  and  C_11 
REMARK    6  A    between atoms: C_10  and  C_17 
REMARK    7  A    between atoms: C_11  and  C_12 
REMARK    8  A    between atoms: N_13  and  C_23 
REMARK    9  A    between atoms: S_18  and  C_19 
REMARK   10  A    between atoms: C_19  and  C_20 
REMARK   11  A    between atoms: C_20  and  C_21 
REMARK   12  A    between atoms: C_21  and  C_22 
ROOT
HETATM    1  C           1     -20.503  -4.530  -7.258  0.00  0.00     0.274 C 
ENDROOT
BRANCH   1   2
HETATM    2  N           1     -19.203  -4.515  -8.005  0.00  0.00    -0.067 N 
HETATM    3  H           1     -19.390  -4.571  -9.032  0.00  0.00     0.275 HD
HETATM    4  H           1     -18.689  -3.631  -7.793  0.00  0.00     0.275 HD
HETATM    5  H           1     -18.624  -5.335  -7.712  0.00  0.00     0.275 HD
ENDBRANCH   1   2
BRANCH   1   6
HETATM    6  C           1     -21.591  -5.123  -8.144  0.00  0.00     0.042 C 
BRANCH   6   7
HETATM    7  C           1     -22.527  -4.015  -8.608  0.00  0.00     0.004 C 
BRANCH   7   8
HETATM    8  C           1     -22.587  -4.005 -10.130  0.00  0.00     0.027 C 
BRANCH   8   9
HETATM    9  C           1     -23.855  -4.709 -10.595  0.00  0.00     0.229 C 
BRANCH   9  10
HETATM   10  N           1     -24.972  -4.411  -9.638  0.00  0.00    -0.079 N 
HETATM   11  H           1     -24.579  -3.998  -8.762  0.00  0.00     0.274 HD
HETATM   12  H           1     -25.634  -3.731 -10.076  0.00  0.00     0.274 HD
HETATM   13  H           1     -25.480  -5.295  -9.410  0.00  0.00     0.274 HD
ENDBRANCH   9  10
ENDBRANCH   8   9
ENDBRANCH   7   8
ENDBRANCH   6   7
ENDBRANCH   1   6
BRANCH   1  14
HETATM   14  C           1     -20.358  -5.367  -6.012  0.00  0.00     0.249 C 
HETATM   15  N           1     -20.246  -6.728  -6.110  0.00  0.00    -0.345 N 
HETATM   16  H           1     -20.261  -7.173  -7.019  0.00  0.00     0.163 HD
HETATM   17  O           1     -20.341  -4.836  -4.926  0.00  0.00    -0.271 OA
BRANCH  15  18
HETATM   18  C           1     -20.108  -7.533  -4.911  0.00  0.00     0.186 C 
BRANCH  18  19
HETATM   19  C           1     -21.469  -8.089  -4.514  0.00  0.00     0.046 C 
BRANCH  19  20
HETATM   20  C           1     -21.575  -8.138  -2.996  0.00  0.00     0.076 C 
BRANCH  20  21
HETATM   21  S           1     -21.969  -6.483  -2.362  0.00  0.00    -0.173 SA
HETATM   22  C           1     -22.374  -7.009  -0.673  0.00  0.00     0.089 C 
ENDBRANCH  20  21
ENDBRANCH  19  20
ENDBRANCH  18  19
BRANCH  18  23
HETATM   23  C           1     -19.157  -8.674  -5.180  0.00  0.00     0.196 C 
HETATM   24  O           1     -18.610  -8.780  -6.298  0.00  0.00    -0.646 OA
HETATM   25  O           1     -18.916  -9.512  -4.284  0.00  0.00    -0.646 OA
ENDBRANCH  18  23
ENDBRANCH  15  18
ENDBRANCH   1  14
TORSDOF 12
ENDMDL
