MODEL 1
REMARK VINA RESULT:      -6.2      0.000      0.000
REMARK  7 active torsions:
REMARK  status: ('A' for Active; 'I' for Inactive)
REMARK    1  A    between atoms: C_5  and  C_7 
REMARK    2  A    between atoms: C_7  and  C_8 
REMARK    3  A    between atoms: C_8  and  C_9 
REMARK    4  A    between atoms: C_9  and  C_10 
REMARK    5  A    between atoms: C_9  and  N_13 
REMARK       I    between atoms: N_13  and  C_14 
REMARK    6  A    between atoms: C_14  and  C_16 
REMARK    7  A    between atoms: C_16  and  N_18 
ROOT
HETATM    1  H           1     -35.871  -2.374 -13.305  0.00  0.00     0.163 HD
HETATM    2  N           1     -35.313  -1.924 -12.591  0.00  0.00    -0.345 N 
HETATM    3  C           1     -34.246  -2.581 -12.041  0.00  0.00     0.248 C 
HETATM    4  O           1     -33.580  -2.044 -11.188  0.00  0.00    -0.271 OA
ENDROOT
BRANCH   2   5
HETATM    5  C           1     -35.645  -0.584 -12.148  0.00  0.00     0.186 C 
BRANCH   5   6
HETATM    6  C           1     -36.279   0.188 -13.299  0.00  0.00     0.046 C 
BRANCH   6   7
HETATM    7  C           1     -35.251   0.386 -14.405  0.00  0.00     0.116 C 
BRANCH   7   8
HETATM    8  C           1     -35.601  -0.494 -15.581  0.00  0.00     0.172 C 
HETATM    9  O           1     -35.218  -1.683 -15.608  0.00  0.00    -0.648 OA
HETATM   10  O           1     -36.274  -0.033 -16.527  0.00  0.00    -0.648 OA
ENDBRANCH   7   8
ENDBRANCH   6   7
ENDBRANCH   5   6
BRANCH   5  11
HETATM   11  C           1     -36.618  -0.660 -10.998  0.00  0.00     0.196 C 
HETATM   12  O           1     -36.255  -0.320  -9.850  0.00  0.00    -0.646 OA
HETATM   13  O           1     -37.784  -1.064 -11.190  0.00  0.00    -0.646 OA
ENDBRANCH   5  11
ENDBRANCH   2   5
BRANCH   3  14
HETATM   14  C           1     -33.900  -3.976 -12.501  0.00  0.00     0.270 C 
HETATM   15  C           1     -32.532  -4.367 -11.958  0.00  0.00     0.050 C 
BRANCH  14  16
HETATM   16  N           1     -33.872  -4.015 -14.000  0.00  0.00    -0.067 N 
HETATM   17  H           1     -32.885  -4.130 -14.327  0.00  0.00     0.275 HD
HETATM   18  H           1     -34.264  -3.124 -14.380  0.00  0.00     0.275 HD
HETATM   19  H           1     -34.447  -4.821 -14.339  0.00  0.00     0.275 HD
ENDBRANCH  14  16
ENDBRANCH   3  14
TORSDOF 7
ENDMDL
MODEL 2
REMARK VINA RESULT:      -6.1     11.838     13.418
REMARK  7 active torsions:
REMARK  status: ('A' for Active; 'I' for Inactive)
REMARK    1  A    between atoms: C_5  and  C_7 
REMARK    2  A    between atoms: C_7  and  C_8 
REMARK    3  A    between atoms: C_8  and  C_9 
REMARK    4  A    between atoms: C_9  and  C_10 
REMARK    5  A    between atoms: C_9  and  N_13 
REMARK       I    between atoms: N_13  and  C_14 
REMARK    6  A    between atoms: C_14  and  C_16 
REMARK    7  A    between atoms: C_16  and  N_18 
ROOT
HETATM    1  H           1     -22.223  -5.717  -9.177  0.00  0.00     0.163 HD
HETATM    2  N           1     -22.204  -4.746  -8.893  0.00  0.00    -0.345 N 
HETATM    3  C           1     -21.639  -4.393  -7.698  0.00  0.00     0.248 C 
HETATM    4  O           1     -21.616  -3.234  -7.360  0.00  0.00    -0.271 OA
ENDROOT
BRANCH   2   5
HETATM    5  C           1     -22.777  -3.729  -9.753  0.00  0.00     0.186 C 
BRANCH   5   6
HETATM    6  C           1     -22.301  -3.947 -11.184  0.00  0.00     0.046 C 
BRANCH   6   7
HETATM    7  C           1     -22.434  -2.648 -11.967  0.00  0.00     0.116 C 
BRANCH   7   8
HETATM    8  C           1     -23.282  -2.884 -13.194  0.00  0.00     0.172 C 
HETATM    9  O           1     -22.760  -2.855 -14.329  0.00  0.00    -0.648 OA
HETATM   10  O           1     -24.505  -3.109 -13.073  0.00  0.00    -0.648 OA
ENDBRANCH   7   8
ENDBRANCH   6   7
ENDBRANCH   5   6
BRANCH   5  11
HETATM   11  C           1     -24.282  -3.818  -9.704  0.00  0.00     0.196 C 
HETATM   12  O           1     -24.961  -2.791  -9.488  0.00  0.00    -0.646 OA
HETATM   13  O           1     -24.850  -4.917  -9.877  0.00  0.00    -0.646 OA
ENDBRANCH   5  11
ENDBRANCH   2   5
BRANCH   3  14
HETATM   14  C           1     -21.043  -5.452  -6.803  0.00  0.00     0.270 C 
HETATM   15  C           1     -20.409  -4.792  -5.586  0.00  0.00     0.050 C 
BRANCH  14  16
HETATM   16  N           1     -19.996  -6.214  -7.559  0.00  0.00    -0.067 N 
HETATM   17  H           1     -19.521  -5.575  -8.237  0.00  0.00     0.275 HD
HETATM   18  H           1     -20.445  -7.002  -8.079  0.00  0.00     0.275 HD
HETATM   19  H           1     -19.290  -6.597  -6.889  0.00  0.00     0.275 HD
ENDBRANCH  14  16
ENDBRANCH   3  14
TORSDOF 7
ENDMDL
MODEL 3
REMARK VINA RESULT:      -5.8      1.974      4.229
REMARK  7 active torsions:
REMARK  status: ('A' for Active; 'I' for Inactive)
REMARK    1  A    between atoms: C_5  and  C_7 
REMARK    2  A    between atoms: C_7  and  C_8 
REMARK    3  A    between atoms: C_8  and  C_9 
REMARK    4  A    between atoms: C_9  and  C_10 
REMARK    5  A    between atoms: C_9  and  N_13 
REMARK       I    between atoms: N_13  and  C_14 
REMARK    6  A    between atoms: C_14  and  C_16 
REMARK    7  A    between atoms: C_16  and  N_18 
ROOT
HETATM    1  H           1     -34.999  -0.095 -12.408  0.00  0.00     0.163 HD
HETATM    2  N           1     -35.946  -0.442 -12.479  0.00  0.00    -0.345 N 
HETATM    3  C           1     -36.638  -0.309 -13.652  0.00  0.00     0.248 C 
HETATM    4  O           1     -37.769  -0.724 -13.737  0.00  0.00    -0.271 OA
ENDROOT
BRANCH   2   5
HETATM    5  C           1     -36.571  -1.080 -11.337  0.00  0.00     0.186 C 
BRANCH   5   6
HETATM    6  C           1     -35.625  -2.123 -10.757  0.00  0.00     0.046 C 
BRANCH   6   7
HETATM    7  C           1     -34.242  -1.952 -11.371  0.00  0.00     0.116 C 
BRANCH   7   8
HETATM    8  C           1     -33.970  -3.091 -12.324  0.00  0.00     0.172 C 
HETATM    9  O           1     -34.489  -3.092 -13.461  0.00  0.00    -0.648 OA
HETATM   10  O           1     -33.226  -4.032 -11.976  0.00  0.00    -0.648 OA
ENDBRANCH   7   8
ENDBRANCH   6   7
ENDBRANCH   5   6
BRANCH   5  11
HETATM   11  C           1     -36.880  -0.041 -10.287  0.00  0.00     0.196 C 
HETATM   12  O           1     -37.825   0.759 -10.459  0.00  0.00    -0.646 OA
HETATM   13  O           1     -36.192   0.020  -9.246  0.00  0.00    -0.646 OA
ENDBRANCH   5  11
ENDBRANCH   2   5
BRANCH   3  14
HETATM   14  C           1     -35.988   0.354 -14.841  0.00  0.00     0.270 C 
HETATM   15  C           1     -34.901   1.308 -14.360  0.00  0.00     0.050 C 
BRANCH  14  16
HETATM   16  N           1     -37.020   1.122 -15.612  0.00  0.00    -0.067 N 
HETATM   17  H           1     -37.946   0.643 -15.527  0.00  0.00     0.275 HD
HETATM   18  H           1     -36.742   1.166 -16.618  0.00  0.00     0.275 HD
HETATM   19  H           1     -37.094   2.091 -15.228  0.00  0.00     0.275 HD
ENDBRANCH  14  16
ENDBRANCH   3  14
TORSDOF 7
ENDMDL
MODEL 4
REMARK VINA RESULT:      -5.3     11.105     13.388
REMARK  7 active torsions:
REMARK  status: ('A' for Active; 'I' for Inactive)
REMARK    1  A    between atoms: C_5  and  C_7 
REMARK    2  A    between atoms: C_7  and  C_8 
REMARK    3  A    between atoms: C_8  and  C_9 
REMARK    4  A    between atoms: C_9  and  C_10 
REMARK    5  A    between atoms: C_9  and  N_13 
REMARK       I    between atoms: N_13  and  C_14 
REMARK    6  A    between atoms: C_14  and  C_16 
REMARK    7  A    between atoms: C_16  and  N_18 
ROOT
HETATM    1  H           1     -22.409  -2.708 -11.470  0.00  0.00     0.163 HD
HETATM    2  N           1     -23.154  -3.316 -11.783  0.00  0.00    -0.345 N 
HETATM    3  C           1     -23.609  -3.234 -13.071  0.00  0.00     0.248 C 
HETATM    4  O           1     -24.499  -3.960 -13.445  0.00  0.00    -0.271 OA
ENDROOT
BRANCH   2   5
HETATM    5  C           1     -23.741  -4.274 -10.867  0.00  0.00     0.186 C 
BRANCH   5   6
HETATM    6  C           1     -22.633  -5.020 -10.134  0.00  0.00     0.046 C 
BRANCH   6   7
HETATM    7  C           1     -21.387  -4.147 -10.071  0.00  0.00     0.116 C 
BRANCH   7   8
HETATM    8  C           1     -20.725  -4.311  -8.725  0.00  0.00     0.172 C 
HETATM    9  O           1     -21.259  -5.023  -7.848  0.00  0.00    -0.648 OA
HETATM   10  O           1     -19.642  -3.734  -8.487  0.00  0.00    -0.648 OA
ENDBRANCH   7   8
ENDBRANCH   6   7
ENDBRANCH   5   6
BRANCH   5  11
HETATM   11  C           1     -24.606  -3.548  -9.866  0.00  0.00     0.196 C 
HETATM   12  O           1     -25.727  -3.113 -10.209  0.00  0.00    -0.646 OA
HETATM   13  O           1     -24.203  -3.381  -8.695  0.00  0.00    -0.646 OA
ENDBRANCH   5  11
ENDBRANCH   2   5
BRANCH   3  14
HETATM   14  C           1     -22.998  -2.237 -14.025  0.00  0.00     0.270 C 
HETATM   15  C           1     -24.093  -1.355 -14.610  0.00  0.00     0.050 C 
BRANCH  14  16
HETATM   16  N           1     -22.300  -2.968 -15.133  0.00  0.00    -0.067 N 
HETATM   17  H           1     -21.269  -2.961 -14.959  0.00  0.00     0.275 HD
HETATM   18  H           1     -22.503  -2.497 -16.043  0.00  0.00     0.275 HD
HETATM   19  H           1     -22.640  -3.956 -15.168  0.00  0.00     0.275 HD
ENDBRANCH  14  16
ENDBRANCH   3  14
TORSDOF 7
ENDMDL
MODEL 5
REMARK VINA RESULT:      -5.3     11.846     14.704
REMARK  7 active torsions:
REMARK  status: ('A' for Active; 'I' for Inactive)
REMARK    1  A    between atoms: C_5  and  C_7 
REMARK    2  A    between atoms: C_7  and  C_8 
REMARK    3  A    between atoms: C_8  and  C_9 
REMARK    4  A    between atoms: C_9  and  C_10 
REMARK    5  A    between atoms: C_9  and  N_13 
REMARK       I    between atoms: N_13  and  C_14 
REMARK    6  A    between atoms: C_14  and  C_16 
REMARK    7  A    between atoms: C_16  and  N_18 
ROOT
HETATM    1  H           1     -21.942  -2.407 -10.210  0.00  0.00     0.163 HD
HETATM    2  N           1     -22.232  -3.370 -10.319  0.00  0.00    -0.345 N 
HETATM    3  C           1     -22.778  -3.790 -11.502  0.00  0.00     0.248 C 
HETATM    4  O           1     -23.125  -4.940 -11.632  0.00  0.00    -0.271 OA
ENDROOT
BRANCH   2   5
HETATM    5  C           1     -22.072  -4.304  -9.222  0.00  0.00     0.186 C 
BRANCH   5   6
HETATM    6  C           1     -20.782  -3.992  -8.474  0.00  0.00     0.046 C 
BRANCH   6   7
HETATM    7  C           1     -19.943  -5.257  -8.357  0.00  0.00     0.116 C 
BRANCH   7   8
HETATM    8  C           1     -19.869  -5.681  -6.910  0.00  0.00     0.172 C 
HETATM    9  O           1     -19.769  -6.892  -6.618  0.00  0.00    -0.648 OA
HETATM   10  O           1     -19.908  -4.820  -6.005  0.00  0.00    -0.648 OA
ENDBRANCH   7   8
ENDBRANCH   6   7
ENDBRANCH   5   6
BRANCH   5  11
HETATM   11  C           1     -23.244  -4.181  -8.280  0.00  0.00     0.196 C 
HETATM   12  O           1     -24.342  -3.759  -8.702  0.00  0.00    -0.646 OA
HETATM   13  O           1     -23.117  -4.499  -7.079  0.00  0.00    -0.646 OA
ENDBRANCH   5  11
ENDBRANCH   2   5
BRANCH   3  14
HETATM   14  C           1     -22.945  -2.817 -12.643  0.00  0.00     0.270 C 
HETATM   15  C           1     -24.423  -2.690 -12.991  0.00  0.00     0.050 C 
BRANCH  14  16
HETATM   16  N           1     -22.192  -3.317 -13.840  0.00  0.00    -0.067 N 
HETATM   17  H           1     -22.868  -3.677 -14.552  0.00  0.00     0.275 HD
HETATM   18  H           1     -21.548  -4.087 -13.550  0.00  0.00     0.275 HD
HETATM   19  H           1     -21.636  -2.534 -14.254  0.00  0.00     0.275 HD
ENDBRANCH  14  16
ENDBRANCH   3  14
TORSDOF 7
ENDMDL
MODEL 6
REMARK VINA RESULT:      -5.2     12.241     14.732
REMARK  7 active torsions:
REMARK  status: ('A' for Active; 'I' for Inactive)
REMARK    1  A    between atoms: C_5  and  C_7 
REMARK    2  A    between atoms: C_7  and  C_8 
REMARK    3  A    between atoms: C_8  and  C_9 
REMARK    4  A    between atoms: C_9  and  C_10 
REMARK    5  A    between atoms: C_9  and  N_13 
REMARK       I    between atoms: N_13  and  C_14 
REMARK    6  A    between atoms: C_14  and  C_16 
REMARK    7  A    between atoms: C_16  and  N_18 
ROOT
HETATM    1  H           1     -22.497  -4.424  -6.555  0.00  0.00     0.163 HD
HETATM    2  N           1     -21.901  -5.019  -7.117  0.00  0.00    -0.345 N 
HETATM    3  C           1     -21.160  -6.003  -6.522  0.00  0.00     0.248 C 
HETATM    4  O           1     -20.449  -6.713  -7.193  0.00  0.00    -0.271 OA
ENDROOT
BRANCH   2   5
HETATM    5  C           1     -21.833  -4.826  -8.552  0.00  0.00     0.186 C 
BRANCH   5   6
HETATM    6  C           1     -22.875  -3.799  -8.977  0.00  0.00     0.046 C 
BRANCH   6   7
HETATM    7  C           1     -23.243  -4.022 -10.438  0.00  0.00     0.116 C 
BRANCH   7   8
HETATM    8  C           1     -24.577  -3.377 -10.725  0.00  0.00     0.172 C 
HETATM    9  O           1     -24.895  -3.093 -11.900  0.00  0.00    -0.648 OA
HETATM   10  O           1     -25.364  -3.126  -9.787  0.00  0.00    -0.648 OA
ENDBRANCH   7   8
ENDBRANCH   6   7
ENDBRANCH   5   6
BRANCH   5  11
HETATM   11  C           1     -20.458  -4.334  -8.929  0.00  0.00     0.196 C 
HETATM   12  O           1     -19.892  -4.783  -9.950  0.00  0.00    -0.646 OA
HETATM   13  O           1     -19.884  -3.479  -8.222  0.00  0.00    -0.646 OA
ENDBRANCH   5  11
ENDBRANCH   2   5
BRANCH   3  14
HETATM   14  C           1     -21.231  -6.203  -5.028  0.00  0.00     0.270 C 
HETATM   15  C           1     -20.600  -7.541  -4.663  0.00  0.00     0.050 C 
BRANCH  14  16
HETATM   16  N           1     -22.665  -6.191  -4.590  0.00  0.00    -0.067 N 
HETATM   17  H           1     -22.719  -5.916  -3.582  0.00  0.00     0.275 HD
HETATM   18  H           1     -23.075  -7.144  -4.713  0.00  0.00     0.275 HD
HETATM   19  H           1     -23.201  -5.504  -5.167  0.00  0.00     0.275 HD
ENDBRANCH  14  16
ENDBRANCH   3  14
TORSDOF 7
ENDMDL
MODEL 7
REMARK VINA RESULT:      -5.2      1.869      4.396
REMARK  7 active torsions:
REMARK  status: ('A' for Active; 'I' for Inactive)
REMARK    1  A    between atoms: C_5  and  C_7 
REMARK    2  A    between atoms: C_7  and  C_8 
REMARK    3  A    between atoms: C_8  and  C_9 
REMARK    4  A    between atoms: C_9  and  C_10 
REMARK    5  A    between atoms: C_9  and  N_13 
REMARK       I    between atoms: N_13  and  C_14 
REMARK    6  A    between atoms: C_14  and  C_16 
REMARK    7  A    between atoms: C_16  and  N_18 
ROOT
HETATM    1  H           1     -35.727   0.095 -12.593  0.00  0.00     0.163 HD
HETATM    2  N           1     -35.484  -0.875 -12.750  0.00  0.00    -0.345 N 
HETATM    3  C           1     -35.184  -1.310 -14.012  0.00  0.00     0.248 C 
HETATM    4  O           1     -34.894  -2.468 -14.198  0.00  0.00    -0.271 OA
ENDROOT
BRANCH   2   5
HETATM    5  C           1     -35.456  -1.803 -11.636  0.00  0.00     0.186 C 
BRANCH   5   6
HETATM    6  C           1     -34.021  -1.973 -11.154  0.00  0.00     0.046 C 
BRANCH   6   7
HETATM    7  C           1     -33.888  -3.296 -10.410  0.00  0.00     0.116 C 
BRANCH   7   8
HETATM    8  C           1     -33.374  -4.355 -11.354  0.00  0.00     0.172 C 
HETATM    9  O           1     -32.439  -4.092 -12.141  0.00  0.00    -0.648 OA
HETATM   10  O           1     -33.884  -5.496 -11.349  0.00  0.00    -0.648 OA
ENDBRANCH   7   8
ENDBRANCH   6   7
ENDBRANCH   5   6
BRANCH   5  11
HETATM   11  C           1     -36.304  -1.265 -10.511  0.00  0.00     0.196 C 
HETATM   12  O           1     -37.542  -1.443 -10.522  0.00  0.00    -0.646 OA
HETATM   13  O           1     -35.772  -0.642  -9.568  0.00  0.00    -0.646 OA
ENDBRANCH   5  11
ENDBRANCH   2   5
BRANCH   3  14
HETATM   14  C           1     -35.214  -0.344 -15.170  0.00  0.00     0.270 C 
HETATM   15  C           1     -36.508   0.457 -15.131  0.00  0.00     0.050 C 
BRANCH  14  16
HETATM   16  N           1     -35.138  -1.108 -16.459  0.00  0.00    -0.067 N 
HETATM   17  H           1     -35.217  -0.442 -17.263  0.00  0.00     0.275 HD
HETATM   18  H           1     -35.920  -1.799 -16.501  0.00  0.00     0.275 HD
HETATM   19  H           1     -34.224  -1.612 -16.513  0.00  0.00     0.275 HD
ENDBRANCH  14  16
ENDBRANCH   3  14
TORSDOF 7
ENDMDL
MODEL 8
REMARK VINA RESULT:      -4.9     15.470     17.528
REMARK  7 active torsions:
REMARK  status: ('A' for Active; 'I' for Inactive)
REMARK    1  A    between atoms: C_5  and  C_7 
REMARK    2  A    between atoms: C_7  and  C_8 
REMARK    3  A    between atoms: C_8  and  C_9 
REMARK    4  A    between atoms: C_9  and  C_10 
REMARK    5  A    between atoms: C_9  and  N_13 
REMARK       I    between atoms: N_13  and  C_14 
REMARK    6  A    between atoms: C_14  and  C_16 
REMARK    7  A    between atoms: C_16  and  N_18 
ROOT
HETATM    1  H           1     -21.893  -7.038  -7.001  0.00  0.00     0.163 HD
HETATM    2  N           1     -21.366  -6.388  -6.432  0.00  0.00    -0.345 N 
HETATM    3  C           1     -21.112  -5.125  -6.893  0.00  0.00     0.248 C 
HETATM    4  O           1     -20.482  -4.349  -6.213  0.00  0.00    -0.271 OA
ENDROOT
BRANCH   2   5
HETATM    5  C           1     -20.878  -6.797  -5.129  0.00  0.00     0.186 C 
BRANCH   5   6
HETATM    6  C           1     -21.996  -6.663  -4.104  0.00  0.00     0.046 C 
BRANCH   6   7
HETATM    7  C           1     -21.423  -6.151  -2.789  0.00  0.00     0.116 C 
BRANCH   7   8
HETATM    8  C           1     -21.815  -7.085  -1.671  0.00  0.00     0.172 C 
HETATM    9  O           1     -22.706  -6.750  -0.860  0.00  0.00    -0.648 OA
HETATM   10  O           1     -21.250  -8.194  -1.556  0.00  0.00    -0.648 OA
ENDBRANCH   7   8
ENDBRANCH   6   7
ENDBRANCH   5   6
BRANCH   5  11
HETATM   11  C           1     -20.419  -8.233  -5.191  0.00  0.00     0.196 C 
HETATM   12  O           1     -19.302  -8.511  -5.678  0.00  0.00    -0.646 OA
HETATM   13  O           1     -21.156  -9.143  -4.756  0.00  0.00    -0.646 OA
ENDBRANCH   5  11
ENDBRANCH   2   5
BRANCH   3  14
HETATM   14  C           1     -21.619  -4.700  -8.249  0.00  0.00     0.270 C 
HETATM   15  C           1     -20.444  -4.291  -9.127  0.00  0.00     0.050 C 
BRANCH  14  16
HETATM   16  N           1     -22.553  -3.537  -8.091  0.00  0.00    -0.067 N 
HETATM   17  H           1     -23.203  -3.499  -8.909  0.00  0.00     0.275 HD
HETATM   18  H           1     -22.001  -2.651  -8.043  0.00  0.00     0.275 HD
HETATM   19  H           1     -23.107  -3.651  -7.212  0.00  0.00     0.275 HD
ENDBRANCH  14  16
ENDBRANCH   3  14
TORSDOF 7
ENDMDL
MODEL 9
REMARK VINA RESULT:      -4.8     11.421     14.464
REMARK  7 active torsions:
REMARK  status: ('A' for Active; 'I' for Inactive)
REMARK    1  A    between atoms: C_5  and  C_7 
REMARK    2  A    between atoms: C_7  and  C_8 
REMARK    3  A    between atoms: C_8  and  C_9 
REMARK    4  A    between atoms: C_9  and  C_10 
REMARK    5  A    between atoms: C_9  and  N_13 
REMARK       I    between atoms: N_13  and  C_14 
REMARK    6  A    between atoms: C_14  and  C_16 
REMARK    7  A    between atoms: C_16  and  N_18 
ROOT
HETATM    1  H           1     -21.976  -3.866 -11.732  0.00  0.00     0.163 HD
HETATM    2  N           1     -22.525  -3.623 -10.918  0.00  0.00    -0.345 N 
HETATM    3  C           1     -23.820  -3.208 -11.064  0.00  0.00     0.248 C 
HETATM    4  O           1     -24.475  -2.918 -10.091  0.00  0.00    -0.271 OA
ENDROOT
BRANCH   2   5
HETATM    5  C           1     -21.937  -3.713  -9.595  0.00  0.00     0.186 C 
BRANCH   5   6
HETATM    6  C           1     -22.629  -4.819  -8.807  0.00  0.00     0.046 C 
BRANCH   6   7
HETATM    7  C           1     -22.609  -4.475  -7.324  0.00  0.00     0.116 C 
BRANCH   7   8
HETATM    8  C           1     -21.866  -5.550  -6.568  0.00  0.00     0.172 C 
HETATM    9  O           1     -21.090  -6.319  -7.175  0.00  0.00    -0.648 OA
HETATM   10  O           1     -22.027  -5.670  -5.334  0.00  0.00    -0.648 OA
ENDBRANCH   7   8
ENDBRANCH   6   7
ENDBRANCH   5   6
BRANCH   5  11
HETATM   11  C           1     -20.467  -4.027  -9.718  0.00  0.00     0.196 C 
HETATM   12  O           1     -19.687  -3.740  -8.783  0.00  0.00    -0.646 OA
HETATM   13  O           1     -20.027  -4.571 -10.752  0.00  0.00    -0.646 OA
ENDBRANCH   5  11
ENDBRANCH   2   5
BRANCH   3  14
HETATM   14  C           1     -24.431  -3.114 -12.440  0.00  0.00     0.270 C 
HETATM   15  C           1     -24.157  -4.400 -13.208  0.00  0.00     0.050 C 
BRANCH  14  16
HETATM   16  N           1     -23.828  -1.955 -13.177  0.00  0.00    -0.067 N 
HETATM   17  H           1     -24.194  -1.060 -12.778  0.00  0.00     0.275 HD
HETATM   18  H           1     -24.082  -2.014 -14.189  0.00  0.00     0.275 HD
HETATM   19  H           1     -22.788  -1.981 -13.077  0.00  0.00     0.275 HD
ENDBRANCH  14  16
ENDBRANCH   3  14
TORSDOF 7
ENDMDL
