MODEL 1
REMARK VINA RESULT:      -5.3      0.000      0.000
REMARK  6 active torsions:
REMARK  status: ('A' for Active; 'I' for Inactive)
REMARK    1  A    between atoms: C_5  and  C_6 
REMARK    2  A    between atoms: C_5  and  C_12 
REMARK    3  A    between atoms: C_5  and  N_14 
REMARK       I    between atoms: C_6  and  N_7 
REMARK    4  A    between atoms: N_7  and  C_8 
REMARK    5  A    between atoms: C_8  and  C_10 
REMARK    6  A    between atoms: C_12  and  Se_13 
ROOT
HETATM    1  C           1     -23.156  -3.574  -9.267  0.00  0.00     0.274 C 
ENDROOT
BRANCH   1   2
HETATM    2  C           1     -24.093  -3.302 -10.418  0.00  0.00     0.248 C 
HETATM    3  N           1     -23.593  -3.129 -11.681  0.00  0.00    -0.349 N 
HETATM    4  H           1     -22.596  -3.184 -11.843  0.00  0.00     0.163 HD
HETATM    5  O           1     -25.284  -3.237 -10.225  0.00  0.00    -0.271 OA
BRANCH   3   6
HETATM    6  C           1     -24.494  -2.868 -12.787  0.00  0.00     0.235 C 
BRANCH   6   7
HETATM    7  C           1     -23.705  -2.362 -13.970  0.00  0.00     0.191 C 
HETATM    8  O           1     -24.150  -1.420 -14.662  0.00  0.00    -0.647 OA
HETATM    9  O           1     -22.606  -2.885 -14.258  0.00  0.00    -0.647 OA
ENDBRANCH   6   7
ENDBRANCH   3   6
ENDBRANCH   1   2
BRANCH   1  10
HETATM   10  C           1     -22.178  -4.675  -9.657  0.00  0.00     0.045 C 
BRANCH  10  11
HETATM   11 Se           1     -20.443  -4.322  -8.842  0.00  0.00     0.000 Se
HETATM   12  H           1     -20.368  -2.934  -9.328  0.00  0.00     0.000 HD
ENDBRANCH  10  11
ENDBRANCH   1  10
BRANCH   1  13
HETATM   13  N           1     -23.947  -4.010  -8.070  0.00  0.00    -0.067 N 
HETATM   14  H           1     -24.636  -4.742  -8.355  0.00  0.00     0.275 HD
HETATM   15  H           1     -23.300  -4.402  -7.349  0.00  0.00     0.275 HD
HETATM   16  H           1     -24.456  -3.188  -7.672  0.00  0.00     0.275 HD
ENDBRANCH   1  13
TORSDOF 6
ENDMDL
MODEL 2
REMARK VINA RESULT:      -5.0      8.033      9.339
REMARK  6 active torsions:
REMARK  status: ('A' for Active; 'I' for Inactive)
REMARK    1  A    between atoms: C_5  and  C_6 
REMARK    2  A    between atoms: C_5  and  C_12 
REMARK    3  A    between atoms: C_5  and  N_14 
REMARK       I    between atoms: C_6  and  N_7 
REMARK    4  A    between atoms: N_7  and  C_8 
REMARK    5  A    between atoms: C_8  and  C_10 
REMARK    6  A    between atoms: C_12  and  Se_13 
ROOT
HETATM    1  C           1     -29.828  -6.807 -18.250  0.00  0.00     0.274 C 
ENDROOT
BRANCH   1   2
HETATM    2  C           1     -28.404  -6.311 -18.255  0.00  0.00     0.248 C 
HETATM    3  N           1     -27.540  -6.699 -17.265  0.00  0.00    -0.349 N 
HETATM    4  H           1     -27.859  -7.318 -16.530  0.00  0.00     0.163 HD
HETATM    5  O           1     -28.024  -5.572 -19.132  0.00  0.00    -0.271 OA
BRANCH   3   6
HETATM    6  C           1     -26.171  -6.223 -17.270  0.00  0.00     0.235 C 
BRANCH   6   7
HETATM    7  C           1     -25.567  -6.413 -15.900  0.00  0.00     0.191 C 
HETATM    8  O           1     -25.027  -5.449 -15.315  0.00  0.00    -0.647 OA
HETATM    9  O           1     -25.607  -7.535 -15.349  0.00  0.00    -0.647 OA
ENDBRANCH   6   7
ENDBRANCH   3   6
ENDBRANCH   1   2
BRANCH   1  10
HETATM   10  C           1     -30.441  -6.581 -16.874  0.00  0.00     0.045 C 
BRANCH  10  11
HETATM   11 Se           1     -31.540  -4.972 -16.907  0.00  0.00     0.000 Se
HETATM   12  H           1     -30.716  -4.249 -15.925  0.00  0.00     0.000 HD
ENDBRANCH  10  11
ENDBRANCH   1  10
BRANCH   1  13
HETATM   13  N           1     -29.849  -8.272 -18.571  0.00  0.00    -0.067 N 
HETATM   14  H           1     -30.459  -8.771 -17.885  0.00  0.00     0.275 HD
HETATM   15  H           1     -30.225  -8.412 -19.537  0.00  0.00     0.275 HD
HETATM   16  H           1     -28.877  -8.654 -18.517  0.00  0.00     0.275 HD
ENDBRANCH   1  13
TORSDOF 6
ENDMDL
MODEL 3
REMARK VINA RESULT:      -5.0     11.711     12.287
REMARK  6 active torsions:
REMARK  status: ('A' for Active; 'I' for Inactive)
REMARK    1  A    between atoms: C_5  and  C_6 
REMARK    2  A    between atoms: C_5  and  C_12 
REMARK    3  A    between atoms: C_5  and  N_14 
REMARK       I    between atoms: C_6  and  N_7 
REMARK    4  A    between atoms: N_7  and  C_8 
REMARK    5  A    between atoms: C_8  and  C_10 
REMARK    6  A    between atoms: C_12  and  Se_13 
ROOT
HETATM    1  C           1     -34.641  -1.721 -11.995  0.00  0.00     0.274 C 
ENDROOT
BRANCH   1   2
HETATM    2  C           1     -35.496  -1.080 -13.060  0.00  0.00     0.248 C 
HETATM    3  N           1     -34.909  -0.504 -14.155  0.00  0.00    -0.349 N 
HETATM    4  H           1     -33.902  -0.508 -14.249  0.00  0.00     0.163 HD
HETATM    5  O           1     -36.699  -1.075 -12.947  0.00  0.00    -0.271 OA
BRANCH   3   6
HETATM    6  C           1     -35.731   0.111 -15.178  0.00  0.00     0.235 C 
BRANCH   6   7
HETATM    7  C           1     -35.840  -0.819 -16.362  0.00  0.00     0.191 C 
HETATM    8  O           1     -36.851  -0.780 -17.097  0.00  0.00    -0.647 OA
HETATM    9  O           1     -34.919  -1.627 -16.609  0.00  0.00    -0.647 OA
ENDBRANCH   6   7
ENDBRANCH   3   6
ENDBRANCH   1   2
BRANCH   1  10
HETATM   10  C           1     -34.714  -3.236 -12.127  0.00  0.00     0.045 C 
BRANCH  10  11
HETATM   11 Se           1     -32.954  -4.004 -11.792  0.00  0.00     0.000 Se
HETATM   12  H           1     -32.219  -2.814 -12.254  0.00  0.00     0.000 HD
ENDBRANCH  10  11
ENDBRANCH   1  10
BRANCH   1  13
HETATM   13  N           1     -35.140  -1.313 -10.640  0.00  0.00    -0.067 N 
HETATM   14  H           1     -34.453  -0.663 -10.196  0.00  0.00     0.275 HD
HETATM   15  H           1     -36.062  -0.830 -10.740  0.00  0.00     0.275 HD
HETATM   16  H           1     -35.255  -2.162 -10.042  0.00  0.00     0.275 HD
ENDBRANCH   1  13
TORSDOF 6
ENDMDL
MODEL 4
REMARK VINA RESULT:      -4.8      8.153      9.118
REMARK  6 active torsions:
REMARK  status: ('A' for Active; 'I' for Inactive)
REMARK    1  A    between atoms: C_5  and  C_6 
REMARK    2  A    between atoms: C_5  and  C_12 
REMARK    3  A    between atoms: C_5  and  N_14 
REMARK       I    between atoms: C_6  and  N_7 
REMARK    4  A    between atoms: N_7  and  C_8 
REMARK    5  A    between atoms: C_8  and  C_10 
REMARK    6  A    between atoms: C_12  and  Se_13 
ROOT
HETATM    1  C           1     -28.758  -6.999 -16.649  0.00  0.00     0.274 C 
ENDROOT
BRANCH   1   2
HETATM    2  C           1     -29.794  -6.012 -16.170  0.00  0.00     0.248 C 
HETATM    3  N           1     -30.909  -5.768 -16.928  0.00  0.00    -0.349 N 
HETATM    4  H           1     -31.037  -6.250 -17.808  0.00  0.00     0.163 HD
HETATM    5  O           1     -29.640  -5.437 -15.119  0.00  0.00    -0.271 OA
BRANCH   3   6
HETATM    6  C           1     -31.904  -4.820 -16.467  0.00  0.00     0.235 C 
BRANCH   6   7
HETATM    7  C           1     -31.962  -3.650 -17.419  0.00  0.00     0.191 C 
HETATM    8  O           1     -33.027  -3.009 -17.558  0.00  0.00    -0.647 OA
HETATM    9  O           1     -30.946  -3.321 -18.069  0.00  0.00    -0.647 OA
ENDBRANCH   6   7
ENDBRANCH   3   6
ENDBRANCH   1   2
BRANCH   1  10
HETATM   10  C           1     -27.739  -7.243 -15.544  0.00  0.00     0.045 C 
BRANCH  10  11
HETATM   11 Se           1     -25.977  -6.667 -16.145  0.00  0.00     0.000 Se
HETATM   12  H           1     -25.317  -7.937 -15.801  0.00  0.00     0.000 HD
ENDBRANCH  10  11
ENDBRANCH   1  10
BRANCH   1  13
HETATM   13  N           1     -28.061  -6.446 -17.857  0.00  0.00    -0.067 N 
HETATM   14  H           1     -28.270  -7.046 -18.686  0.00  0.00     0.275 HD
HETATM   15  H           1     -28.398  -5.473 -18.038  0.00  0.00     0.275 HD
HETATM   16  H           1     -27.030  -6.432 -17.687  0.00  0.00     0.275 HD
ENDBRANCH   1  13
TORSDOF 6
ENDMDL
MODEL 5
REMARK VINA RESULT:      -4.8     11.645     12.882
REMARK  6 active torsions:
REMARK  status: ('A' for Active; 'I' for Inactive)
REMARK    1  A    between atoms: C_5  and  C_6 
REMARK    2  A    between atoms: C_5  and  C_12 
REMARK    3  A    between atoms: C_5  and  N_14 
REMARK       I    between atoms: C_6  and  N_7 
REMARK    4  A    between atoms: N_7  and  C_8 
REMARK    5  A    between atoms: C_8  and  C_10 
REMARK    6  A    between atoms: C_12  and  Se_13 
ROOT
HETATM    1  C           1     -35.776   0.486 -14.221  0.00  0.00     0.274 C 
ENDROOT
BRANCH   1   2
HETATM    2  C           1     -35.859  -0.739 -13.343  0.00  0.00     0.248 C 
HETATM    3  N           1     -34.726  -1.452 -13.056  0.00  0.00    -0.349 N 
HETATM    4  H           1     -33.834  -1.158 -13.432  0.00  0.00     0.163 HD
HETATM    5  O           1     -36.924  -1.090 -12.894  0.00  0.00    -0.271 OA
BRANCH   3   6
HETATM    6  C           1     -34.805  -2.629 -12.212  0.00  0.00     0.235 C 
BRANCH   6   7
HETATM    7  C           1     -33.594  -2.686 -11.313  0.00  0.00     0.191 C 
HETATM    8  O           1     -32.850  -3.691 -11.330  0.00  0.00    -0.647 OA
HETATM    9  O           1     -33.335  -1.729 -10.552  0.00  0.00    -0.647 OA
ENDBRANCH   6   7
ENDBRANCH   3   6
ENDBRANCH   1   2
BRANCH   1  10
HETATM   10  C           1     -36.751   0.346 -15.382  0.00  0.00     0.045 C 
BRANCH  10  11
HETATM   11 Se           1     -36.089  -0.997 -16.629  0.00  0.00     0.000 Se
HETATM   12  H           1     -35.233  -0.055 -17.370  0.00  0.00     0.000 HD
ENDBRANCH  10  11
ENDBRANCH   1  10
BRANCH   1  13
HETATM   13  N           1     -34.381   0.625 -14.754  0.00  0.00    -0.067 N 
HETATM   14  H           1     -33.828   1.251 -14.127  0.00  0.00     0.275 HD
HETATM   15  H           1     -33.928  -0.316 -14.794  0.00  0.00     0.275 HD
HETATM   16  H           1     -34.416   1.037 -15.715  0.00  0.00     0.275 HD
ENDBRANCH   1  13
TORSDOF 6
ENDMDL
MODEL 6
REMARK VINA RESULT:      -4.7      9.582     10.311
REMARK  6 active torsions:
REMARK  status: ('A' for Active; 'I' for Inactive)
REMARK    1  A    between atoms: C_5  and  C_6 
REMARK    2  A    between atoms: C_5  and  C_12 
REMARK    3  A    between atoms: C_5  and  N_14 
REMARK       I    between atoms: C_6  and  N_7 
REMARK    4  A    between atoms: N_7  and  C_8 
REMARK    5  A    between atoms: C_8  and  C_10 
REMARK    6  A    between atoms: C_12  and  Se_13 
ROOT
HETATM    1  C           1     -29.400  -6.861 -18.374  0.00  0.00     0.274 C 
ENDROOT
BRANCH   1   2
HETATM    2  C           1     -27.954  -6.523 -18.641  0.00  0.00     0.248 C 
HETATM    3  N           1     -27.335  -7.002 -19.765  0.00  0.00    -0.349 N 
HETATM    4  H           1     -27.848  -7.583 -20.416  0.00  0.00     0.163 HD
HETATM    5  O           1     -27.342  -5.829 -17.864  0.00  0.00    -0.271 OA
BRANCH   3   6
HETATM    6  C           1     -25.946  -6.677 -20.022  0.00  0.00     0.235 C 
BRANCH   6   7
HETATM    7  C           1     -25.299  -7.804 -20.788  0.00  0.00     0.191 C 
HETATM    8  O           1     -24.078  -8.038 -20.646  0.00  0.00    -0.647 OA
HETATM    9  O           1     -25.982  -8.505 -21.566  0.00  0.00    -0.647 OA
ENDBRANCH   6   7
ENDBRANCH   3   6
ENDBRANCH   1   2
BRANCH   1  10
HETATM   10  C           1     -29.739  -6.533 -16.926  0.00  0.00     0.045 C 
BRANCH  10  11
HETATM   11 Se           1     -31.196  -5.239 -16.878  0.00  0.00     0.000 Se
HETATM   12  H           1     -31.863  -5.859 -15.721  0.00  0.00     0.000 HD
ENDBRANCH  10  11
ENDBRANCH   1  10
BRANCH   1  13
HETATM   13  N           1     -29.624  -8.324 -18.620  0.00  0.00    -0.067 N 
HETATM   14  H           1     -29.266  -8.578 -19.567  0.00  0.00     0.275 HD
HETATM   15  H           1     -29.117  -8.881 -17.895  0.00  0.00     0.275 HD
HETATM   16  H           1     -30.647  -8.532 -18.566  0.00  0.00     0.275 HD
ENDBRANCH   1  13
TORSDOF 6
ENDMDL
MODEL 7
REMARK VINA RESULT:      -4.6      2.230      2.590
REMARK  6 active torsions:
REMARK  status: ('A' for Active; 'I' for Inactive)
REMARK    1  A    between atoms: C_5  and  C_6 
REMARK    2  A    between atoms: C_5  and  C_12 
REMARK    3  A    between atoms: C_5  and  N_14 
REMARK       I    between atoms: C_6  and  N_7 
REMARK    4  A    between atoms: N_7  and  C_8 
REMARK    5  A    between atoms: C_8  and  C_10 
REMARK    6  A    between atoms: C_12  and  Se_13 
ROOT
HETATM    1  C           1     -22.120  -3.898 -11.453  0.00  0.00     0.274 C 
ENDROOT
BRANCH   1   2
HETATM    2  C           1     -22.881  -3.640 -12.731  0.00  0.00     0.248 C 
HETATM    3  N           1     -22.291  -2.938 -13.748  0.00  0.00    -0.349 N 
HETATM    4  H           1     -21.346  -2.593 -13.642  0.00  0.00     0.163 HD
HETATM    5  O           1     -24.009  -4.053 -12.856  0.00  0.00    -0.271 OA
BRANCH   3   6
HETATM    6  C           1     -23.022  -2.690 -14.975  0.00  0.00     0.235 C 
BRANCH   6   7
HETATM    7  C           1     -23.704  -1.346 -14.892  0.00  0.00     0.191 C 
HETATM    8  O           1     -23.148  -0.333 -15.369  0.00  0.00    -0.647 OA
HETATM    9  O           1     -24.824  -1.246 -14.346  0.00  0.00    -0.647 OA
ENDBRANCH   6   7
ENDBRANCH   3   6
ENDBRANCH   1   2
BRANCH   1  10
HETATM   10  C           1     -23.006  -3.570 -10.259  0.00  0.00     0.045 C 
BRANCH  10  11
HETATM   11 Se           1     -22.070  -4.022  -8.611  0.00  0.00     0.000 Se
HETATM   12  H           1     -23.224  -3.739  -7.741  0.00  0.00     0.000 HD
ENDBRANCH  10  11
ENDBRANCH   1  10
BRANCH   1  13
HETATM   13  N           1     -20.895  -3.035 -11.418  0.00  0.00    -0.067 N 
HETATM   14  H           1     -20.069  -3.587 -11.743  0.00  0.00     0.275 HD
HETATM   15  H           1     -21.031  -2.211 -12.046  0.00  0.00     0.275 HD
HETATM   16  H           1     -20.730  -2.704 -10.440  0.00  0.00     0.275 HD
ENDBRANCH   1  13
TORSDOF 6
ENDMDL
MODEL 8
REMARK VINA RESULT:      -4.6      2.225      2.486
REMARK  6 active torsions:
REMARK  status: ('A' for Active; 'I' for Inactive)
REMARK    1  A    between atoms: C_5  and  C_6 
REMARK    2  A    between atoms: C_5  and  C_12 
REMARK    3  A    between atoms: C_5  and  N_14 
REMARK       I    between atoms: C_6  and  N_7 
REMARK    4  A    between atoms: N_7  and  C_8 
REMARK    5  A    between atoms: C_8  and  C_10 
REMARK    6  A    between atoms: C_12  and  Se_13 
ROOT
HETATM    1  C           1     -21.378  -4.562  -8.476  0.00  0.00     0.274 C 
ENDROOT
BRANCH   1   2
HETATM    2  C           1     -22.737  -4.209  -9.026  0.00  0.00     0.248 C 
HETATM    3  N           1     -22.890  -3.952 -10.362  0.00  0.00    -0.349 N 
HETATM    4  H           1     -22.090  -4.000 -10.980  0.00  0.00     0.163 HD
HETATM    5  O           1     -23.692  -4.153  -8.287  0.00  0.00    -0.271 OA
BRANCH   3   6
HETATM    6  C           1     -24.196  -3.613 -10.891  0.00  0.00     0.235 C 
BRANCH   6   7
HETATM    7  C           1     -24.039  -2.964 -12.244  0.00  0.00     0.191 C 
HETATM    8  O           1     -25.015  -2.898 -13.023  0.00  0.00    -0.647 OA
HETATM    9  O           1     -22.933  -2.494 -12.587  0.00  0.00    -0.647 OA
ENDBRANCH   6   7
ENDBRANCH   3   6
ENDBRANCH   1   2
BRANCH   1  10
HETATM   10  C           1     -21.109  -3.745  -7.219  0.00  0.00     0.045 C 
BRANCH  10  11
HETATM   11 Se           1     -20.228  -4.865  -5.890  0.00  0.00     0.000 Se
HETATM   12  H           1     -20.028  -5.998  -6.809  0.00  0.00     0.000 HD
ENDBRANCH  10  11
ENDBRANCH   1  10
BRANCH   1  13
HETATM   13  N           1     -20.328  -4.257  -9.503  0.00  0.00    -0.067 N 
HETATM   14  H           1     -20.084  -5.130 -10.023  0.00  0.00     0.275 HD
HETATM   15  H           1     -20.694  -3.544 -10.174  0.00  0.00     0.275 HD
HETATM   16  H           1     -19.475  -3.884  -9.028  0.00  0.00     0.275 HD
ENDBRANCH   1  13
TORSDOF 6
ENDMDL
MODEL 9
REMARK VINA RESULT:      -4.4      3.714      5.748
REMARK  6 active torsions:
REMARK  status: ('A' for Active; 'I' for Inactive)
REMARK    1  A    between atoms: C_5  and  C_6 
REMARK    2  A    between atoms: C_5  and  C_12 
REMARK    3  A    between atoms: C_5  and  N_14 
REMARK       I    between atoms: C_6  and  N_7 
REMARK    4  A    between atoms: N_7  and  C_8 
REMARK    5  A    between atoms: C_8  and  C_10 
REMARK    6  A    between atoms: C_12  and  Se_13 
ROOT
HETATM    1  C           1     -23.811  -3.753 -10.024  0.00  0.00     0.274 C 
ENDROOT
BRANCH   1   2
HETATM    2  C           1     -22.509  -3.855  -9.269  0.00  0.00     0.248 C 
HETATM    3  N           1     -22.506  -3.818  -7.900  0.00  0.00    -0.349 N 
HETATM    4  H           1     -23.378  -3.723  -7.395  0.00  0.00     0.163 HD
HETATM    5  O           1     -21.468  -3.969  -9.872  0.00  0.00    -0.271 OA
BRANCH   3   6
HETATM    6  C           1     -21.255  -3.916  -7.175  0.00  0.00     0.235 C 
BRANCH   6   7
HETATM    7  C           1     -21.131  -5.293  -6.570  0.00  0.00     0.191 C 
HETATM    8  O           1     -21.188  -5.439  -5.329  0.00  0.00    -0.647 OA
HETATM    9  O           1     -20.971  -6.289  -7.309  0.00  0.00    -0.647 OA
ENDBRANCH   6   7
ENDBRANCH   3   6
ENDBRANCH   1   2
BRANCH   1  10
HETATM   10  C           1     -23.611  -2.902 -11.271  0.00  0.00     0.045 C 
BRANCH  10  11
HETATM   11 Se           1     -24.007  -3.966 -12.855  0.00  0.00     0.000 Se
HETATM   12  H           1     -24.467  -5.139 -12.093  0.00  0.00     0.000 HD
ENDBRANCH  10  11
ENDBRANCH   1  10
BRANCH   1  13
HETATM   13  N           1     -24.848  -3.116  -9.147  0.00  0.00    -0.067 N 
HETATM   14  H           1     -24.379  -2.565  -8.394  0.00  0.00     0.275 HD
HETATM   15  H           1     -25.448  -2.481  -9.721  0.00  0.00     0.275 HD
HETATM   16  H           1     -25.442  -3.860  -8.715  0.00  0.00     0.275 HD
ENDBRANCH   1  13
TORSDOF 6
ENDMDL
