MODEL 1
REMARK VINA RESULT:      -7.8      0.000      0.000
REMARK  7 active torsions:
REMARK  status: ('A' for Active; 'I' for Inactive)
REMARK       I    between atoms: C_1  and  N_17 
REMARK    1  A    between atoms: C_1  and  C_2 
REMARK       I    between atoms: N_3  and  C_15 
REMARK    2  A    between atoms: C_8  and  N_9 
REMARK    3  A    between atoms: C_8  and  C_10 
REMARK       I    between atoms: N_9  and  C_15 
REMARK    4  A    between atoms: C_10  and  C_11 
REMARK    5  A    between atoms: C_11  and  C_20 
REMARK    6  A    between atoms: N_17  and  C_20 
REMARK    7  A    between atoms: C_20  and  C_21 
ROOT
HETATM    1  C           1     -34.855  -2.495 -12.062  0.00  0.00     0.185 C 
ENDROOT
BRANCH   1   2
HETATM    2  C           1     -33.937  -3.679 -12.332  0.00  0.00     0.038 C 
BRANCH   2   3
HETATM    3  C           1     -34.700  -4.977 -12.098  0.00  0.00     0.023 C 
BRANCH   3   4
HETATM    4  C           1     -34.370  -5.519 -10.714  0.00  0.00     0.138 C 
BRANCH   4   5
HETATM    5  N           1     -33.704  -6.823 -10.844  0.00  0.00    -0.227 N 
HETATM    6  C           1     -34.158  -7.830 -10.225  0.00  0.00     0.665 C 
HETATM    7  N           1     -33.569  -8.983 -10.340  0.00  0.00    -0.235 N 
HETATM    8  N           1     -35.186  -7.714  -9.495  0.00  0.00    -0.235 N 
HETATM    9  H           1     -32.721  -9.079 -10.943  0.00  0.00     0.174 HD
HETATM   10  H           1     -33.944  -9.814  -9.829  0.00  0.00     0.174 HD
HETATM   11  H           1     -35.662  -6.783  -9.402  0.00  0.00     0.174 HD
HETATM   12  H           1     -35.562  -8.550  -8.982  0.00  0.00     0.174 HD
HETATM   13  H           1     -32.852  -6.919 -11.449  0.00  0.00     0.177 HD
ENDBRANCH   4   5
ENDBRANCH   3   4
ENDBRANCH   2   3
ENDBRANCH   1   2
BRANCH   1  14
HETATM   14  N           1     -34.762  -1.550 -13.158  0.00  0.00    -0.345 N 
HETATM   15  C           1     -35.869  -0.843 -13.546  0.00  0.00     0.251 C 
HETATM   16  O           1     -36.921  -1.006 -12.976  0.00  0.00    -0.271 OA
HETATM   17  H           1     -33.881  -1.414 -13.635  0.00  0.00     0.163 HD
BRANCH  15  18
HETATM   18  C           1     -35.772   0.140 -14.687  0.00  0.00     0.311 C 
HETATM   19  N           1     -34.814  -0.320 -15.689  0.00  0.00     0.097 N 
HETATM   20  H           1     -34.544   0.445 -16.308  0.00  0.00     0.317 HD
HETATM   21  C           1     -35.528  -1.337 -16.456  0.00  0.00     0.271 C 
HETATM   22  C           1     -36.925  -0.761 -16.609  0.00  0.00     0.033 C 
HETATM   23  C           1     -37.084   0.214 -15.450  0.00  0.00     0.047 C 
ENDBRANCH  15  18
ENDBRANCH   1  14
BRANCH   1  24
HETATM   24  C           1     -34.440  -1.818 -10.779  0.00  0.00     0.196 C 
HETATM   25  O           1     -35.303  -1.302 -10.037  0.00  0.00    -0.646 OA
HETATM   26  O           1     -33.232  -1.774 -10.459  0.00  0.00    -0.646 OA
ENDBRANCH   1  24
TORSDOF 7
ENDMDL
MODEL 2
REMARK VINA RESULT:      -7.6     12.029     14.674
REMARK  7 active torsions:
REMARK  status: ('A' for Active; 'I' for Inactive)
REMARK       I    between atoms: C_1  and  N_17 
REMARK    1  A    between atoms: C_1  and  C_2 
REMARK       I    between atoms: N_3  and  C_15 
REMARK    2  A    between atoms: C_8  and  N_9 
REMARK    3  A    between atoms: C_8  and  C_10 
REMARK       I    between atoms: N_9  and  C_15 
REMARK    4  A    between atoms: C_10  and  C_11 
REMARK    5  A    between atoms: C_11  and  C_20 
REMARK    6  A    between atoms: N_17  and  C_20 
REMARK    7  A    between atoms: C_20  and  C_21 
ROOT
HETATM    1  C           1     -22.673  -3.812 -10.089  0.00  0.00     0.185 C 
ENDROOT
BRANCH   1   2
HETATM    2  C           1     -22.288  -4.007 -11.549  0.00  0.00     0.038 C 
BRANCH   2   3
HETATM    3  C           1     -22.471  -2.695 -12.302  0.00  0.00     0.023 C 
BRANCH   3   4
HETATM    4  C           1     -23.280  -2.944 -13.569  0.00  0.00     0.138 C 
BRANCH   4   5
HETATM    5  N           1     -24.047  -1.737 -13.907  0.00  0.00    -0.227 N 
HETATM    6  C           1     -23.750  -1.067 -14.940  0.00  0.00     0.665 C 
HETATM    7  N           1     -24.428   0.001 -15.238  0.00  0.00    -0.235 N 
HETATM    8  N           1     -22.793  -1.438 -15.681  0.00  0.00    -0.235 N 
HETATM    9  H           1     -25.218   0.307 -14.627  0.00  0.00     0.174 HD
HETATM   10  H           1     -24.183   0.553 -16.091  0.00  0.00     0.174 HD
HETATM   11  H           1     -22.245  -2.301 -15.440  0.00  0.00     0.174 HD
HETATM   12  H           1     -22.547  -0.882 -16.538  0.00  0.00     0.174 HD
HETATM   13  H           1     -24.840  -1.430 -13.292  0.00  0.00     0.177 HD
ENDBRANCH   4   5
ENDBRANCH   3   4
ENDBRANCH   2   3
ENDBRANCH   1   2
BRANCH   1  14
HETATM   14  N           1     -22.056  -4.847  -9.283  0.00  0.00    -0.345 N 
HETATM   15  C           1     -21.980  -4.700  -7.924  0.00  0.00     0.251 C 
HETATM   16  O           1     -22.426  -3.709  -7.397  0.00  0.00    -0.271 OA
HETATM   17  H           1     -21.682  -5.677  -9.724  0.00  0.00     0.163 HD
BRANCH  15  18
HETATM   18  C           1     -21.337  -5.777  -7.084  0.00  0.00     0.311 C 
HETATM   19  N           1     -19.966  -6.027  -7.521  0.00  0.00     0.097 N 
HETATM   20  H           1     -19.627  -6.916  -7.155  0.00  0.00     0.317 HD
HETATM   21  C           1     -19.182  -4.935  -6.951  0.00  0.00     0.271 C 
HETATM   22  C           1     -19.764  -4.759  -5.559  0.00  0.00     0.033 C 
HETATM   23  C           1     -21.179  -5.318  -5.644  0.00  0.00     0.047 C 
ENDBRANCH  15  18
ENDBRANCH   1  14
BRANCH   1  24
HETATM   24  C           1     -24.174  -3.894  -9.950  0.00  0.00     0.196 C 
HETATM   25  O           1     -24.837  -2.860  -9.720  0.00  0.00    -0.646 OA
HETATM   26  O           1     -24.752  -4.997 -10.064  0.00  0.00    -0.646 OA
ENDBRANCH   1  24
TORSDOF 7
ENDMDL
MODEL 3
REMARK VINA RESULT:      -6.5     12.368     14.867
REMARK  7 active torsions:
REMARK  status: ('A' for Active; 'I' for Inactive)
REMARK       I    between atoms: C_1  and  N_17 
REMARK    1  A    between atoms: C_1  and  C_2 
REMARK       I    between atoms: N_3  and  C_15 
REMARK    2  A    between atoms: C_8  and  N_9 
REMARK    3  A    between atoms: C_8  and  C_10 
REMARK       I    between atoms: N_9  and  C_15 
REMARK    4  A    between atoms: C_10  and  C_11 
REMARK    5  A    between atoms: C_11  and  C_20 
REMARK    6  A    between atoms: N_17  and  C_20 
REMARK    7  A    between atoms: C_20  and  C_21 
ROOT
HETATM    1  C           1     -22.493  -3.811  -9.263  0.00  0.00     0.185 C 
ENDROOT
BRANCH   1   2
HETATM    2  C           1     -21.627  -4.700 -10.146  0.00  0.00     0.038 C 
BRANCH   2   3
HETATM    3  C           1     -20.697  -3.831 -10.984  0.00  0.00     0.023 C 
BRANCH   3   4
HETATM    4  C           1     -21.511  -2.760 -11.700  0.00  0.00     0.138 C 
BRANCH   4   5
HETATM    5  N           1     -21.939  -3.265 -13.013  0.00  0.00    -0.227 N 
HETATM    6  C           1     -23.115  -3.039 -13.425  0.00  0.00     0.665 C 
HETATM    7  N           1     -23.493  -3.486 -14.585  0.00  0.00    -0.235 N 
HETATM    8  N           1     -23.921  -2.379 -12.706  0.00  0.00    -0.235 N 
HETATM    9  H           1     -22.827  -4.030 -15.178  0.00  0.00     0.174 HD
HETATM   10  H           1     -24.464  -3.299 -14.925  0.00  0.00     0.174 HD
HETATM   11  H           1     -23.616  -2.018 -11.768  0.00  0.00     0.174 HD
HETATM   12  H           1     -24.897  -2.192 -13.048  0.00  0.00     0.174 HD
HETATM   13  H           1     -21.269  -3.812 -13.608  0.00  0.00     0.177 HD
ENDBRANCH   4   5
ENDBRANCH   3   4
ENDBRANCH   2   3
ENDBRANCH   1   2
BRANCH   1  14
HETATM   14  N           1     -22.482  -4.319  -7.905  0.00  0.00    -0.345 N 
HETATM   15  C           1     -21.348  -4.213  -7.145  0.00  0.00     0.251 C 
HETATM   16  O           1     -20.357  -3.697  -7.606  0.00  0.00    -0.271 OA
HETATM   17  H           1     -23.311  -4.751  -7.520  0.00  0.00     0.163 HD
BRANCH  15  18
HETATM   18  C           1     -21.336  -4.742  -5.732  0.00  0.00     0.311 C 
HETATM   19  N           1     -22.250  -5.873  -5.593  0.00  0.00     0.097 N 
HETATM   20  H           1     -22.452  -6.056  -4.610  0.00  0.00     0.317 HD
HETATM   21  C           1     -21.533  -7.011  -6.162  0.00  0.00     0.271 C 
HETATM   22  C           1     -20.107  -6.821  -5.674  0.00  0.00     0.033 C 
HETATM   23  C           1     -19.979  -5.331  -5.386  0.00  0.00     0.047 C 
ENDBRANCH  15  18
ENDBRANCH   1  14
BRANCH   1  24
HETATM   24  C           1     -23.908  -3.809  -9.787  0.00  0.00     0.196 C 
HETATM   25  O           1     -24.667  -2.850  -9.532  0.00  0.00    -0.646 OA
HETATM   26  O           1     -24.321  -4.768 -10.476  0.00  0.00    -0.646 OA
ENDBRANCH   1  24
TORSDOF 7
ENDMDL
MODEL 4
REMARK VINA RESULT:      -6.5     12.306     14.812
REMARK  7 active torsions:
REMARK  status: ('A' for Active; 'I' for Inactive)
REMARK       I    between atoms: C_1  and  N_17 
REMARK    1  A    between atoms: C_1  and  C_2 
REMARK       I    between atoms: N_3  and  C_15 
REMARK    2  A    between atoms: C_8  and  N_9 
REMARK    3  A    between atoms: C_8  and  C_10 
REMARK       I    between atoms: N_9  and  C_15 
REMARK    4  A    between atoms: C_10  and  C_11 
REMARK    5  A    between atoms: C_11  and  C_20 
REMARK    6  A    between atoms: N_17  and  C_20 
REMARK    7  A    between atoms: C_20  and  C_21 
ROOT
HETATM    1  C           1     -21.990  -4.202 -10.244  0.00  0.00     0.185 C 
ENDROOT
BRANCH   1   2
HETATM    2  C           1     -22.771  -2.924 -10.516  0.00  0.00     0.038 C 
BRANCH   2   3
HETATM    3  C           1     -24.175  -3.278 -10.991  0.00  0.00     0.023 C 
BRANCH   3   4
HETATM    4  C           1     -24.148  -3.562 -12.488  0.00  0.00     0.138 C 
BRANCH   4   5
HETATM    5  N           1     -24.339  -2.306 -13.229  0.00  0.00    -0.227 N 
HETATM    6  C           1     -23.610  -2.046 -14.231  0.00  0.00     0.665 C 
HETATM    7  N           1     -23.779  -0.936 -14.885  0.00  0.00    -0.235 N 
HETATM    8  N           1     -22.718  -2.868 -14.595  0.00  0.00    -0.235 N 
HETATM    9  H           1     -24.515  -0.258 -14.585  0.00  0.00     0.174 HD
HETATM   10  H           1     -23.177  -0.722 -15.713  0.00  0.00     0.174 HD
HETATM   11  H           1     -22.582  -3.764 -14.066  0.00  0.00     0.174 HD
HETATM   12  H           1     -22.114  -2.651 -15.427  0.00  0.00     0.174 HD
HETATM   13  H           1     -25.078  -1.626 -12.926  0.00  0.00     0.177 HD
ENDBRANCH   4   5
ENDBRANCH   3   4
ENDBRANCH   2   3
ENDBRANCH   1   2
BRANCH   1  14
HETATM   14  N           1     -21.457  -4.167  -8.896  0.00  0.00    -0.345 N 
HETATM   15  C           1     -22.272  -4.445  -7.831  0.00  0.00     0.251 C 
HETATM   16  O           1     -23.433  -4.720  -8.014  0.00  0.00    -0.271 OA
HETATM   17  H           1     -20.484  -3.936  -8.742  0.00  0.00     0.163 HD
BRANCH  15  18
HETATM   18  C           1     -21.717  -4.408  -6.428  0.00  0.00     0.311 C 
HETATM   19  N           1     -22.167  -5.566  -5.661  0.00  0.00     0.097 N 
HETATM   20  H           1     -22.030  -5.413  -4.662  0.00  0.00     0.317 HD
HETATM   21  C           1     -21.317  -6.667  -6.105  0.00  0.00     0.271 C 
HETATM   22  C           1     -19.942  -6.035  -6.234  0.00  0.00     0.033 C 
HETATM   23  C           1     -20.204  -4.549  -6.441  0.00  0.00     0.047 C 
ENDBRANCH  15  18
ENDBRANCH   1  14
BRANCH   1  24
HETATM   24  C           1     -20.854  -4.316 -11.230  0.00  0.00     0.196 C 
HETATM   25  O           1     -19.780  -4.857 -10.888  0.00  0.00    -0.646 OA
HETATM   26  O           1     -20.986  -3.869 -12.391  0.00  0.00    -0.646 OA
ENDBRANCH   1  24
TORSDOF 7
ENDMDL
MODEL 5
REMARK VINA RESULT:      -6.4     12.756     15.513
REMARK  7 active torsions:
REMARK  status: ('A' for Active; 'I' for Inactive)
REMARK       I    between atoms: C_1  and  N_17 
REMARK    1  A    between atoms: C_1  and  C_2 
REMARK       I    between atoms: N_3  and  C_15 
REMARK    2  A    between atoms: C_8  and  N_9 
REMARK    3  A    between atoms: C_8  and  C_10 
REMARK       I    between atoms: N_9  and  C_15 
REMARK    4  A    between atoms: C_10  and  C_11 
REMARK    5  A    between atoms: C_11  and  C_20 
REMARK    6  A    between atoms: N_17  and  C_20 
REMARK    7  A    between atoms: C_20  and  C_21 
ROOT
HETATM    1  C           1     -21.767  -4.767  -8.700  0.00  0.00     0.185 C 
ENDROOT
BRANCH   1   2
HETATM    2  C           1     -22.896  -3.796  -9.016  0.00  0.00     0.038 C 
BRANCH   2   3
HETATM    3  C           1     -23.965  -4.509  -9.833  0.00  0.00     0.023 C 
BRANCH   3   4
HETATM    4  C           1     -23.537  -4.562 -11.294  0.00  0.00     0.138 C 
BRANCH   4   5
HETATM    5  N           1     -24.066  -3.389 -12.003  0.00  0.00    -0.227 N 
HETATM    6  C           1     -23.405  -2.871 -12.951  0.00  0.00     0.665 C 
HETATM    7  N           1     -23.873  -1.833 -13.577  0.00  0.00    -0.235 N 
HETATM    8  N           1     -22.289  -3.364 -13.287  0.00  0.00    -0.235 N 
HETATM    9  H           1     -24.794  -1.425 -13.300  0.00  0.00     0.174 HD
HETATM   10  H           1     -23.326  -1.405 -14.360  0.00  0.00     0.174 HD
HETATM   11  H           1     -21.911  -4.203 -12.781  0.00  0.00     0.174 HD
HETATM   12  H           1     -21.740  -2.934 -14.073  0.00  0.00     0.174 HD
HETATM   13  H           1     -24.992  -2.980 -11.724  0.00  0.00     0.177 HD
ENDBRANCH   4   5
ENDBRANCH   3   4
ENDBRANCH   2   3
ENDBRANCH   1   2
BRANCH   1  14
HETATM   14  N           1     -21.620  -4.889  -7.262  0.00  0.00    -0.345 N 
HETATM   15  C           1     -20.767  -5.824  -6.740  0.00  0.00     0.251 C 
HETATM   16  O           1     -20.137  -6.546  -7.475  0.00  0.00    -0.271 OA
HETATM   17  H           1     -22.148  -4.285  -6.647  0.00  0.00     0.163 HD
BRANCH  15  18
HETATM   18  C           1     -20.615  -5.952  -5.244  0.00  0.00     0.311 C 
HETATM   19  N           1     -21.909  -5.826  -4.578  0.00  0.00     0.097 N 
HETATM   20  H           1     -21.786  -5.639  -3.583  0.00  0.00     0.317 HD
HETATM   21  C           1     -22.553  -7.124  -4.753  0.00  0.00     0.271 C 
HETATM   22  C           1     -21.424  -8.120  -4.548  0.00  0.00     0.033 C 
HETATM   23  C           1     -20.150  -7.348  -4.865  0.00  0.00     0.047 C 
ENDBRANCH  15  18
ENDBRANCH   1  14
BRANCH   1  24
HETATM   24  C           1     -20.479  -4.250  -9.294  0.00  0.00     0.196 C 
HETATM   25  O           1     -20.130  -4.612 -10.438  0.00  0.00    -0.646 OA
HETATM   26  O           1     -19.762  -3.461  -8.640  0.00  0.00    -0.646 OA
ENDBRANCH   1  24
TORSDOF 7
ENDMDL
MODEL 6
REMARK VINA RESULT:      -6.2     12.854     14.418
REMARK  7 active torsions:
REMARK  status: ('A' for Active; 'I' for Inactive)
REMARK       I    between atoms: C_1  and  N_17 
REMARK    1  A    between atoms: C_1  and  C_2 
REMARK       I    between atoms: N_3  and  C_15 
REMARK    2  A    between atoms: C_8  and  N_9 
REMARK    3  A    between atoms: C_8  and  C_10 
REMARK       I    between atoms: N_9  and  C_15 
REMARK    4  A    between atoms: C_10  and  C_11 
REMARK    5  A    between atoms: C_11  and  C_20 
REMARK    6  A    between atoms: N_17  and  C_20 
REMARK    7  A    between atoms: C_20  and  C_21 
ROOT
HETATM    1  C           1     -21.312  -4.788  -7.723  0.00  0.00     0.185 C 
ENDROOT
BRANCH   1   2
HETATM    2  C           1     -21.218  -6.074  -6.913  0.00  0.00     0.038 C 
BRANCH   2   3
HETATM    3  C           1     -22.064  -5.943  -5.653  0.00  0.00     0.023 C 
BRANCH   3   4
HETATM    4  C           1     -21.217  -6.286  -4.434  0.00  0.00     0.138 C 
BRANCH   4   5
HETATM    5  N           1     -22.030  -6.148  -3.217  0.00  0.00    -0.227 N 
HETATM    6  C           1     -21.710  -6.779  -2.167  0.00  0.00     0.665 C 
HETATM    7  N           1     -22.429  -6.658  -1.091  0.00  0.00    -0.235 N 
HETATM    8  N           1     -20.690  -7.529  -2.165  0.00  0.00    -0.235 N 
HETATM    9  H           1     -23.271  -6.039  -1.092  0.00  0.00     0.174 HD
HETATM   10  H           1     -22.164  -7.179  -0.224  0.00  0.00     0.174 HD
HETATM   11  H           1     -20.109  -7.628  -3.035  0.00  0.00     0.174 HD
HETATM   12  H           1     -20.424  -8.052  -1.294  0.00  0.00     0.174 HD
HETATM   13  H           1     -22.876  -5.527  -3.219  0.00  0.00     0.177 HD
ENDBRANCH   4   5
ENDBRANCH   3   4
ENDBRANCH   2   3
ENDBRANCH   1   2
BRANCH   1  14
HETATM   14  N           1     -22.041  -5.040  -8.950  0.00  0.00    -0.345 N 
HETATM   15  C           1     -23.254  -4.440  -9.159  0.00  0.00     0.251 C 
HETATM   16  O           1     -23.715  -3.701  -8.323  0.00  0.00    -0.271 OA
HETATM   17  H           1     -21.655  -5.658  -9.650  0.00  0.00     0.163 HD
BRANCH  15  18
HETATM   18  C           1     -24.014  -4.702 -10.437  0.00  0.00     0.311 C 
HETATM   19  N           1     -24.650  -3.481 -10.922  0.00  0.00     0.097 N 
HETATM   20  H           1     -25.371  -3.698 -11.610  0.00  0.00     0.317 HD
HETATM   21  C           1     -23.578  -2.725 -11.564  0.00  0.00     0.271 C 
HETATM   22  C           1     -22.775  -3.786 -12.298  0.00  0.00     0.033 C 
HETATM   23  C           1     -23.066  -5.087 -11.560  0.00  0.00     0.047 C 
ENDBRANCH  15  18
ENDBRANCH   1  14
BRANCH   1  24
HETATM   24  C           1     -19.922  -4.302  -8.055  0.00  0.00     0.196 C 
HETATM   25  O           1     -18.978  -4.521  -7.266  0.00  0.00    -0.646 OA
HETATM   26  O           1     -19.716  -3.679  -9.120  0.00  0.00    -0.646 OA
ENDBRANCH   1  24
TORSDOF 7
ENDMDL
MODEL 7
REMARK VINA RESULT:      -6.1     14.319     17.547
REMARK  7 active torsions:
REMARK  status: ('A' for Active; 'I' for Inactive)
REMARK       I    between atoms: C_1  and  N_17 
REMARK    1  A    between atoms: C_1  and  C_2 
REMARK       I    between atoms: N_3  and  C_15 
REMARK    2  A    between atoms: C_8  and  N_9 
REMARK    3  A    between atoms: C_8  and  C_10 
REMARK       I    between atoms: N_9  and  C_15 
REMARK    4  A    between atoms: C_10  and  C_11 
REMARK    5  A    between atoms: C_11  and  C_20 
REMARK    6  A    between atoms: N_17  and  C_20 
REMARK    7  A    between atoms: C_20  and  C_21 
ROOT
HETATM    1  C           1     -20.534  -6.786  -5.400  0.00  0.00     0.185 C 
ENDROOT
BRANCH   1   2
HETATM    2  C           1     -20.345  -6.092  -6.741  0.00  0.00     0.038 C 
BRANCH   2   3
HETATM    3  C           1     -19.952  -4.638  -6.510  0.00  0.00     0.023 C 
BRANCH   3   4
HETATM    4  C           1     -20.594  -3.762  -7.579  0.00  0.00     0.138 C 
BRANCH   4   5
HETATM    5  N           1     -22.055  -3.781  -7.416  0.00  0.00    -0.227 N 
HETATM    6  C           1     -22.801  -3.984  -8.419  0.00  0.00     0.665 C 
HETATM    7  N           1     -24.092  -4.000  -8.275  0.00  0.00    -0.235 N 
HETATM    8  N           1     -22.288  -4.171  -9.562  0.00  0.00    -0.235 N 
HETATM    9  H           1     -24.515  -3.846  -7.333  0.00  0.00     0.174 HD
HETATM   10  H           1     -24.707  -4.167  -9.104  0.00  0.00     0.174 HD
HETATM   11  H           1     -21.244  -4.158  -9.678  0.00  0.00     0.174 HD
HETATM   12  H           1     -22.907  -4.339 -10.394  0.00  0.00     0.174 HD
HETATM   13  H           1     -22.479  -3.626  -6.469  0.00  0.00     0.177 HD
ENDBRANCH   4   5
ENDBRANCH   3   4
ENDBRANCH   2   3
ENDBRANCH   1   2
BRANCH   1  14
HETATM   14  N           1     -20.713  -8.209  -5.610  0.00  0.00    -0.345 N 
HETATM   15  C           1     -20.136  -9.105  -4.751  0.00  0.00     0.251 C 
HETATM   16  O           1     -19.478  -8.710  -3.818  0.00  0.00    -0.271 OA
HETATM   17  H           1     -21.264  -8.539  -6.392  0.00  0.00     0.163 HD
BRANCH  15  18
HETATM   18  C           1     -20.321 -10.587  -4.971  0.00  0.00     0.311 C 
HETATM   19  N           1     -19.888 -10.971  -6.311  0.00  0.00     0.097 N 
HETATM   20  H           1     -20.255 -11.889  -6.560  0.00  0.00     0.317 HD
HETATM   21  C           1     -18.431 -11.034  -6.235  0.00  0.00     0.271 C 
HETATM   22  C           1     -18.167 -11.676  -4.884  0.00  0.00     0.033 C 
HETATM   23  C           1     -19.411 -11.387  -4.055  0.00  0.00     0.047 C 
ENDBRANCH  15  18
ENDBRANCH   1  14
BRANCH   1  24
HETATM   24  C           1     -21.753  -6.223  -4.710  0.00  0.00     0.196 C 
HETATM   25  O           1     -21.715  -5.959  -3.490  0.00  0.00    -0.646 OA
HETATM   26  O           1     -22.802  -6.021  -5.362  0.00  0.00    -0.646 OA
ENDBRANCH   1  24
TORSDOF 7
ENDMDL
MODEL 8
REMARK VINA RESULT:      -6.0     14.312     17.829
REMARK  7 active torsions:
REMARK  status: ('A' for Active; 'I' for Inactive)
REMARK       I    between atoms: C_1  and  N_17 
REMARK    1  A    between atoms: C_1  and  C_2 
REMARK       I    between atoms: N_3  and  C_15 
REMARK    2  A    between atoms: C_8  and  N_9 
REMARK    3  A    between atoms: C_8  and  C_10 
REMARK       I    between atoms: N_9  and  C_15 
REMARK    4  A    between atoms: C_10  and  C_11 
REMARK    5  A    between atoms: C_11  and  C_20 
REMARK    6  A    between atoms: N_17  and  C_20 
REMARK    7  A    between atoms: C_20  and  C_21 
ROOT
HETATM    1  C           1     -21.080  -7.360  -4.172  0.00  0.00     0.185 C 
ENDROOT
BRANCH   1   2
HETATM    2  C           1     -20.929  -7.402  -5.687  0.00  0.00     0.038 C 
BRANCH   2   3
HETATM    3  C           1     -19.830  -6.438  -6.114  0.00  0.00     0.023 C 
BRANCH   3   4
HETATM    4  C           1     -20.295  -5.642  -7.327  0.00  0.00     0.138 C 
BRANCH   4   5
HETATM    5  N           1     -21.762  -5.543  -7.316  0.00  0.00    -0.227 N 
HETATM    6  C           1     -22.320  -4.407  -7.329  0.00  0.00     0.665 C 
HETATM    7  N           1     -23.616  -4.320  -7.318  0.00  0.00    -0.235 N 
HETATM    8  N           1     -21.614  -3.356  -7.353  0.00  0.00    -0.235 N 
HETATM    9  H           1     -24.199  -5.187  -7.299  0.00  0.00     0.174 HD
HETATM   10  H           1     -24.077  -3.381  -7.330  0.00  0.00     0.174 HD
HETATM   11  H           1     -20.567  -3.426  -7.361  0.00  0.00     0.174 HD
HETATM   12  H           1     -22.078  -2.413  -7.364  0.00  0.00     0.174 HD
HETATM   13  H           1     -22.346  -6.415  -7.296  0.00  0.00     0.177 HD
ENDBRANCH   4   5
ENDBRANCH   3   4
ENDBRANCH   2   3
ENDBRANCH   1   2
BRANCH   1  14
HETATM   14  N           1     -21.409  -8.684  -3.681  0.00  0.00    -0.345 N 
HETATM   15  C           1     -20.689  -9.230  -2.652  0.00  0.00     0.251 C 
HETATM   16  O           1     -19.781  -8.609  -2.153  0.00  0.00    -0.271 OA
HETATM   17  H           1     -22.169  -9.204  -4.098  0.00  0.00     0.163 HD
BRANCH  15  18
HETATM   18  C           1     -21.031 -10.608  -2.141  0.00  0.00     0.311 C 
HETATM   19  N           1     -20.817 -10.695  -0.699  0.00  0.00     0.097 N 
HETATM   20  H           1     -20.780 -11.668  -0.397  0.00  0.00     0.317 HD
HETATM   21  C           1     -21.981 -10.045  -0.104  0.00  0.00     0.271 C 
HETATM   22  C           1     -23.139 -10.517  -0.965  0.00  0.00     0.033 C 
HETATM   23  C           1     -22.514 -10.892  -2.303  0.00  0.00     0.047 C 
ENDBRANCH  15  18
ENDBRANCH   1  14
BRANCH   1  24
HETATM   24  C           1     -22.183  -6.399  -3.803  0.00  0.00     0.196 C 
HETATM   25  O           1     -22.220  -5.900  -2.658  0.00  0.00    -0.646 OA
HETATM   26  O           1     -23.060  -6.102  -4.643  0.00  0.00    -0.646 OA
ENDBRANCH   1  24
TORSDOF 7
ENDMDL
MODEL 9
REMARK VINA RESULT:      -6.0     13.417     16.308
REMARK  7 active torsions:
REMARK  status: ('A' for Active; 'I' for Inactive)
REMARK       I    between atoms: C_1  and  N_17 
REMARK    1  A    between atoms: C_1  and  C_2 
REMARK       I    between atoms: N_3  and  C_15 
REMARK    2  A    between atoms: C_8  and  N_9 
REMARK    3  A    between atoms: C_8  and  C_10 
REMARK       I    between atoms: N_9  and  C_15 
REMARK    4  A    between atoms: C_10  and  C_11 
REMARK    5  A    between atoms: C_11  and  C_20 
REMARK    6  A    between atoms: N_17  and  C_20 
REMARK    7  A    between atoms: C_20  and  C_21 
ROOT
HETATM    1  C           1     -20.608  -5.066  -7.609  0.00  0.00     0.185 C 
ENDROOT
BRANCH   1   2
HETATM    2  C           1     -20.081  -5.301  -9.018  0.00  0.00     0.038 C 
BRANCH   2   3
HETATM    3  C           1     -20.053  -3.980  -9.777  0.00  0.00     0.023 C 
BRANCH   3   4
HETATM    4  C           1     -20.413  -4.224 -11.237  0.00  0.00     0.138 C 
BRANCH   4   5
HETATM    5  N           1     -21.274  -3.134 -11.718  0.00  0.00    -0.227 N 
HETATM    6  C           1     -22.528  -3.299 -11.783  0.00  0.00     0.665 C 
HETATM    7  N           1     -23.288  -2.335 -12.209  0.00  0.00    -0.235 N 
HETATM    8  N           1     -23.040  -4.402 -11.432  0.00  0.00    -0.235 N 
HETATM    9  H           1     -22.866  -1.424 -12.498  0.00  0.00     0.174 HD
HETATM   10  H           1     -24.324  -2.472 -12.262  0.00  0.00     0.174 HD
HETATM   11  H           1     -22.425  -5.181 -11.087  0.00  0.00     0.174 HD
HETATM   12  H           1     -24.080  -4.539 -11.485  0.00  0.00     0.174 HD
HETATM   13  H           1     -20.849  -2.220 -12.009  0.00  0.00     0.177 HD
ENDBRANCH   4   5
ENDBRANCH   3   4
ENDBRANCH   2   3
ENDBRANCH   1   2
BRANCH   1  14
HETATM   14  N           1     -21.042  -6.325  -7.037  0.00  0.00    -0.345 N 
HETATM   15  C           1     -21.073  -6.484  -5.677  0.00  0.00     0.251 C 
HETATM   16  O           1     -20.739  -5.574  -4.955  0.00  0.00    -0.271 OA
HETATM   17  H           1     -21.321  -7.086  -7.642  0.00  0.00     0.163 HD
BRANCH  15  18
HETATM   18  C           1     -21.523  -7.795  -5.081  0.00  0.00     0.311 C 
HETATM   19  N           1     -20.803  -8.913  -5.683  0.00  0.00     0.097 N 
HETATM   20  H           1     -21.280  -9.794  -5.494  0.00  0.00     0.317 HD
HETATM   21  C           1     -19.496  -8.917  -5.030  0.00  0.00     0.271 C 
HETATM   22  C           1     -19.817  -8.609  -3.577  0.00  0.00     0.033 C 
HETATM   23  C           1     -21.152  -7.876  -3.610  0.00  0.00     0.047 C 
ENDBRANCH  15  18
ENDBRANCH   1  14
BRANCH   1  24
HETATM   24  C           1     -21.775  -4.110  -7.662  0.00  0.00     0.196 C 
HETATM   25  O           1     -21.694  -2.993  -7.107  0.00  0.00    -0.646 OA
HETATM   26  O           1     -22.823  -4.436  -8.261  0.00  0.00    -0.646 OA
ENDBRANCH   1  24
TORSDOF 7
ENDMDL
