MODEL 1
REMARK VINA RESULT:      -6.6      0.000      0.000
REMARK  9 active torsions:
REMARK  status: ('A' for Active; 'I' for Inactive)
REMARK    1  A    between atoms: C_1  and  C_4 
REMARK       I    between atoms: N_2  and  C_16 
REMARK    2  A    between atoms: C_3  and  C_16 
REMARK    3  A    between atoms: C_3  and  C_4 
REMARK    4  A    between atoms: C_4  and  N_23 
REMARK    5  A    between atoms: N_5  and  C_17 
REMARK    6  A    between atoms: C_12  and  C_17 
REMARK    7  A    between atoms: C_12  and  C_22 
REMARK       I    between atoms: C_14  and  N_23 
REMARK    8  A    between atoms: C_14  and  C_17 
REMARK    9  A    between atoms: C_21  and  C_22 
ROOT
HETATM    1  O           1     -21.263  -3.661  -8.383  0.00  0.00    -0.271 OA
HETATM    2  H           1     -24.281  -4.516  -8.451  0.00  0.00     0.163 HD
HETATM    3  C           1     -22.307  -4.115  -7.977  0.00  0.00     0.249 C 
HETATM    4  N           1     -23.407  -4.135  -8.791  0.00  0.00    -0.344 N 
ENDROOT
BRANCH   3   5
HETATM    5  C           1     -22.395  -4.662  -6.574  0.00  0.00     0.275 C 
BRANCH   5   6
HETATM    6  N           1     -23.805  -5.096  -6.295  0.00  0.00    -0.066 N 
HETATM    7  H           1     -23.945  -5.181  -5.264  0.00  0.00     0.275 HD
HETATM    8  H           1     -24.469  -4.387  -6.680  0.00  0.00     0.275 HD
HETATM    9  H           1     -23.979  -6.022  -6.748  0.00  0.00     0.275 HD
ENDBRANCH   5   6
BRANCH   5  10
HETATM   10  C           1     -21.461  -5.856  -6.433  0.00  0.00     0.053 C 
BRANCH  10  11
HETATM   11  C           1     -20.652  -5.718  -5.149  0.00  0.00     0.115 C 
BRANCH  11  12
HETATM   12  C           1     -21.307  -6.521  -4.052  0.00  0.00     0.172 C 
HETATM   13  O           1     -22.353  -6.102  -3.511  0.00  0.00    -0.648 OA
HETATM   14  O           1     -20.805  -7.605  -3.685  0.00  0.00    -0.648 OA
ENDBRANCH  11  12
ENDBRANCH  10  11
ENDBRANCH   5  10
ENDBRANCH   3   5
BRANCH   4  15
HETATM   15  C           1     -23.322  -3.609 -10.139  0.00  0.00     0.194 C 
BRANCH  15  16
HETATM   16  C           1     -24.704  -3.254 -10.629  0.00  0.00     0.197 C 
HETATM   17  O           1     -24.908  -3.076 -11.849  0.00  0.00    -0.646 OA
HETATM   18  O           1     -25.645  -3.139  -9.814  0.00  0.00    -0.646 OA
ENDBRANCH  15  16
BRANCH  15  19
HETATM   19  C           1     -22.712  -4.661 -11.056  0.00  0.00     0.138 C 
BRANCH  19  20
HETATM   20  C           1     -21.628  -4.031 -11.896  0.00  0.00     0.217 C 
HETATM   21  N           1     -21.941  -3.463 -13.102  0.00  0.00    -0.370 N 
HETATM   22  H           1     -22.898  -3.466 -13.430  0.00  0.00     0.159 HD
HETATM   23  H           1     -21.214  -3.040 -13.665  0.00  0.00     0.159 HD
HETATM   24  O           1     -20.486  -4.028 -11.505  0.00  0.00    -0.274 OA
ENDBRANCH  19  20
ENDBRANCH  15  19
ENDBRANCH   4  15
TORSDOF 9
ENDMDL
MODEL 2
REMARK VINA RESULT:      -6.6     12.262     13.928
REMARK  9 active torsions:
REMARK  status: ('A' for Active; 'I' for Inactive)
REMARK    1  A    between atoms: C_1  and  C_4 
REMARK       I    between atoms: N_2  and  C_16 
REMARK    2  A    between atoms: C_3  and  C_16 
REMARK    3  A    between atoms: C_3  and  C_4 
REMARK    4  A    between atoms: C_4  and  N_23 
REMARK    5  A    between atoms: N_5  and  C_17 
REMARK    6  A    between atoms: C_12  and  C_17 
REMARK    7  A    between atoms: C_12  and  C_22 
REMARK       I    between atoms: C_14  and  N_23 
REMARK    8  A    between atoms: C_14  and  C_17 
REMARK    9  A    between atoms: C_21  and  C_22 
ROOT
HETATM    1  O           1     -34.634  -3.079 -13.423  0.00  0.00    -0.271 OA
HETATM    2  H           1     -34.864  -0.583 -11.536  0.00  0.00     0.163 HD
HETATM    3  C           1     -34.438  -2.390 -12.450  0.00  0.00     0.249 C 
HETATM    4  N           1     -35.028  -1.160 -12.351  0.00  0.00    -0.344 N 
ENDROOT
BRANCH   3   5
HETATM    5  C           1     -33.542  -2.889 -11.343  0.00  0.00     0.275 C 
BRANCH   5   6
HETATM    6  N           1     -33.250  -1.765 -10.392  0.00  0.00    -0.066 N 
HETATM    7  H           1     -32.889  -0.943 -10.925  0.00  0.00     0.275 HD
HETATM    8  H           1     -34.127  -1.498  -9.891  0.00  0.00     0.275 HD
HETATM    9  H           1     -32.532  -2.074  -9.699  0.00  0.00     0.275 HD
ENDBRANCH   5   6
BRANCH   5  10
HETATM   10  C           1     -34.236  -4.018 -10.595  0.00  0.00     0.053 C 
BRANCH  10  11
HETATM   11  C           1     -33.566  -5.343 -10.939  0.00  0.00     0.115 C 
BRANCH  11  12
HETATM   12  C           1     -34.617  -6.352 -11.334  0.00  0.00     0.172 C 
HETATM   13  O           1     -34.838  -7.342 -10.603  0.00  0.00    -0.648 OA
HETATM   14  O           1     -35.266  -6.197 -12.390  0.00  0.00    -0.648 OA
ENDBRANCH  11  12
ENDBRANCH  10  11
ENDBRANCH   5  10
ENDBRANCH   3   5
BRANCH   4  15
HETATM   15  C           1     -35.890  -0.681 -13.415  0.00  0.00     0.194 C 
BRANCH  15  16
HETATM   16  C           1     -35.120   0.275 -14.293  0.00  0.00     0.197 C 
HETATM   17  O           1     -34.760  -0.079 -15.437  0.00  0.00    -0.646 OA
HETATM   18  O           1     -34.842   1.420 -13.876  0.00  0.00    -0.646 OA
ENDBRANCH  15  16
BRANCH  15  19
HETATM   19  C           1     -37.089   0.037 -12.812  0.00  0.00     0.138 C 
BRANCH  19  20
HETATM   20  C           1     -37.168  -0.267 -11.335  0.00  0.00     0.217 C 
HETATM   21  N           1     -36.666   0.624 -10.426  0.00  0.00    -0.370 N 
HETATM   22  H           1     -36.242   1.486 -10.743  0.00  0.00     0.159 HD
HETATM   23  H           1     -36.718   0.421  -9.436  0.00  0.00     0.159 HD
HETATM   24  O           1     -37.674  -1.297 -10.956  0.00  0.00    -0.274 OA
ENDBRANCH  19  20
ENDBRANCH  15  19
ENDBRANCH   4  15
TORSDOF 9
ENDMDL
MODEL 3
REMARK VINA RESULT:      -6.5     11.999     13.619
REMARK  9 active torsions:
REMARK  status: ('A' for Active; 'I' for Inactive)
REMARK    1  A    between atoms: C_1  and  C_4 
REMARK       I    between atoms: N_2  and  C_16 
REMARK    2  A    between atoms: C_3  and  C_16 
REMARK    3  A    between atoms: C_3  and  C_4 
REMARK    4  A    between atoms: C_4  and  N_23 
REMARK    5  A    between atoms: N_5  and  C_17 
REMARK    6  A    between atoms: C_12  and  C_17 
REMARK    7  A    between atoms: C_12  and  C_22 
REMARK       I    between atoms: C_14  and  N_23 
REMARK    8  A    between atoms: C_14  and  C_17 
REMARK    9  A    between atoms: C_21  and  C_22 
ROOT
HETATM    1  O           1     -33.454  -2.273 -11.131  0.00  0.00    -0.271 OA
HETATM    2  H           1     -35.695  -2.035 -13.314  0.00  0.00     0.163 HD
HETATM    3  C           1     -34.203  -2.630 -12.009  0.00  0.00     0.249 C 
HETATM    4  N           1     -35.069  -1.735 -12.578  0.00  0.00    -0.344 N 
ENDROOT
BRANCH   3   5
HETATM    5  C           1     -34.182  -4.063 -12.479  0.00  0.00     0.275 C 
BRANCH   5   6
HETATM    6  N           1     -33.561  -4.133 -13.843  0.00  0.00    -0.066 N 
HETATM    7  H           1     -33.668  -3.211 -14.322  0.00  0.00     0.275 HD
HETATM    8  H           1     -32.546  -4.363 -13.752  0.00  0.00     0.275 HD
HETATM    9  H           1     -34.038  -4.875 -14.405  0.00  0.00     0.275 HD
ENDBRANCH   5   6
BRANCH   5  10
HETATM   10  C           1     -33.368  -4.906 -11.508  0.00  0.00     0.053 C 
BRANCH  10  11
HETATM   11  C           1     -34.241  -5.306 -10.326  0.00  0.00     0.115 C 
BRANCH  11  12
HETATM   12  C           1     -34.680  -6.741 -10.486  0.00  0.00     0.172 C 
HETATM   13  O           1     -35.046  -7.162 -11.605  0.00  0.00    -0.648 OA
HETATM   14  O           1     -34.678  -7.509  -9.500  0.00  0.00    -0.648 OA
ENDBRANCH  11  12
ENDBRANCH  10  11
ENDBRANCH   5  10
ENDBRANCH   3   5
BRANCH   4  15
HETATM   15  C           1     -35.088  -0.358 -12.126  0.00  0.00     0.194 C 
BRANCH  15  16
HETATM   16  C           1     -36.386  -0.083 -11.406  0.00  0.00     0.197 C 
HETATM   17  O           1     -37.440  -0.637 -11.786  0.00  0.00    -0.646 OA
HETATM   18  O           1     -36.406   0.697 -10.430  0.00  0.00    -0.646 OA
ENDBRANCH  15  16
BRANCH  15  19
HETATM   19  C           1     -34.966   0.572 -13.326  0.00  0.00     0.138 C 
BRANCH  19  20
HETATM   20  C           1     -35.721  -0.014 -14.495  0.00  0.00     0.217 C 
HETATM   21  N           1     -37.015   0.363 -14.731  0.00  0.00    -0.370 N 
HETATM   22  H           1     -37.466   1.034 -14.123  0.00  0.00     0.159 HD
HETATM   23  H           1     -37.522  -0.030 -15.515  0.00  0.00     0.159 HD
HETATM   24  O           1     -35.183  -0.816 -15.221  0.00  0.00    -0.274 OA
ENDBRANCH  19  20
ENDBRANCH  15  19
ENDBRANCH   4  15
TORSDOF 9
ENDMDL
MODEL 4
REMARK VINA RESULT:      -6.4     11.063     12.758
REMARK  9 active torsions:
REMARK  status: ('A' for Active; 'I' for Inactive)
REMARK    1  A    between atoms: C_1  and  C_4 
REMARK       I    between atoms: N_2  and  C_16 
REMARK    2  A    between atoms: C_3  and  C_16 
REMARK    3  A    between atoms: C_3  and  C_4 
REMARK    4  A    between atoms: C_4  and  N_23 
REMARK    5  A    between atoms: N_5  and  C_17 
REMARK    6  A    between atoms: C_12  and  C_17 
REMARK    7  A    between atoms: C_12  and  C_22 
REMARK       I    between atoms: C_14  and  N_23 
REMARK    8  A    between atoms: C_14  and  C_17 
REMARK    9  A    between atoms: C_21  and  C_22 
ROOT
HETATM    1  O           1     -28.717  -5.336 -19.073  0.00  0.00    -0.271 OA
HETATM    2  H           1     -27.379  -8.156 -18.752  0.00  0.00     0.163 HD
HETATM    3  C           1     -28.475  -6.409 -18.574  0.00  0.00     0.249 C 
HETATM    4  N           1     -27.583  -7.257 -19.172  0.00  0.00    -0.344 N 
ENDROOT
BRANCH   3   5
HETATM    5  C           1     -29.156  -6.813 -17.290  0.00  0.00     0.275 C 
BRANCH   5   6
HETATM    6  N           1     -28.132  -7.328 -16.322  0.00  0.00    -0.066 N 
HETATM    7  H           1     -27.228  -7.485 -16.821  0.00  0.00     0.275 HD
HETATM    8  H           1     -27.992  -6.629 -15.558  0.00  0.00     0.275 HD
HETATM    9  H           1     -28.464  -8.231 -15.912  0.00  0.00     0.275 HD
ENDBRANCH   5   6
BRANCH   5  10
HETATM   10  C           1     -29.862  -5.607 -16.686  0.00  0.00     0.053 C 
BRANCH  10  11
HETATM   11  C           1     -31.347  -5.668 -17.018  0.00  0.00     0.115 C 
BRANCH  11  12
HETATM   12  C           1     -31.937  -4.280 -16.947  0.00  0.00     0.172 C 
HETATM   13  O           1     -31.330  -3.315 -17.459  0.00  0.00    -0.648 OA
HETATM   14  O           1     -33.033  -4.096 -16.375  0.00  0.00    -0.648 OA
ENDBRANCH  11  12
ENDBRANCH  10  11
ENDBRANCH   5  10
ENDBRANCH   3   5
BRANCH   4  15
HETATM   15  C           1     -26.928  -6.869 -20.406  0.00  0.00     0.194 C 
BRANCH  15  16
HETATM   16  C           1     -26.647  -8.099 -21.234  0.00  0.00     0.197 C 
HETATM   17  O           1     -27.560  -8.922 -21.460  0.00  0.00    -0.646 OA
HETATM   18  O           1     -25.500  -8.294 -21.692  0.00  0.00    -0.646 OA
ENDBRANCH  15  16
BRANCH  15  19
HETATM   19  C           1     -25.619  -6.162 -20.084  0.00  0.00     0.138 C 
BRANCH  19  20
HETATM   20  C           1     -24.985  -6.801 -18.872  0.00  0.00     0.217 C 
HETATM   21  N           1     -24.033  -7.771 -19.030  0.00  0.00    -0.370 N 
HETATM   22  H           1     -23.753  -8.060 -19.959  0.00  0.00     0.159 HD
HETATM   23  H           1     -23.608  -8.200 -18.217  0.00  0.00     0.159 HD
HETATM   24  O           1     -25.319  -6.456 -17.764  0.00  0.00    -0.274 OA
ENDBRANCH  19  20
ENDBRANCH  15  19
ENDBRANCH   4  15
TORSDOF 9
ENDMDL
MODEL 5
REMARK VINA RESULT:      -6.4      1.557      1.871
REMARK  9 active torsions:
REMARK  status: ('A' for Active; 'I' for Inactive)
REMARK    1  A    between atoms: C_1  and  C_4 
REMARK       I    between atoms: N_2  and  C_16 
REMARK    2  A    between atoms: C_3  and  C_16 
REMARK    3  A    between atoms: C_3  and  C_4 
REMARK    4  A    between atoms: C_4  and  N_23 
REMARK    5  A    between atoms: N_5  and  C_17 
REMARK    6  A    between atoms: C_12  and  C_17 
REMARK    7  A    between atoms: C_12  and  C_22 
REMARK       I    between atoms: C_14  and  N_23 
REMARK    8  A    between atoms: C_14  and  C_17 
REMARK    9  A    between atoms: C_21  and  C_22 
ROOT
HETATM    1  O           1     -21.548  -3.658  -7.251  0.00  0.00    -0.271 OA
HETATM    2  H           1     -22.431  -5.946  -9.208  0.00  0.00     0.163 HD
HETATM    3  C           1     -21.697  -4.785  -7.660  0.00  0.00     0.249 C 
HETATM    4  N           1     -22.307  -5.001  -8.866  0.00  0.00    -0.344 N 
ENDROOT
BRANCH   3   5
HETATM    5  C           1     -21.210  -5.954  -6.839  0.00  0.00     0.275 C 
BRANCH   5   6
HETATM    6  N           1     -19.775  -6.237  -7.175  0.00  0.00    -0.066 N 
HETATM    7  H           1     -19.229  -5.347  -7.144  0.00  0.00     0.275 HD
HETATM    8  H           1     -19.382  -6.912  -6.481  0.00  0.00     0.275 HD
HETATM    9  H           1     -19.717  -6.648  -8.134  0.00  0.00     0.275 HD
ENDBRANCH   5   6
BRANCH   5  10
HETATM   10  C           1     -21.328  -5.621  -5.358  0.00  0.00     0.053 C 
BRANCH  10  11
HETATM   11  C           1     -21.991  -6.782  -4.628  0.00  0.00     0.115 C 
BRANCH  11  12
HETATM   12  C           1     -21.729  -6.661  -3.146  0.00  0.00     0.172 C 
HETATM   13  O           1     -20.845  -7.363  -2.609  0.00  0.00    -0.648 OA
HETATM   14  O           1     -22.394  -5.859  -2.458  0.00  0.00    -0.648 OA
ENDBRANCH  11  12
ENDBRANCH  10  11
ENDBRANCH   5  10
ENDBRANCH   3   5
BRANCH   4  15
HETATM   15  C           1     -22.774  -3.878  -9.654  0.00  0.00     0.194 C 
BRANCH  15  16
HETATM   16  C           1     -24.283  -3.863  -9.661  0.00  0.00     0.197 C 
HETATM   17  O           1     -24.918  -4.929  -9.821  0.00  0.00    -0.646 OA
HETATM   18  O           1     -24.898  -2.786  -9.508  0.00  0.00    -0.646 OA
ENDBRANCH  15  16
BRANCH  15  19
HETATM   19  C           1     -22.260  -4.010 -11.081  0.00  0.00     0.138 C 
BRANCH  19  20
HETATM   20  C           1     -20.759  -3.848 -11.092  0.00  0.00     0.217 C 
HETATM   21  N           1     -20.204  -2.651 -11.456  0.00  0.00    -0.370 N 
HETATM   22  H           1     -20.799  -1.875 -11.716  0.00  0.00     0.159 HD
HETATM   23  H           1     -19.198  -2.541 -11.464  0.00  0.00     0.159 HD
HETATM   24  O           1     -20.049  -4.774 -10.781  0.00  0.00    -0.274 OA
ENDBRANCH  19  20
ENDBRANCH  15  19
ENDBRANCH   4  15
TORSDOF 9
ENDMDL
MODEL 6
REMARK VINA RESULT:      -6.1      1.683      2.142
REMARK  9 active torsions:
REMARK  status: ('A' for Active; 'I' for Inactive)
REMARK    1  A    between atoms: C_1  and  C_4 
REMARK       I    between atoms: N_2  and  C_16 
REMARK    2  A    between atoms: C_3  and  C_16 
REMARK    3  A    between atoms: C_3  and  C_4 
REMARK    4  A    between atoms: C_4  and  N_23 
REMARK    5  A    between atoms: N_5  and  C_17 
REMARK    6  A    between atoms: C_12  and  C_17 
REMARK    7  A    between atoms: C_12  and  C_22 
REMARK       I    between atoms: C_14  and  N_23 
REMARK    8  A    between atoms: C_14  and  C_17 
REMARK    9  A    between atoms: C_21  and  C_22 
ROOT
HETATM    1  O           1     -20.603  -3.442 -10.009  0.00  0.00    -0.271 OA
HETATM    2  H           1     -22.783  -5.460  -9.002  0.00  0.00     0.163 HD
HETATM    3  C           1     -21.070  -4.363  -9.383  0.00  0.00     0.249 C 
HETATM    4  N           1     -22.392  -4.688  -9.526  0.00  0.00    -0.344 N 
ENDROOT
BRANCH   3   5
HETATM    5  C           1     -20.196  -5.156  -8.444  0.00  0.00     0.275 C 
BRANCH   5   6
HETATM    6  N           1     -19.233  -4.232  -7.758  0.00  0.00    -0.066 N 
HETATM    7  H           1     -18.440  -4.015  -8.402  0.00  0.00     0.275 HD
HETATM    8  H           1     -19.724  -3.347  -7.500  0.00  0.00     0.275 HD
HETATM    9  H           1     -18.864  -4.693  -6.895  0.00  0.00     0.275 HD
ENDBRANCH   5   6
BRANCH   5  10
HETATM   10  C           1     -21.063  -5.848  -7.402  0.00  0.00     0.053 C 
BRANCH  10  11
HETATM   11  C           1     -20.637  -5.403  -6.009  0.00  0.00     0.115 C 
BRANCH  11  12
HETATM   12  C           1     -21.268  -6.306  -4.976  0.00  0.00     0.172 C 
HETATM   13  O           1     -21.569  -5.853  -3.851  0.00  0.00    -0.648 OA
HETATM   14  O           1     -21.488  -7.505  -5.247  0.00  0.00    -0.648 OA
ENDBRANCH  11  12
ENDBRANCH  10  11
ENDBRANCH   5  10
ENDBRANCH   3   5
BRANCH   4  15
HETATM   15  C           1     -23.233  -3.925 -10.429  0.00  0.00     0.194 C 
BRANCH  15  16
HETATM   16  C           1     -24.613  -3.789  -9.835  0.00  0.00     0.197 C 
HETATM   17  O           1     -25.078  -2.655  -9.589  0.00  0.00    -0.646 OA
HETATM   18  O           1     -25.292  -4.810  -9.589  0.00  0.00    -0.646 OA
ENDBRANCH  15  16
BRANCH  15  19
HETATM   19  C           1     -23.324  -4.646 -11.767  0.00  0.00     0.138 C 
BRANCH  19  20
HETATM   20  C           1     -23.456  -3.632 -12.877  0.00  0.00     0.217 C 
HETATM   21  N           1     -22.346  -3.227 -13.568  0.00  0.00    -0.370 N 
HETATM   22  H           1     -21.437  -3.608 -13.335  0.00  0.00     0.159 HD
HETATM   23  H           1     -22.434  -2.547 -14.313  0.00  0.00     0.159 HD
HETATM   24  O           1     -24.540  -3.178 -13.155  0.00  0.00    -0.274 OA
ENDBRANCH  19  20
ENDBRANCH  15  19
ENDBRANCH   4  15
TORSDOF 9
ENDMDL
MODEL 7
REMARK VINA RESULT:      -6.0     12.695     14.893
REMARK  9 active torsions:
REMARK  status: ('A' for Active; 'I' for Inactive)
REMARK    1  A    between atoms: C_1  and  C_4 
REMARK       I    between atoms: N_2  and  C_16 
REMARK    2  A    between atoms: C_3  and  C_16 
REMARK    3  A    between atoms: C_3  and  C_4 
REMARK    4  A    between atoms: C_4  and  N_23 
REMARK    5  A    between atoms: N_5  and  C_17 
REMARK    6  A    between atoms: C_12  and  C_17 
REMARK    7  A    between atoms: C_12  and  C_22 
REMARK       I    between atoms: C_14  and  N_23 
REMARK    8  A    between atoms: C_14  and  C_17 
REMARK    9  A    between atoms: C_21  and  C_22 
ROOT
HETATM    1  O           1     -37.030  -1.056 -13.363  0.00  0.00    -0.271 OA
HETATM    2  H           1     -33.893  -1.000 -13.408  0.00  0.00     0.163 HD
HETATM    3  C           1     -35.922  -0.703 -13.690  0.00  0.00     0.249 C 
HETATM    4  N           1     -34.821  -1.295 -13.133  0.00  0.00    -0.344 N 
ENDROOT
BRANCH   3   5
HETATM    5  C           1     -35.752   0.391 -14.715  0.00  0.00     0.275 C 
BRANCH   5   6
HETATM    6  N           1     -35.095   1.578 -14.074  0.00  0.00    -0.066 N 
HETATM    7  H           1     -35.433   2.453 -14.533  0.00  0.00     0.275 HD
HETATM    8  H           1     -35.336   1.603 -13.058  0.00  0.00     0.275 HD
HETATM    9  H           1     -34.059   1.504 -14.186  0.00  0.00     0.275 HD
ENDBRANCH   5   6
BRANCH   5  10
HETATM   10  C           1     -34.883  -0.112 -15.859  0.00  0.00     0.053 C 
BRANCH  10  11
HETATM   11  C           1     -35.568  -1.293 -16.536  0.00  0.00     0.115 C 
BRANCH  11  12
HETATM   12  C           1     -34.630  -2.476 -16.555  0.00  0.00     0.172 C 
HETATM   13  O           1     -33.766  -2.574 -17.454  0.00  0.00    -0.648 OA
HETATM   14  O           1     -34.716  -3.356 -15.673  0.00  0.00    -0.648 OA
ENDBRANCH  11  12
ENDBRANCH  10  11
ENDBRANCH   5  10
ENDBRANCH   3   5
BRANCH   4  15
HETATM   15  C           1     -34.984  -2.347 -12.148  0.00  0.00     0.194 C 
BRANCH  15  16
HETATM   16  C           1     -34.919  -1.752 -10.763  0.00  0.00     0.197 C 
HETATM   17  O           1     -35.963  -1.343 -10.209  0.00  0.00    -0.646 OA
HETATM   18  O           1     -33.822  -1.669 -10.169  0.00  0.00    -0.646 OA
ENDBRANCH  15  16
BRANCH  15  19
HETATM   19  C           1     -33.872  -3.374 -12.313  0.00  0.00     0.138 C 
BRANCH  19  20
HETATM   20  C           1     -34.430  -4.760 -12.102  0.00  0.00     0.217 C 
HETATM   21  N           1     -34.848  -5.500 -13.175  0.00  0.00    -0.370 N 
HETATM   22  H           1     -34.782  -5.118 -14.110  0.00  0.00     0.159 HD
HETATM   23  H           1     -35.222  -6.430 -13.033  0.00  0.00     0.159 HD
HETATM   24  O           1     -34.508  -5.216 -10.986  0.00  0.00    -0.274 OA
ENDBRANCH  19  20
ENDBRANCH  15  19
ENDBRANCH   4  15
TORSDOF 9
ENDMDL
MODEL 8
REMARK VINA RESULT:      -6.0      2.147      6.756
REMARK  9 active torsions:
REMARK  status: ('A' for Active; 'I' for Inactive)
REMARK    1  A    between atoms: C_1  and  C_4 
REMARK       I    between atoms: N_2  and  C_16 
REMARK    2  A    between atoms: C_3  and  C_16 
REMARK    3  A    between atoms: C_3  and  C_4 
REMARK    4  A    between atoms: C_4  and  N_23 
REMARK    5  A    between atoms: N_5  and  C_17 
REMARK    6  A    between atoms: C_12  and  C_17 
REMARK    7  A    between atoms: C_12  and  C_22 
REMARK       I    between atoms: C_14  and  N_23 
REMARK    8  A    between atoms: C_14  and  C_17 
REMARK    9  A    between atoms: C_21  and  C_22 
ROOT
HETATM    1  O           1     -21.414  -3.348  -8.704  0.00  0.00    -0.271 OA
HETATM    2  H           1     -22.645  -5.598  -6.898  0.00  0.00     0.163 HD
HETATM    3  C           1     -22.210  -4.182  -8.342  0.00  0.00     0.249 C 
HETATM    4  N           1     -21.978  -4.901  -7.201  0.00  0.00    -0.344 N 
ENDROOT
BRANCH   3   5
HETATM    5  C           1     -23.461  -4.428  -9.148  0.00  0.00     0.275 C 
BRANCH   5   6
HETATM    6  N           1     -24.461  -3.347  -8.862  0.00  0.00    -0.066 N 
HETATM    7  H           1     -24.226  -2.497  -9.422  0.00  0.00     0.275 HD
HETATM    8  H           1     -25.417  -3.680  -9.119  0.00  0.00     0.275 HD
HETATM    9  H           1     -24.435  -3.110  -7.844  0.00  0.00     0.275 HD
ENDBRANCH   5   6
BRANCH   5  10
HETATM   10  C           1     -23.120  -4.423 -10.632  0.00  0.00     0.053 C 
BRANCH  10  11
HETATM   11  C           1     -23.910  -3.324 -11.331  0.00  0.00     0.115 C 
BRANCH  11  12
HETATM   12  C           1     -23.602  -3.344 -12.809  0.00  0.00     0.172 C 
HETATM   13  O           1     -24.488  -3.671 -13.627  0.00  0.00    -0.648 OA
HETATM   14  O           1     -22.461  -3.035 -13.213  0.00  0.00    -0.648 OA
ENDBRANCH  11  12
ENDBRANCH  10  11
ENDBRANCH   5  10
ENDBRANCH   3   5
BRANCH   4  15
HETATM   15  C           1     -20.775  -4.664  -6.426  0.00  0.00     0.194 C 
BRANCH  15  16
HETATM   16  C           1     -19.589  -5.260  -7.144  0.00  0.00     0.197 C 
HETATM   17  O           1     -18.600  -4.546  -7.416  0.00  0.00    -0.646 OA
HETATM   18  O           1     -19.597  -6.468  -7.467  0.00  0.00    -0.646 OA
ENDBRANCH  15  16
BRANCH  15  19
HETATM   19  C           1     -20.919  -5.313  -5.056  0.00  0.00     0.138 C 
BRANCH  19  20
HETATM   20  C           1     -21.952  -6.410  -5.124  0.00  0.00     0.217 C 
HETATM   21  N           1     -21.565  -7.701  -5.365  0.00  0.00    -0.370 N 
HETATM   22  H           1     -20.585  -7.919  -5.497  0.00  0.00     0.159 HD
HETATM   23  H           1     -22.258  -8.437  -5.411  0.00  0.00     0.159 HD
HETATM   24  O           1     -23.121  -6.150  -4.967  0.00  0.00    -0.274 OA
ENDBRANCH  19  20
ENDBRANCH  15  19
ENDBRANCH   4  15
TORSDOF 9
ENDMDL
MODEL 9
REMARK VINA RESULT:      -5.9     12.304     14.079
REMARK  9 active torsions:
REMARK  status: ('A' for Active; 'I' for Inactive)
REMARK    1  A    between atoms: C_1  and  C_4 
REMARK       I    between atoms: N_2  and  C_16 
REMARK    2  A    between atoms: C_3  and  C_16 
REMARK    3  A    between atoms: C_3  and  C_4 
REMARK    4  A    between atoms: C_4  and  N_23 
REMARK    5  A    between atoms: N_5  and  C_17 
REMARK    6  A    between atoms: C_12  and  C_17 
REMARK    7  A    between atoms: C_12  and  C_22 
REMARK       I    between atoms: C_14  and  N_23 
REMARK    8  A    between atoms: C_14  and  C_17 
REMARK    9  A    between atoms: C_21  and  C_22 
ROOT
HETATM    1  O           1     -33.610  -1.461 -10.556  0.00  0.00    -0.271 OA
HETATM    2  H           1     -36.106  -2.553 -12.110  0.00  0.00     0.163 HD
HETATM    3  C           1     -34.349  -2.277 -11.053  0.00  0.00     0.249 C 
HETATM    4  N           1     -35.488  -1.869 -11.693  0.00  0.00    -0.344 N 
ENDROOT
BRANCH   3   5
HETATM    5  C           1     -34.015  -3.745 -10.969  0.00  0.00     0.275 C 
BRANCH   5   6
HETATM    6  N           1     -35.284  -4.544 -10.910  0.00  0.00    -0.066 N 
HETATM    7  H           1     -35.994  -4.028 -10.344  0.00  0.00     0.275 HD
HETATM    8  H           1     -35.649  -4.689 -11.878  0.00  0.00     0.275 HD
HETATM    9  H           1     -35.091  -5.470 -10.467  0.00  0.00     0.275 HD
ENDBRANCH   5   6
BRANCH   5  10
HETATM   10  C           1     -33.214  -4.157 -12.196  0.00  0.00     0.053 C 
BRANCH  10  11
HETATM   11  C           1     -34.154  -4.733 -13.248  0.00  0.00     0.115 C 
BRANCH  11  12
HETATM   12  C           1     -34.105  -3.878 -14.490  0.00  0.00     0.172 C 
HETATM   13  O           1     -33.438  -4.250 -15.480  0.00  0.00    -0.648 OA
HETATM   14  O           1     -34.732  -2.797 -14.530  0.00  0.00    -0.648 OA
ENDBRANCH  11  12
ENDBRANCH  10  11
ENDBRANCH   5  10
ENDBRANCH   3   5
BRANCH   4  15
HETATM   15  C           1     -35.809  -0.457 -11.774  0.00  0.00     0.194 C 
BRANCH  15  16
HETATM   16  C           1     -36.911  -0.136 -10.794  0.00  0.00     0.197 C 
HETATM   17  O           1     -36.724   0.721  -9.903  0.00  0.00    -0.646 OA
HETATM   18  O           1     -38.009  -0.726 -10.874  0.00  0.00    -0.646 OA
ENDBRANCH  15  16
BRANCH  15  19
HETATM   19  C           1     -36.270  -0.122 -13.186  0.00  0.00     0.138 C 
BRANCH  19  20
HETATM   20  C           1     -35.131   0.505 -13.952  0.00  0.00     0.217 C 
HETATM   21  N           1     -34.833   0.067 -15.214  0.00  0.00    -0.370 N 
HETATM   22  H           1     -35.376  -0.677 -15.633  0.00  0.00     0.159 HD
HETATM   23  H           1     -34.069   0.488 -15.729  0.00  0.00     0.159 HD
HETATM   24  O           1     -34.483   1.394 -13.452  0.00  0.00    -0.274 OA
ENDBRANCH  19  20
ENDBRANCH  15  19
ENDBRANCH   4  15
TORSDOF 9
ENDMDL
