MODEL 1
REMARK VINA RESULT:      -6.7      0.000      0.000
REMARK  8 active torsions:
REMARK  status: ('A' for Active; 'I' for Inactive)
REMARK    1  A    between atoms: C_2  and  S_23 
REMARK    2  A    between atoms: C_2  and  C_12 
REMARK    3  A    between atoms: C_3  and  C_12 
REMARK    4  A    between atoms: N_4  and  C_12 
REMARK       I    between atoms: N_4  and  C_5 
REMARK    5  A    between atoms: C_5  and  C_11 
REMARK    6  A    between atoms: C_11  and  C_22 
REMARK    7  A    between atoms: C_11  and  N_16 
REMARK    8  A    between atoms: C_21  and  C_22 
ROOT
HETATM    1  C           1     -21.101  -5.721  -6.863  0.00  0.00     0.278 C 
ENDROOT
BRANCH   1   2
HETATM    2  C           1     -21.658  -4.609  -7.716  0.00  0.00     0.249 C 
HETATM    3  N           1     -22.163  -4.887  -8.958  0.00  0.00    -0.344 N 
HETATM    4  H           1     -22.164  -5.838  -9.303  0.00  0.00     0.163 HD
HETATM    5  O           1     -21.658  -3.473  -7.305  0.00  0.00    -0.271 OA
BRANCH   3   6
HETATM    6  C           1     -22.699  -3.817  -9.779  0.00  0.00     0.194 C 
BRANCH   6   7
HETATM    7  C           1     -22.232  -3.998 -11.217  0.00  0.00     0.106 C 
BRANCH   7   8
HETATM    8  S           1     -22.947  -2.691 -12.255  0.00  0.00    -0.180 SA
HETATM    9  H           1     -22.472  -3.163 -13.421  0.00  0.00     0.101 HD
ENDBRANCH   7   8
ENDBRANCH   6   7
BRANCH   6  10
HETATM   10  C           1     -24.206  -3.854  -9.731  0.00  0.00     0.197 C 
HETATM   11  O           1     -24.813  -4.918  -9.981  0.00  0.00    -0.646 OA
HETATM   12  O           1     -24.848  -2.822  -9.439  0.00  0.00    -0.646 OA
ENDBRANCH   6  10
ENDBRANCH   3   6
ENDBRANCH   1   2
BRANCH   1  13
HETATM   13  C           1     -20.870  -5.209  -5.447  0.00  0.00     0.081 C 
BRANCH  13  14
HETATM   14  C           1     -21.136  -6.309  -4.468  0.00  0.00    -0.056 A 
HETATM   15  C           1     -21.250  -7.626  -4.912  0.00  0.00     0.007 A 
HETATM   16  C           1     -21.498  -8.652  -4.000  0.00  0.00     0.001 A 
HETATM   17  C           1     -21.631  -8.360  -2.642  0.00  0.00     0.000 A 
HETATM   18  C           1     -21.517  -7.043  -2.198  0.00  0.00     0.001 A 
HETATM   19  C           1     -21.269  -6.018  -3.110  0.00  0.00     0.007 A 
ENDBRANCH  13  14
ENDBRANCH   1  13
BRANCH   1  20
HETATM   20  N           1     -19.800  -6.191  -7.442  0.00  0.00    -0.066 N 
HETATM   21  H           1     -19.963  -6.573  -8.401  0.00  0.00     0.275 HD
HETATM   22  H           1     -19.131  -5.389  -7.495  0.00  0.00     0.275 HD
HETATM   23  H           1     -19.397  -6.939  -6.833  0.00  0.00     0.275 HD
ENDBRANCH   1  20
TORSDOF 8
ENDMDL
MODEL 2
REMARK VINA RESULT:      -6.6      3.680      7.089
REMARK  8 active torsions:
REMARK  status: ('A' for Active; 'I' for Inactive)
REMARK    1  A    between atoms: C_2  and  S_23 
REMARK    2  A    between atoms: C_2  and  C_12 
REMARK    3  A    between atoms: C_3  and  C_12 
REMARK    4  A    between atoms: N_4  and  C_12 
REMARK       I    between atoms: N_4  and  C_5 
REMARK    5  A    between atoms: C_5  and  C_11 
REMARK    6  A    between atoms: C_11  and  C_22 
REMARK    7  A    between atoms: C_11  and  N_16 
REMARK    8  A    between atoms: C_21  and  C_22 
ROOT
HETATM    1  C           1     -22.271  -5.111  -6.911  0.00  0.00     0.278 C 
ENDROOT
BRANCH   1   2
HETATM    2  C           1     -21.378  -5.626  -5.809  0.00  0.00     0.249 C 
HETATM    3  N           1     -21.544  -6.898  -5.333  0.00  0.00    -0.344 N 
HETATM    4  H           1     -22.265  -7.494  -5.719  0.00  0.00     0.163 HD
HETATM    5  O           1     -20.518  -4.915  -5.347  0.00  0.00    -0.271 OA
BRANCH   3   6
HETATM    6  C           1     -20.686  -7.393  -4.272  0.00  0.00     0.194 C 
BRANCH   6   7
HETATM    7  C           1     -21.537  -7.798  -3.077  0.00  0.00     0.106 C 
BRANCH   7   8
HETATM    8  S           1     -21.988  -6.319  -2.126  0.00  0.00    -0.180 SA
HETATM    9  H           1     -22.917  -6.922  -1.362  0.00  0.00     0.101 HD
ENDBRANCH   7   8
ENDBRANCH   6   7
BRANCH   6  10
HETATM   10  C           1     -19.915  -8.591  -4.770  0.00  0.00     0.197 C 
HETATM   11  O           1     -18.816  -8.886  -4.253  0.00  0.00    -0.646 OA
HETATM   12  O           1     -20.376  -9.290  -5.698  0.00  0.00    -0.646 OA
ENDBRANCH   6  10
ENDBRANCH   3   6
ENDBRANCH   1   2
BRANCH   1  13
HETATM   13  C           1     -21.703  -3.808  -7.459  0.00  0.00     0.081 C 
BRANCH  13  14
HETATM   14  C           1     -21.649  -3.876  -8.953  0.00  0.00    -0.056 A 
HETATM   15  C           1     -22.804  -3.658  -9.703  0.00  0.00     0.007 A 
HETATM   16  C           1     -22.754  -3.720 -11.096  0.00  0.00     0.001 A 
HETATM   17  C           1     -21.547  -4.001 -11.738  0.00  0.00     0.000 A 
HETATM   18  C           1     -20.392  -4.218 -10.988  0.00  0.00     0.001 A 
HETATM   19  C           1     -20.443  -4.155  -9.595  0.00  0.00     0.007 A 
ENDBRANCH  13  14
ENDBRANCH   1  13
BRANCH   1  20
HETATM   20  N           1     -23.647  -4.865  -6.365  0.00  0.00    -0.066 N 
HETATM   21  H           1     -23.933  -3.882  -6.572  0.00  0.00     0.275 HD
HETATM   22  H           1     -24.322  -5.526  -6.812  0.00  0.00     0.275 HD
HETATM   23  H           1     -23.643  -5.018  -5.331  0.00  0.00     0.275 HD
ENDBRANCH   1  20
TORSDOF 8
ENDMDL
MODEL 3
REMARK VINA RESULT:      -6.5      3.544      6.953
REMARK  8 active torsions:
REMARK  status: ('A' for Active; 'I' for Inactive)
REMARK    1  A    between atoms: C_2  and  S_23 
REMARK    2  A    between atoms: C_2  and  C_12 
REMARK    3  A    between atoms: C_3  and  C_12 
REMARK    4  A    between atoms: N_4  and  C_12 
REMARK       I    between atoms: N_4  and  C_5 
REMARK    5  A    between atoms: C_5  and  C_11 
REMARK    6  A    between atoms: C_11  and  C_22 
REMARK    7  A    between atoms: C_11  and  N_16 
REMARK    8  A    between atoms: C_21  and  C_22 
ROOT
HETATM    1  C           1     -20.863  -4.863  -6.559  0.00  0.00     0.278 C 
ENDROOT
BRANCH   1   2
HETATM    2  C           1     -21.631  -5.766  -5.627  0.00  0.00     0.249 C 
HETATM    3  N           1     -20.960  -6.612  -4.786  0.00  0.00    -0.344 N 
HETATM    4  H           1     -19.948  -6.630  -4.788  0.00  0.00     0.163 HD
HETATM    5  O           1     -22.839  -5.745  -5.624  0.00  0.00    -0.271 OA
BRANCH   3   6
HETATM    6  C           1     -21.699  -7.481  -3.890  0.00  0.00     0.194 C 
BRANCH   6   7
HETATM    7  C           1     -21.076  -8.871  -3.902  0.00  0.00     0.106 C 
BRANCH   7   8
HETATM    8  S           1     -19.501  -8.821  -4.802  0.00  0.00    -0.180 SA
HETATM    9  H           1     -18.955  -7.831  -4.074  0.00  0.00     0.101 HD
ENDBRANCH   7   8
ENDBRANCH   6   7
BRANCH   6  10
HETATM   10  C           1     -21.648  -6.920  -2.490  0.00  0.00     0.197 C 
HETATM   11  O           1     -20.903  -7.442  -1.634  0.00  0.00    -0.646 OA
HETATM   12  O           1     -22.349  -5.930  -2.188  0.00  0.00    -0.646 OA
ENDBRANCH   6  10
ENDBRANCH   3   6
ENDBRANCH   1   2
BRANCH   1  13
HETATM   13  C           1     -20.589  -5.595  -7.866  0.00  0.00     0.081 C 
BRANCH  13  14
HETATM   14  C           1     -21.081  -4.769  -9.014  0.00  0.00    -0.056 A 
HETATM   15  C           1     -22.402  -4.324  -9.037  0.00  0.00     0.007 A 
HETATM   16  C           1     -22.861  -3.554 -10.106  0.00  0.00     0.001 A 
HETATM   17  C           1     -21.997  -3.230 -11.153  0.00  0.00     0.000 A 
HETATM   18  C           1     -20.675  -3.675 -11.129  0.00  0.00     0.001 A 
HETATM   19  C           1     -20.217  -4.444 -10.060  0.00  0.00     0.007 A 
ENDBRANCH  13  14
ENDBRANCH   1  13
BRANCH   1  20
HETATM   20  N           1     -19.561  -4.477  -5.921  0.00  0.00    -0.066 N 
HETATM   21  H           1     -19.237  -5.250  -5.297  0.00  0.00     0.275 HD
HETATM   22  H           1     -18.847  -4.304  -6.664  0.00  0.00     0.275 HD
HETATM   23  H           1     -19.694  -3.606  -5.358  0.00  0.00     0.275 HD
ENDBRANCH   1  20
TORSDOF 8
ENDMDL
MODEL 4
REMARK VINA RESULT:      -6.0      4.394      7.223
REMARK  8 active torsions:
REMARK  status: ('A' for Active; 'I' for Inactive)
REMARK    1  A    between atoms: C_2  and  S_23 
REMARK    2  A    between atoms: C_2  and  C_12 
REMARK    3  A    between atoms: C_3  and  C_12 
REMARK    4  A    between atoms: N_4  and  C_12 
REMARK       I    between atoms: N_4  and  C_5 
REMARK    5  A    between atoms: C_5  and  C_11 
REMARK    6  A    between atoms: C_11  and  C_22 
REMARK    7  A    between atoms: C_11  and  N_16 
REMARK    8  A    between atoms: C_21  and  C_22 
ROOT
HETATM    1  C           1     -21.466  -6.157  -5.864  0.00  0.00     0.278 C 
ENDROOT
BRANCH   1   2
HETATM    2  C           1     -20.372  -7.181  -5.688  0.00  0.00     0.249 C 
HETATM    3  N           1     -20.396  -8.030  -4.615  0.00  0.00    -0.344 N 
HETATM    4  H           1     -21.147  -7.972  -3.940  0.00  0.00     0.163 HD
HETATM    5  O           1     -19.474  -7.250  -6.493  0.00  0.00    -0.271 OA
BRANCH   3   6
HETATM    6  C           1     -19.343  -9.013  -4.445  0.00  0.00     0.194 C 
BRANCH   6   7
HETATM    7  C           1     -19.090  -9.237  -2.960  0.00  0.00     0.106 C 
BRANCH   7   8
HETATM    8  S           1     -20.337  -8.340  -1.992  0.00  0.00    -0.180 SA
HETATM    9  H           1     -19.593  -7.238  -1.792  0.00  0.00     0.101 HD
ENDBRANCH   7   8
ENDBRANCH   6   7
BRANCH   6  10
HETATM   10  C           1     -19.763 -10.314  -5.085  0.00  0.00     0.197 C 
HETATM   11  O           1     -19.326 -10.624  -6.214  0.00  0.00    -0.646 OA
HETATM   12  O           1     -20.547 -11.081  -4.486  0.00  0.00    -0.646 OA
ENDBRANCH   6  10
ENDBRANCH   3   6
ENDBRANCH   1   2
BRANCH   1  13
HETATM   13  C           1     -20.851  -4.810  -6.221  0.00  0.00     0.081 C 
BRANCH  13  14
HETATM   14  C           1     -21.180  -4.471  -7.641  0.00  0.00    -0.056 A 
HETATM   15  C           1     -22.493  -4.164  -7.998  0.00  0.00     0.007 A 
HETATM   16  C           1     -22.801  -3.847  -9.321  0.00  0.00     0.001 A 
HETATM   17  C           1     -21.795  -3.837 -10.288  0.00  0.00     0.000 A 
HETATM   18  C           1     -20.482  -4.143  -9.930  0.00  0.00     0.001 A 
HETATM   19  C           1     -20.175  -4.459  -8.607  0.00  0.00     0.007 A 
ENDBRANCH  13  14
ENDBRANCH   1  13
BRANCH   1  20
HETATM   20  N           1     -22.241  -6.029  -4.586  0.00  0.00    -0.066 N 
HETATM   21  H           1     -21.670  -5.506  -3.884  0.00  0.00     0.275 HD
HETATM   22  H           1     -23.131  -5.512  -4.768  0.00  0.00     0.275 HD
HETATM   23  H           1     -22.462  -6.981  -4.216  0.00  0.00     0.275 HD
ENDBRANCH   1  20
TORSDOF 8
ENDMDL
MODEL 5
REMARK VINA RESULT:      -6.0      2.586      3.764
REMARK  8 active torsions:
REMARK  status: ('A' for Active; 'I' for Inactive)
REMARK    1  A    between atoms: C_2  and  S_23 
REMARK    2  A    between atoms: C_2  and  C_12 
REMARK    3  A    between atoms: C_3  and  C_12 
REMARK    4  A    between atoms: N_4  and  C_12 
REMARK       I    between atoms: N_4  and  C_5 
REMARK    5  A    between atoms: C_5  and  C_11 
REMARK    6  A    between atoms: C_11  and  C_22 
REMARK    7  A    between atoms: C_11  and  N_16 
REMARK    8  A    between atoms: C_21  and  C_22 
ROOT
HETATM    1  C           1     -21.466  -7.998  -4.379  0.00  0.00     0.278 C 
ENDROOT
BRANCH   1   2
HETATM    2  C           1     -21.410  -6.592  -4.923  0.00  0.00     0.249 C 
HETATM    3  N           1     -21.510  -6.376  -6.271  0.00  0.00    -0.344 N 
HETATM    4  H           1     -21.623  -7.158  -6.902  0.00  0.00     0.163 HD
HETATM    5  O           1     -21.275  -5.658  -4.169  0.00  0.00    -0.271 OA
BRANCH   3   6
HETATM    6  C           1     -21.455  -5.024  -6.794  0.00  0.00     0.194 C 
BRANCH   6   7
HETATM    7  C           1     -20.525  -4.982  -7.999  0.00  0.00     0.106 C 
BRANCH   7   8
HETATM    8  S           1     -18.895  -4.371  -7.484  0.00  0.00    -0.180 SA
HETATM    9  H           1     -18.492  -3.996  -8.711  0.00  0.00     0.101 HD
ENDBRANCH   7   8
ENDBRANCH   6   7
BRANCH   6  10
HETATM   10  C           1     -22.839  -4.591  -7.212  0.00  0.00     0.197 C 
HETATM   11  O           1     -23.804  -4.746  -6.433  0.00  0.00    -0.646 OA
HETATM   12  O           1     -23.020  -4.076  -8.336  0.00  0.00    -0.646 OA
ENDBRANCH   6  10
ENDBRANCH   3   6
ENDBRANCH   1   2
BRANCH   1  13
HETATM   13  C           1     -20.626  -8.087  -3.111  0.00  0.00     0.081 C 
BRANCH  13  14
HETATM   14  C           1     -21.517  -8.354  -1.939  0.00  0.00    -0.056 A 
HETATM   15  C           1     -21.869  -7.314  -1.079  0.00  0.00     0.007 A 
HETATM   16  C           1     -22.700  -7.562   0.014  0.00  0.00     0.001 A 
HETATM   17  C           1     -23.180  -8.852   0.246  0.00  0.00     0.000 A 
HETATM   18  C           1     -22.829  -9.892  -0.615  0.00  0.00     0.001 A 
HETATM   19  C           1     -21.998  -9.643  -1.707  0.00  0.00     0.007 A 
ENDBRANCH  13  14
ENDBRANCH   1  13
BRANCH   1  20
HETATM   20  N           1     -20.927  -8.952  -5.403  0.00  0.00    -0.066 N 
HETATM   21  H           1     -20.690  -8.429  -6.276  0.00  0.00     0.275 HD
HETATM   22  H           1     -20.067  -9.415  -5.029  0.00  0.00     0.275 HD
HETATM   23  H           1     -21.647  -9.679  -5.616  0.00  0.00     0.275 HD
ENDBRANCH   1  20
TORSDOF 8
ENDMDL
MODEL 6
REMARK VINA RESULT:      -6.0      3.142      4.464
REMARK  8 active torsions:
REMARK  status: ('A' for Active; 'I' for Inactive)
REMARK    1  A    between atoms: C_2  and  S_23 
REMARK    2  A    between atoms: C_2  and  C_12 
REMARK    3  A    between atoms: C_3  and  C_12 
REMARK    4  A    between atoms: N_4  and  C_12 
REMARK       I    between atoms: N_4  and  C_5 
REMARK    5  A    between atoms: C_5  and  C_11 
REMARK    6  A    between atoms: C_11  and  C_22 
REMARK    7  A    between atoms: C_11  and  N_16 
REMARK    8  A    between atoms: C_21  and  C_22 
ROOT
HETATM    1  C           1     -21.492  -8.488  -4.045  0.00  0.00     0.278 C 
ENDROOT
BRANCH   1   2
HETATM    2  C           1     -21.095  -7.671  -5.249  0.00  0.00     0.249 C 
HETATM    3  N           1     -21.681  -6.454  -5.474  0.00  0.00    -0.344 N 
HETATM    4  H           1     -22.379  -6.103  -4.833  0.00  0.00     0.163 HD
HETATM    5  O           1     -20.260  -8.090  -6.015  0.00  0.00    -0.271 OA
BRANCH   3   6
HETATM    6  C           1     -21.299  -5.669  -6.633  0.00  0.00     0.194 C 
BRANCH   6   7
HETATM    7  C           1     -22.437  -4.729  -7.007  0.00  0.00     0.106 C 
BRANCH   7   8
HETATM    8  S           1     -22.241  -4.199  -8.733  0.00  0.00    -0.180 SA
HETATM    9  H           1     -23.555  -4.168  -9.019  0.00  0.00     0.101 HD
ENDBRANCH   7   8
ENDBRANCH   6   7
BRANCH   6  10
HETATM   10  C           1     -20.066  -4.862  -6.307  0.00  0.00     0.197 C 
HETATM   11  O           1     -19.952  -4.318  -5.188  0.00  0.00    -0.646 OA
HETATM   12  O           1     -19.158  -4.738  -7.157  0.00  0.00    -0.646 OA
ENDBRANCH   6  10
ENDBRANCH   3   6
ENDBRANCH   1   2
BRANCH   1  13
HETATM   13  C           1     -20.434  -8.343  -2.959  0.00  0.00     0.081 C 
BRANCH  13  14
HETATM   14  C           1     -21.098  -8.271  -1.620  0.00  0.00    -0.056 A 
HETATM   15  C           1     -20.825  -9.238  -0.653  0.00  0.00     0.007 A 
HETATM   16  C           1     -21.444  -9.171   0.595  0.00  0.00     0.001 A 
HETATM   17  C           1     -22.336  -8.136   0.877  0.00  0.00     0.000 A 
HETATM   18  C           1     -22.607  -7.168  -0.090  0.00  0.00     0.001 A 
HETATM   19  C           1     -21.989  -7.235  -1.337  0.00  0.00     0.007 A 
ENDBRANCH  13  14
ENDBRANCH   1  13
BRANCH   1  20
HETATM   20  N           1     -21.610  -9.931  -4.437  0.00  0.00    -0.066 N 
HETATM   21  H           1     -20.713 -10.249  -4.867  0.00  0.00     0.275 HD
HETATM   22  H           1     -21.815 -10.507  -3.589  0.00  0.00     0.275 HD
HETATM   23  H           1     -22.387 -10.042  -5.127  0.00  0.00     0.275 HD
ENDBRANCH   1  20
TORSDOF 8
ENDMDL
MODEL 7
REMARK VINA RESULT:      -5.9      5.160      7.822
REMARK  8 active torsions:
REMARK  status: ('A' for Active; 'I' for Inactive)
REMARK    1  A    between atoms: C_2  and  S_23 
REMARK    2  A    between atoms: C_2  and  C_12 
REMARK    3  A    between atoms: C_3  and  C_12 
REMARK    4  A    between atoms: N_4  and  C_12 
REMARK       I    between atoms: N_4  and  C_5 
REMARK    5  A    between atoms: C_5  and  C_11 
REMARK    6  A    between atoms: C_11  and  C_22 
REMARK    7  A    between atoms: C_11  and  N_16 
REMARK    8  A    between atoms: C_21  and  C_22 
ROOT
HETATM    1  C           1     -20.918  -7.584  -4.809  0.00  0.00     0.278 C 
ENDROOT
BRANCH   1   2
HETATM    2  C           1     -21.458  -8.400  -3.661  0.00  0.00     0.249 C 
HETATM    3  N           1     -21.372  -7.922  -2.382  0.00  0.00    -0.344 N 
HETATM    4  H           1     -20.947  -7.021  -2.206  0.00  0.00     0.163 HD
HETATM    5  O           1     -21.965  -9.476  -3.871  0.00  0.00    -0.271 OA
BRANCH   3   6
HETATM    6  C           1     -21.890  -8.707  -1.277  0.00  0.00     0.194 C 
BRANCH   6   7
HETATM    7  C           1     -20.735  -9.362  -0.532  0.00  0.00     0.106 C 
BRANCH   7   8
HETATM    8  S           1     -21.071 -11.135  -0.331  0.00  0.00    -0.180 SA
HETATM    9  H           1     -19.998 -11.394   0.437  0.00  0.00     0.101 HD
ENDBRANCH   7   8
ENDBRANCH   6   7
BRANCH   6  10
HETATM   10  C           1     -22.651  -7.807  -0.335  0.00  0.00     0.197 C 
HETATM   11  O           1     -22.646  -6.570  -0.512  0.00  0.00    -0.646 OA
HETATM   12  O           1     -23.287  -8.298   0.622  0.00  0.00    -0.646 OA
ENDBRANCH   6  10
ENDBRANCH   3   6
ENDBRANCH   1   2
BRANCH   1  13
HETATM   13  C           1     -21.565  -6.205  -4.802  0.00  0.00     0.081 C 
BRANCH  13  14
HETATM   14  C           1     -21.086  -5.422  -5.984  0.00  0.00    -0.056 A 
HETATM   15  C           1     -19.718  -5.268  -6.210  0.00  0.00     0.007 A 
HETATM   16  C           1     -19.270  -4.538  -7.312  0.00  0.00     0.001 A 
HETATM   17  C           1     -20.192  -3.963  -8.188  0.00  0.00     0.000 A 
HETATM   18  C           1     -21.559  -4.118  -7.962  0.00  0.00     0.001 A 
HETATM   19  C           1     -22.006  -4.848  -6.861  0.00  0.00     0.007 A 
ENDBRANCH  13  14
ENDBRANCH   1  13
BRANCH   1  20
HETATM   20  N           1     -21.230  -8.275  -6.104  0.00  0.00    -0.066 N 
HETATM   21  H           1     -20.351  -8.394  -6.656  0.00  0.00     0.275 HD
HETATM   22  H           1     -21.648  -9.213  -5.906  0.00  0.00     0.275 HD
HETATM   23  H           1     -21.911  -7.700  -6.650  0.00  0.00     0.275 HD
ENDBRANCH   1  20
TORSDOF 8
ENDMDL
MODEL 8
REMARK VINA RESULT:      -5.8     18.501     19.945
REMARK  8 active torsions:
REMARK  status: ('A' for Active; 'I' for Inactive)
REMARK    1  A    between atoms: C_2  and  S_23 
REMARK    2  A    between atoms: C_2  and  C_12 
REMARK    3  A    between atoms: C_3  and  C_12 
REMARK    4  A    between atoms: N_4  and  C_12 
REMARK       I    between atoms: N_4  and  C_5 
REMARK    5  A    between atoms: C_5  and  C_11 
REMARK    6  A    between atoms: C_11  and  C_22 
REMARK    7  A    between atoms: C_11  and  N_16 
REMARK    8  A    between atoms: C_21  and  C_22 
ROOT
HETATM    1  C           1     -14.931   8.925   5.494  0.00  0.00     0.278 C 
ENDROOT
BRANCH   1   2
HETATM    2  C           1     -16.358   9.161   5.926  0.00  0.00     0.249 C 
HETATM    3  N           1     -17.338   9.326   4.986  0.00  0.00    -0.344 N 
HETATM    4  H           1     -17.108   9.289   4.002  0.00  0.00     0.163 HD
HETATM    5  O           1     -16.634   9.206   7.101  0.00  0.00    -0.271 OA
BRANCH   3   6
HETATM    6  C           1     -18.710   9.554   5.401  0.00  0.00     0.194 C 
BRANCH   6   7
HETATM    7  C           1     -19.009  11.047   5.372  0.00  0.00     0.106 C 
BRANCH   7   8
HETATM    8  S           1     -19.491  11.599   7.033  0.00  0.00    -0.180 SA
HETATM    9  H           1     -20.148  10.475   7.369  0.00  0.00     0.101 HD
ENDBRANCH   7   8
ENDBRANCH   6   7
BRANCH   6  10
HETATM   10  C           1     -19.645   8.836   4.459  0.00  0.00     0.197 C 
HETATM   11  O           1     -20.766   8.456   4.860  0.00  0.00    -0.646 OA
HETATM   12  O           1     -19.299   8.623   3.277  0.00  0.00    -0.646 OA
ENDBRANCH   6  10
ENDBRANCH   3   6
ENDBRANCH   1   2
BRANCH   1  13
HETATM   13  C           1     -14.897   7.847   4.419  0.00  0.00     0.081 C 
BRANCH  13  14
HETATM   14  C           1     -14.368   8.427   3.145  0.00  0.00    -0.056 A 
HETATM   15  C           1     -14.873   7.995   1.919  0.00  0.00     0.007 A 
HETATM   16  C           1     -14.381   8.537   0.731  0.00  0.00     0.001 A 
HETATM   17  C           1     -13.383   9.511   0.770  0.00  0.00     0.000 A 
HETATM   18  C           1     -12.879   9.944   1.996  0.00  0.00     0.001 A 
HETATM   19  C           1     -13.371   9.402   3.183  0.00  0.00     0.007 A 
ENDBRANCH  13  14
ENDBRANCH   1  13
BRANCH   1  20
HETATM   20  N           1     -14.119   8.480   6.674  0.00  0.00    -0.066 N 
HETATM   21  H           1     -13.132   8.313   6.375  0.00  0.00     0.275 HD
HETATM   22  H           1     -14.141   9.220   7.412  0.00  0.00     0.275 HD
HETATM   23  H           1     -14.521   7.595   7.059  0.00  0.00     0.275 HD
ENDBRANCH   1  20
TORSDOF 8
ENDMDL
MODEL 9
REMARK VINA RESULT:      -5.7      4.695      7.284
REMARK  8 active torsions:
REMARK  status: ('A' for Active; 'I' for Inactive)
REMARK    1  A    between atoms: C_2  and  S_23 
REMARK    2  A    between atoms: C_2  and  C_12 
REMARK    3  A    between atoms: C_3  and  C_12 
REMARK    4  A    between atoms: N_4  and  C_12 
REMARK       I    between atoms: N_4  and  C_5 
REMARK    5  A    between atoms: C_5  and  C_11 
REMARK    6  A    between atoms: C_11  and  C_22 
REMARK    7  A    between atoms: C_11  and  N_16 
REMARK    8  A    between atoms: C_21  and  C_22 
ROOT
HETATM    1  C           1     -21.651  -6.520  -4.752  0.00  0.00     0.278 C 
ENDROOT
BRANCH   1   2
HETATM    2  C           1     -21.063  -7.905  -4.641  0.00  0.00     0.249 C 
HETATM    3  N           1     -19.711  -8.086  -4.757  0.00  0.00    -0.344 N 
HETATM    4  H           1     -19.106  -7.291  -4.916  0.00  0.00     0.163 HD
HETATM    5  O           1     -21.786  -8.854  -4.452  0.00  0.00    -0.271 OA
BRANCH   3   6
HETATM    6  C           1     -19.146  -9.418  -4.651  0.00  0.00     0.194 C 
BRANCH   6   7
HETATM    7  C           1     -18.071  -9.600  -5.713  0.00  0.00     0.106 C 
BRANCH   7   8
HETATM    8  S           1     -17.897 -11.365  -6.103  0.00  0.00    -0.180 SA
HETATM    9  H           1     -17.858 -11.210  -7.438  0.00  0.00     0.101 HD
ENDBRANCH   7   8
ENDBRANCH   6   7
BRANCH   6  10
HETATM   10  C           1     -18.537  -9.597  -3.282  0.00  0.00     0.197 C 
HETATM   11  O           1     -19.213 -10.097  -2.358  0.00  0.00    -0.646 OA
HETATM   12  O           1     -17.355  -9.247  -3.074  0.00  0.00    -0.646 OA
ENDBRANCH   6  10
ENDBRANCH   3   6
ENDBRANCH   1   2
BRANCH   1  13
HETATM   13  C           1     -20.553  -5.529  -5.119  0.00  0.00     0.081 C 
BRANCH  13  14
HETATM   14  C           1     -20.761  -5.050  -6.521  0.00  0.00    -0.056 A 
HETATM   15  C           1     -19.666  -4.865  -7.365  0.00  0.00     0.007 A 
HETATM   16  C           1     -19.859  -4.418  -8.672  0.00  0.00     0.001 A 
HETATM   17  C           1     -21.149  -4.157  -9.136  0.00  0.00     0.000 A 
HETATM   18  C           1     -22.244  -4.343  -8.293  0.00  0.00     0.001 A 
HETATM   19  C           1     -22.050  -4.790  -6.986  0.00  0.00     0.007 A 
ENDBRANCH  13  14
ENDBRANCH   1  13
BRANCH   1  20
HETATM   20  N           1     -22.258  -6.128  -3.438  0.00  0.00    -0.066 N 
HETATM   21  H           1     -22.741  -6.953  -3.017  0.00  0.00     0.275 HD
HETATM   22  H           1     -21.506  -5.797  -2.792  0.00  0.00     0.275 HD
HETATM   23  H           1     -22.949  -5.358  -3.589  0.00  0.00     0.275 HD
ENDBRANCH   1  20
TORSDOF 8
ENDMDL
