MODEL 1
REMARK VINA RESULT:      -6.4      0.000      0.000
REMARK  5 active torsions:
REMARK  status: ('A' for Active; 'I' for Inactive)
REMARK    1  A    between atoms: C_1  and  C_6 
REMARK    2  A    between atoms: C_3  and  C_5 
REMARK    3  A    between atoms: C_3  and  C_11 
REMARK    4  A    between atoms: C_3  and  N_14 
REMARK       I    between atoms: C_5  and  N_18 
REMARK    5  A    between atoms: C_11  and  O_12 
ROOT
HETATM    1  C           1     -35.140  -1.829 -13.506  0.00  0.00     0.253 C 
HETATM    2  C           1     -33.821  -3.795 -12.592  0.00  0.00     0.188 C 
HETATM    3  C           1     -32.821  -3.640 -11.459  0.00  0.00     0.038 C 
HETATM    4  C           1     -33.510  -2.736 -10.443  0.00  0.00     0.022 C 
HETATM    5  C           1     -34.865  -2.416 -11.052  0.00  0.00     0.127 C 
HETATM    6  N           1     -34.657  -2.603 -12.485  0.00  0.00    -0.336 N 
HETATM    7  O           1     -34.882  -2.111 -14.651  0.00  0.00    -0.271 OA
ENDROOT
BRANCH   1   8
HETATM    8  C           1     -35.995  -0.624 -13.199  0.00  0.00     0.302 C 
BRANCH   8   9
HETATM    9  C           1     -36.561  -0.060 -14.495  0.00  0.00     0.153 C 
HETATM   10  C           1     -38.074   0.066 -14.376  0.00  0.00     0.042 C 
BRANCH   9  11
HETATM   11  O           1     -36.005   1.204 -14.736  0.00  0.00    -0.393 OA
HETATM   12  H           1     -35.960   1.310 -15.672  0.00  0.00     0.210 HD
ENDBRANCH   9  11
ENDBRANCH   8   9
BRANCH   8  13
HETATM   13  N           1     -35.160   0.421 -12.521  0.00  0.00    -0.064 N 
HETATM   14  H           1     -34.296   0.593 -13.081  0.00  0.00     0.275 HD
HETATM   15  H           1     -34.897   0.090 -11.565  0.00  0.00     0.275 HD
HETATM   16  H           1     -35.708   1.308 -12.443  0.00  0.00     0.275 HD
ENDBRANCH   8  13
ENDBRANCH   1   8
BRANCH   2  17
HETATM   17  C           1     -34.644  -5.047 -12.413  0.00  0.00     0.196 C 
HETATM   18  O           1     -35.377  -5.452 -13.341  0.00  0.00    -0.646 OA
HETATM   19  O           1     -34.592  -5.680 -11.337  0.00  0.00    -0.646 OA
ENDBRANCH   2  17
TORSDOF 5
ENDMDL
MODEL 2
REMARK VINA RESULT:      -6.2     11.102     11.915
REMARK  5 active torsions:
REMARK  status: ('A' for Active; 'I' for Inactive)
REMARK    1  A    between atoms: C_1  and  C_6 
REMARK    2  A    between atoms: C_3  and  C_5 
REMARK    3  A    between atoms: C_3  and  C_11 
REMARK    4  A    between atoms: C_3  and  N_14 
REMARK       I    between atoms: C_5  and  N_18 
REMARK    5  A    between atoms: C_11  and  O_12 
ROOT
HETATM    1  C           1     -23.542  -3.345 -13.192  0.00  0.00     0.253 C 
HETATM    2  C           1     -23.586  -4.385 -10.877  0.00  0.00     0.188 C 
HETATM    3  C           1     -22.328  -4.899 -10.199  0.00  0.00     0.038 C 
HETATM    4  C           1     -21.272  -3.829 -10.458  0.00  0.00     0.022 C 
HETATM    5  C           1     -21.982  -2.764 -11.276  0.00  0.00     0.127 C 
HETATM    6  N           1     -23.083  -3.484 -11.910  0.00  0.00    -0.336 N 
HETATM    7  O           1     -24.470  -4.016 -13.576  0.00  0.00    -0.271 OA
ENDROOT
BRANCH   1   8
HETATM    8  C           1     -22.891  -2.354 -14.124  0.00  0.00     0.302 C 
BRANCH   8   9
HETATM    9  C           1     -23.762  -1.110 -14.232  0.00  0.00     0.153 C 
HETATM   10  C           1     -23.643  -0.528 -15.635  0.00  0.00     0.042 C 
BRANCH   9  11
HETATM   11  O           1     -25.098  -1.452 -13.981  0.00  0.00    -0.393 OA
HETATM   12  H           1     -25.167  -2.385 -14.089  0.00  0.00     0.210 HD
ENDBRANCH   9  11
ENDBRANCH   8   9
BRANCH   8  13
HETATM   13  N           1     -22.732  -2.973 -15.480  0.00  0.00    -0.064 N 
HETATM   14  H           1     -23.555  -2.726 -16.074  0.00  0.00     0.275 HD
HETATM   15  H           1     -22.671  -4.012 -15.383  0.00  0.00     0.275 HD
HETATM   16  H           1     -21.859  -2.614 -15.927  0.00  0.00     0.275 HD
ENDBRANCH   8  13
ENDBRANCH   1   8
BRANCH   2  17
HETATM   17  C           1     -24.459  -3.644  -9.895  0.00  0.00     0.196 C 
HETATM   18  O           1     -24.139  -3.591  -8.688  0.00  0.00    -0.646 OA
HETATM   19  O           1     -25.504  -3.082 -10.289  0.00  0.00    -0.646 OA
ENDBRANCH   2  17
TORSDOF 5
ENDMDL
MODEL 3
REMARK VINA RESULT:      -6.0     12.697     15.087
REMARK  5 active torsions:
REMARK  status: ('A' for Active; 'I' for Inactive)
REMARK    1  A    between atoms: C_1  and  C_6 
REMARK    2  A    between atoms: C_3  and  C_5 
REMARK    3  A    between atoms: C_3  and  C_11 
REMARK    4  A    between atoms: C_3  and  N_14 
REMARK       I    between atoms: C_5  and  N_18 
REMARK    5  A    between atoms: C_11  and  O_12 
ROOT
HETATM    1  C           1     -21.506  -4.488  -8.202  0.00  0.00     0.253 C 
HETATM    2  C           1     -22.481  -3.558 -10.353  0.00  0.00     0.188 C 
HETATM    3  C           1     -21.633  -2.810 -11.366  0.00  0.00     0.038 C 
HETATM    4  C           1     -20.346  -3.620 -11.482  0.00  0.00     0.022 C 
HETATM    5  C           1     -20.524  -4.785 -10.524  0.00  0.00     0.127 C 
HETATM    6  N           1     -21.504  -4.296  -9.558  0.00  0.00    -0.336 N 
HETATM    7  O           1     -22.391  -4.019  -7.528  0.00  0.00    -0.271 OA
ENDROOT
BRANCH   1   8
HETATM    8  C           1     -20.403  -5.286  -7.551  0.00  0.00     0.302 C 
BRANCH   8   9
HETATM    9  C           1     -20.818  -5.668  -6.138  0.00  0.00     0.153 C 
HETATM   10  C           1     -20.201  -7.011  -5.773  0.00  0.00     0.042 C 
BRANCH   9  11
HETATM   11  O           1     -20.372  -4.690  -5.238  0.00  0.00    -0.393 OA
HETATM   12  H           1     -20.184  -3.917  -5.744  0.00  0.00     0.210 HD
ENDBRANCH   9  11
ENDBRANCH   8   9
BRANCH   8  13
HETATM   13  N           1     -19.153  -4.458  -7.499  0.00  0.00    -0.064 N 
HETATM   14  H           1     -18.341  -5.069  -7.254  0.00  0.00     0.275 HD
HETATM   15  H           1     -19.259  -3.712  -6.775  0.00  0.00     0.275 HD
HETATM   16  H           1     -18.988  -4.017  -8.432  0.00  0.00     0.275 HD
ENDBRANCH   8  13
ENDBRANCH   1   8
BRANCH   2  17
HETATM   17  C           1     -23.435  -4.502 -11.044  0.00  0.00     0.196 C 
HETATM   18  O           1     -24.005  -5.404 -10.392  0.00  0.00    -0.646 OA
HETATM   19  O           1     -23.655  -4.381 -12.268  0.00  0.00    -0.646 OA
ENDBRANCH   2  17
TORSDOF 5
ENDMDL
MODEL 4
REMARK VINA RESULT:      -6.0      2.159      5.059
REMARK  5 active torsions:
REMARK  status: ('A' for Active; 'I' for Inactive)
REMARK    1  A    between atoms: C_1  and  C_6 
REMARK    2  A    between atoms: C_3  and  C_5 
REMARK    3  A    between atoms: C_3  and  C_11 
REMARK    4  A    between atoms: C_3  and  N_14 
REMARK       I    between atoms: C_5  and  N_18 
REMARK    5  A    between atoms: C_11  and  O_12 
ROOT
HETATM    1  C           1     -34.483  -2.184 -11.686  0.00  0.00     0.253 C 
HETATM    2  C           1     -35.795  -0.089 -12.260  0.00  0.00     0.188 C 
HETATM    3  C           1     -35.470   0.758 -13.478  0.00  0.00     0.038 C 
HETATM    4  C           1     -35.234  -0.241 -14.605  0.00  0.00     0.022 C 
HETATM    5  C           1     -35.428  -1.607 -13.969  0.00  0.00     0.127 C 
HETATM    6  N           1     -35.167  -1.375 -12.552  0.00  0.00    -0.336 N 
HETATM    7  O           1     -34.348  -1.856 -10.532  0.00  0.00    -0.271 OA
ENDROOT
BRANCH   1   8
HETATM    8  C           1     -33.899  -3.488 -12.173  0.00  0.00     0.302 C 
BRANCH   8   9
HETATM    9  C           1     -34.789  -4.640 -11.730  0.00  0.00     0.153 C 
HETATM   10  C           1     -33.994  -5.579 -10.833  0.00  0.00     0.042 C 
BRANCH   9  11
HETATM   11  O           1     -35.888  -4.137 -11.020  0.00  0.00    -0.393 OA
HETATM   12  H           1     -35.549  -3.745 -10.232  0.00  0.00     0.210 HD
ENDBRANCH   9  11
ENDBRANCH   8   9
BRANCH   8  13
HETATM   13  N           1     -32.526  -3.666 -11.597  0.00  0.00    -0.064 N 
HETATM   14  H           1     -31.812  -3.372 -12.301  0.00  0.00     0.275 HD
HETATM   15  H           1     -32.380  -4.671 -11.349  0.00  0.00     0.275 HD
HETATM   16  H           1     -32.430  -3.078 -10.738  0.00  0.00     0.275 HD
ENDBRANCH   8  13
ENDBRANCH   1   8
BRANCH   2  17
HETATM   17  C           1     -37.287  -0.244 -12.096  0.00  0.00     0.196 C 
HETATM   18  O           1     -38.067   0.355 -12.869  0.00  0.00    -0.646 OA
HETATM   19  O           1     -37.743  -0.972 -11.189  0.00  0.00    -0.646 OA
ENDBRANCH   2  17
TORSDOF 5
ENDMDL
MODEL 5
REMARK VINA RESULT:      -6.0     11.951     13.779
REMARK  5 active torsions:
REMARK  status: ('A' for Active; 'I' for Inactive)
REMARK    1  A    between atoms: C_1  and  C_6 
REMARK    2  A    between atoms: C_3  and  C_5 
REMARK    3  A    between atoms: C_3  and  C_11 
REMARK    4  A    between atoms: C_3  and  N_14 
REMARK       I    between atoms: C_5  and  N_18 
REMARK    5  A    between atoms: C_11  and  O_12 
ROOT
HETATM    1  C           1     -22.344  -4.472 -10.114  0.00  0.00     0.253 C 
HETATM    2  C           1     -21.543  -5.501  -7.937  0.00  0.00     0.188 C 
HETATM    3  C           1     -20.067  -5.668  -7.619  0.00  0.00     0.038 C 
HETATM    4  C           1     -19.418  -4.357  -8.045  0.00  0.00     0.022 C 
HETATM    5  C           1     -20.555  -3.511  -8.592  0.00  0.00     0.127 C 
HETATM    6  N           1     -21.559  -4.492  -8.993  0.00  0.00    -0.336 N 
HETATM    7  O           1     -23.137  -5.361 -10.312  0.00  0.00    -0.271 OA
ENDROOT
BRANCH   1   8
HETATM    8  C           1     -22.220  -3.337 -11.102  0.00  0.00     0.302 C 
BRANCH   8   9
HETATM    9  C           1     -23.599  -2.763 -11.392  0.00  0.00     0.153 C 
HETATM   10  C           1     -24.158  -3.400 -12.657  0.00  0.00     0.042 C 
BRANCH   9  11
HETATM   11  O           1     -24.455  -3.034 -10.315  0.00  0.00    -0.393 OA
HETATM   12  H           1     -24.455  -3.969 -10.194  0.00  0.00     0.210 HD
ENDBRANCH   9  11
ENDBRANCH   8   9
BRANCH   8  13
HETATM   13  N           1     -21.613  -3.849 -12.375  0.00  0.00    -0.064 N 
HETATM   14  H           1     -21.440  -4.875 -12.289  0.00  0.00     0.275 HD
HETATM   15  H           1     -20.709  -3.355 -12.552  0.00  0.00     0.275 HD
HETATM   16  H           1     -22.269  -3.671 -13.169  0.00  0.00     0.275 HD
ENDBRANCH   8  13
ENDBRANCH   1   8
BRANCH   2  17
HETATM   17  C           1     -22.302  -5.022  -6.724  0.00  0.00     0.196 C 
HETATM   18  O           1     -23.419  -4.476  -6.860  0.00  0.00    -0.646 OA
HETATM   19  O           1     -21.815  -5.172  -5.583  0.00  0.00    -0.646 OA
ENDBRANCH   2  17
TORSDOF 5
ENDMDL
MODEL 6
REMARK VINA RESULT:      -5.9     12.486     14.840
REMARK  5 active torsions:
REMARK  status: ('A' for Active; 'I' for Inactive)
REMARK    1  A    between atoms: C_1  and  C_6 
REMARK    2  A    between atoms: C_3  and  C_5 
REMARK    3  A    between atoms: C_3  and  C_11 
REMARK    4  A    between atoms: C_3  and  N_14 
REMARK       I    between atoms: C_5  and  N_18 
REMARK    5  A    between atoms: C_11  and  O_12 
ROOT
HETATM    1  C           1     -21.033  -4.558  -8.833  0.00  0.00     0.253 C 
HETATM    2  C           1     -22.205  -4.412 -11.080  0.00  0.00     0.188 C 
HETATM    3  C           1     -23.624  -4.913 -11.283  0.00  0.00     0.038 C 
HETATM    4  C           1     -24.397  -4.421 -10.065  0.00  0.00     0.022 C 
HETATM    5  C           1     -23.378  -3.671  -9.226  0.00  0.00     0.127 C 
HETATM    6  N           1     -22.099  -4.245  -9.633  0.00  0.00    -0.336 N 
HETATM    7  O           1     -20.033  -5.030  -9.318  0.00  0.00    -0.271 OA
ENDROOT
BRANCH   1   8
HETATM    8  C           1     -21.107  -4.312  -7.346  0.00  0.00     0.302 C 
BRANCH   8   9
HETATM    9  C           1     -19.900  -4.944  -6.666  0.00  0.00     0.153 C 
HETATM   10  C           1     -19.995  -4.727  -5.162  0.00  0.00     0.042 C 
BRANCH   9  11
HETATM   11  O           1     -19.876  -6.318  -6.939  0.00  0.00    -0.393 OA
HETATM   12  H           1     -19.927  -6.764  -6.110  0.00  0.00     0.210 HD
ENDBRANCH   9  11
ENDBRANCH   8   9
BRANCH   8  13
HETATM   13  N           1     -22.364  -4.923  -6.802  0.00  0.00    -0.064 N 
HETATM   14  H           1     -23.187  -4.551  -7.327  0.00  0.00     0.275 HD
HETATM   15  H           1     -22.458  -4.682  -5.789  0.00  0.00     0.275 HD
HETATM   16  H           1     -22.322  -5.961  -6.910  0.00  0.00     0.275 HD
ENDBRANCH   8  13
ENDBRANCH   1   8
BRANCH   2  17
HETATM   17  C           1     -21.993  -3.098 -11.790  0.00  0.00     0.196 C 
HETATM   18  O           1     -20.985  -2.404 -11.534  0.00  0.00    -0.646 OA
HETATM   19  O           1     -22.825  -2.703 -12.635  0.00  0.00    -0.646 OA
ENDBRANCH   2  17
TORSDOF 5
ENDMDL
MODEL 7
REMARK VINA RESULT:      -5.6      1.696      5.227
REMARK  5 active torsions:
REMARK  status: ('A' for Active; 'I' for Inactive)
REMARK    1  A    between atoms: C_1  and  C_6 
REMARK    2  A    between atoms: C_3  and  C_5 
REMARK    3  A    between atoms: C_3  and  C_11 
REMARK    4  A    between atoms: C_3  and  N_14 
REMARK       I    between atoms: C_5  and  N_18 
REMARK    5  A    between atoms: C_11  and  O_12 
ROOT
HETATM    1  C           1     -35.128  -2.142 -13.231  0.00  0.00     0.253 C 
HETATM    2  C           1     -36.140  -0.487 -14.867  0.00  0.00     0.188 C 
HETATM    3  C           1     -37.623  -0.158 -14.868  0.00  0.00     0.038 C 
HETATM    4  C           1     -37.994   0.005 -13.398  0.00  0.00     0.022 C 
HETATM    5  C           1     -36.706  -0.246 -12.634  0.00  0.00     0.127 C 
HETATM    6  N           1     -35.913  -1.066 -13.546  0.00  0.00    -0.336 N 
HETATM    7  O           1     -34.526  -2.725 -14.100  0.00  0.00    -0.271 OA
ENDROOT
BRANCH   1   8
HETATM    8  C           1     -35.014  -2.599 -11.797  0.00  0.00     0.302 C 
BRANCH   8   9
HETATM    9  C           1     -33.641  -2.227 -11.253  0.00  0.00     0.153 C 
HETATM   10  C           1     -33.746  -1.948  -9.760  0.00  0.00     0.042 C 
BRANCH   9  11
HETATM   11  O           1     -32.750  -3.288 -11.468  0.00  0.00    -0.393 OA
HETATM   12  H           1     -32.890  -3.909 -10.773  0.00  0.00     0.210 HD
ENDBRANCH   9  11
ENDBRANCH   8   9
BRANCH   8  13
HETATM   13  N           1     -35.191  -4.087 -11.732  0.00  0.00    -0.064 N 
HETATM   14  H           1     -36.210  -4.317 -11.755  0.00  0.00     0.275 HD
HETATM   15  H           1     -34.771  -4.450 -10.846  0.00  0.00     0.275 HD
HETATM   16  H           1     -34.715  -4.531 -12.550  0.00  0.00     0.275 HD
ENDBRANCH   8  13
ENDBRANCH   1   8
BRANCH   2  17
HETATM   17  C           1     -35.314   0.760 -15.057  0.00  0.00     0.196 C 
HETATM   18  O           1     -35.784   1.733 -15.686  0.00  0.00    -0.646 OA
HETATM   19  O           1     -34.158   0.821 -14.586  0.00  0.00    -0.646 OA
ENDBRANCH   2  17
TORSDOF 5
ENDMDL
MODEL 8
REMARK VINA RESULT:      -5.3     11.353     13.210
REMARK  5 active torsions:
REMARK  status: ('A' for Active; 'I' for Inactive)
REMARK    1  A    between atoms: C_1  and  C_6 
REMARK    2  A    between atoms: C_3  and  C_5 
REMARK    3  A    between atoms: C_3  and  C_11 
REMARK    4  A    between atoms: C_3  and  N_14 
REMARK       I    between atoms: C_5  and  N_18 
REMARK    5  A    between atoms: C_11  and  O_12 
ROOT
HETATM    1  C           1     -23.080  -4.885 -10.673  0.00  0.00     0.253 C 
HETATM    2  C           1     -21.761  -5.123  -8.517  0.00  0.00     0.188 C 
HETATM    3  C           1     -20.248  -5.246  -8.507  0.00  0.00     0.038 C 
HETATM    4  C           1     -19.758  -4.205  -9.507  0.00  0.00     0.022 C 
HETATM    5  C           1     -21.018  -3.547 -10.042  0.00  0.00     0.127 C 
HETATM    6  N           1     -22.056  -4.552  -9.828  0.00  0.00    -0.336 N 
HETATM    7  O           1     -23.868  -5.744 -10.356  0.00  0.00    -0.271 OA
ENDROOT
BRANCH   1   8
HETATM    8  C           1     -23.226  -4.179 -11.998  0.00  0.00     0.302 C 
BRANCH   8   9
HETATM    9  C           1     -24.058  -2.918 -11.814  0.00  0.00     0.153 C 
HETATM   10  C           1     -24.642  -2.495 -13.155  0.00  0.00     0.042 C 
BRANCH   9  11
HETATM   11  O           1     -25.100  -3.174 -10.911  0.00  0.00    -0.393 OA
HETATM   12  H           1     -25.050  -4.088 -10.687  0.00  0.00     0.210 HD
ENDBRANCH   9  11
ENDBRANCH   8   9
BRANCH   8  13
HETATM   13  N           1     -23.907  -5.090 -12.976  0.00  0.00    -0.064 N 
HETATM   14  H           1     -23.248  -5.847 -13.263  0.00  0.00     0.275 HD
HETATM   15  H           1     -24.198  -4.542 -13.818  0.00  0.00     0.275 HD
HETATM   16  H           1     -24.751  -5.513 -12.528  0.00  0.00     0.275 HD
ENDBRANCH   8  13
ENDBRANCH   1   8
BRANCH   2  17
HETATM   17  C           1     -22.233  -4.209  -7.414  0.00  0.00     0.196 C 
HETATM   18  O           1     -21.423  -3.448  -6.842  0.00  0.00    -0.646 OA
HETATM   19  O           1     -23.436  -4.212  -7.072  0.00  0.00    -0.646 OA
ENDBRANCH   2  17
TORSDOF 5
ENDMDL
MODEL 9
REMARK VINA RESULT:      -5.3     14.492     16.172
REMARK  5 active torsions:
REMARK  status: ('A' for Active; 'I' for Inactive)
REMARK    1  A    between atoms: C_1  and  C_6 
REMARK    2  A    between atoms: C_3  and  C_5 
REMARK    3  A    between atoms: C_3  and  C_11 
REMARK    4  A    between atoms: C_3  and  N_14 
REMARK       I    between atoms: C_5  and  N_18 
REMARK    5  A    between atoms: C_11  and  O_12 
ROOT
HETATM    1  C           1     -20.671  -6.199  -6.597  0.00  0.00     0.253 C 
HETATM    2  C           1     -20.462  -7.858  -4.688  0.00  0.00     0.188 C 
HETATM    3  C           1     -20.659  -7.450  -3.239  0.00  0.00     0.038 C 
HETATM    4  C           1     -21.890  -6.551  -3.243  0.00  0.00     0.022 C 
HETATM    5  C           1     -22.328  -6.487  -4.697  0.00  0.00     0.127 C 
HETATM    6  N           1     -21.110  -6.789  -5.443  0.00  0.00    -0.336 N 
HETATM    7  O           1     -19.635  -6.558  -7.103  0.00  0.00    -0.271 OA
ENDROOT
BRANCH   1   8
HETATM    8  C           1     -21.482  -5.100  -7.238  0.00  0.00     0.302 C 
BRANCH   8   9
HETATM    9  C           1     -21.279  -5.132  -8.746  0.00  0.00     0.153 C 
HETATM   10  C           1     -22.418  -4.385  -9.428  0.00  0.00     0.042 C 
BRANCH   9  11
HETATM   11  O           1     -20.060  -4.518  -9.067  0.00  0.00    -0.393 OA
HETATM   12  H           1     -19.472  -4.684  -8.350  0.00  0.00     0.210 HD
ENDBRANCH   9  11
ENDBRANCH   8   9
BRANCH   8  13
HETATM   13  N           1     -21.036  -3.772  -6.702  0.00  0.00    -0.064 N 
HETATM   14  H           1     -20.614  -3.904  -5.755  0.00  0.00     0.275 HD
HETATM   15  H           1     -21.858  -3.130  -6.632  0.00  0.00     0.275 HD
HETATM   16  H           1     -20.324  -3.358  -7.345  0.00  0.00     0.275 HD
ENDBRANCH   8  13
ENDBRANCH   1   8
BRANCH   2  17
HETATM   17  C           1     -21.120  -9.187  -4.966  0.00  0.00     0.196 C 
HETATM   18  O           1     -21.135  -9.648  -6.127  0.00  0.00    -0.646 OA
HETATM   19  O           1     -21.650  -9.828  -4.032  0.00  0.00    -0.646 OA
ENDBRANCH   2  17
TORSDOF 5
ENDMDL
