MODEL 1
REMARK VINA RESULT:      -7.2      0.000      0.000
REMARK  9 active torsions:
REMARK  status: ('A' for Active; 'I' for Inactive)
REMARK    1  A    between atoms: N_2  and  C_25 
REMARK       I    between atoms: N_2  and  C_10 
REMARK       I    between atoms: N_4  and  C_16 
REMARK    2  A    between atoms: N_6  and  C_11 
REMARK    3  A    between atoms: C_10  and  C_11 
REMARK    4  A    between atoms: C_11  and  C_18 
REMARK    5  A    between atoms: C_16  and  C_17 
REMARK    6  A    between atoms: C_17  and  C_18 
REMARK    7  A    between atoms: C_23  and  C_25 
REMARK    8  A    between atoms: C_25  and  C_26 
REMARK    9  A    between atoms: C_26  and  C_27 
ROOT
HETATM    1  H           1     -21.529  -2.787  -7.194  0.00  0.00     0.163 HD
HETATM    2  N           1     -21.713  -3.782  -7.229  0.00  0.00    -0.344 N 
HETATM    3  O           1     -23.821  -4.408  -6.837  0.00  0.00    -0.271 OA
HETATM    4  C           1     -22.937  -4.237  -7.643  0.00  0.00     0.249 C 
ENDROOT
BRANCH   4   5
HETATM    5  C           1     -23.181  -4.523  -9.104  0.00  0.00     0.275 C 
BRANCH   5   6
HETATM    6  N           1     -24.646  -4.399  -9.399  0.00  0.00    -0.066 N 
HETATM    7  H           1     -24.794  -4.383 -10.433  0.00  0.00     0.275 HD
HETATM    8  H           1     -25.154  -5.215  -8.988  0.00  0.00     0.275 HD
HETATM    9  H           1     -25.011  -3.514  -8.981  0.00  0.00     0.275 HD
ENDBRANCH   5   6
BRANCH   5  10
HETATM   10  C           1     -22.406  -3.526  -9.954  0.00  0.00     0.052 C 
BRANCH  10  11
HETATM   11  C           1     -22.143  -4.127 -11.328  0.00  0.00     0.105 C 
BRANCH  11  12
HETATM   12  C           1     -22.887  -3.335 -12.375  0.00  0.00     0.215 C 
HETATM   13  N           1     -22.378  -3.224 -13.641  0.00  0.00    -0.370 N 
HETATM   14  H           1     -22.877  -2.692 -14.343  0.00  0.00     0.159 HD
HETATM   15  H           1     -21.501  -3.673 -13.874  0.00  0.00     0.159 HD
HETATM   16  O           1     -23.933  -2.799 -12.097  0.00  0.00    -0.274 OA
ENDBRANCH  11  12
ENDBRANCH  10  11
ENDBRANCH   5  10
ENDBRANCH   4   5
BRANCH   2  17
HETATM   17  C           1     -20.683  -4.725  -6.842  0.00  0.00     0.189 C 
BRANCH  17  18
HETATM   18  C           1     -19.516  -4.612  -7.793  0.00  0.00     0.197 C 
HETATM   19  O           1     -18.405  -4.222  -7.374  0.00  0.00    -0.646 OA
HETATM   20  O           1     -19.661  -4.909  -8.998  0.00  0.00    -0.646 OA
ENDBRANCH  17  18
BRANCH  17  21
HETATM   21  C           1     -21.245  -6.140  -6.895  0.00  0.00     0.074 C 
BRANCH  21  22
HETATM   22  C           1     -21.278  -6.716  -5.513  0.00  0.00    -0.056 A 
HETATM   23  C           1     -21.250  -5.871  -4.403  0.00  0.00     0.007 A 
HETATM   24  C           1     -21.280  -6.408  -3.117  0.00  0.00     0.001 A 
HETATM   25  C           1     -21.339  -7.789  -2.939  0.00  0.00     0.000 A 
HETATM   26  C           1     -21.367  -8.635  -4.048  0.00  0.00     0.001 A 
HETATM   27  C           1     -21.337  -8.099  -5.335  0.00  0.00     0.007 A 
ENDBRANCH  21  22
ENDBRANCH  17  21
ENDBRANCH   2  17
TORSDOF 9
ENDMDL
MODEL 2
REMARK VINA RESULT:      -7.1      2.137      3.963
REMARK  9 active torsions:
REMARK  status: ('A' for Active; 'I' for Inactive)
REMARK    1  A    between atoms: N_2  and  C_25 
REMARK       I    between atoms: N_2  and  C_10 
REMARK       I    between atoms: N_4  and  C_16 
REMARK    2  A    between atoms: N_6  and  C_11 
REMARK    3  A    between atoms: C_10  and  C_11 
REMARK    4  A    between atoms: C_11  and  C_18 
REMARK    5  A    between atoms: C_16  and  C_17 
REMARK    6  A    between atoms: C_17  and  C_18 
REMARK    7  A    between atoms: C_23  and  C_25 
REMARK    8  A    between atoms: C_25  and  C_26 
REMARK    9  A    between atoms: C_26  and  C_27 
ROOT
HETATM    1  H           1     -23.035  -5.637 -10.922  0.00  0.00     0.163 HD
HETATM    2  N           1     -22.672  -4.920 -10.307  0.00  0.00    -0.344 N 
HETATM    3  O           1     -20.451  -4.678 -10.279  0.00  0.00    -0.271 OA
HETATM    4  C           1     -21.523  -4.252 -10.639  0.00  0.00     0.249 C 
ENDROOT
BRANCH   4   5
HETATM    5  C           1     -21.596  -2.984 -11.453  0.00  0.00     0.275 C 
BRANCH   5   6
HETATM    6  N           1     -20.232  -2.368 -11.541  0.00  0.00    -0.066 N 
HETATM    7  H           1     -20.186  -1.741 -12.376  0.00  0.00     0.275 HD
HETATM    8  H           1     -20.046  -1.810 -10.678  0.00  0.00     0.275 HD
HETATM    9  H           1     -19.515  -3.122 -11.632  0.00  0.00     0.275 HD
ENDBRANCH   5   6
BRANCH   5  10
HETATM   10  C           1     -22.098  -3.308 -12.855  0.00  0.00     0.052 C 
BRANCH  10  11
HETATM   11  C           1     -23.373  -2.523 -13.132  0.00  0.00     0.105 C 
BRANCH  11  12
HETATM   12  C           1     -23.334  -1.982 -14.540  0.00  0.00     0.215 C 
HETATM   13  N           1     -24.050  -0.861 -14.863  0.00  0.00    -0.370 N 
HETATM   14  H           1     -24.024  -0.498 -15.808  0.00  0.00     0.159 HD
HETATM   15  H           1     -24.607  -0.395 -14.158  0.00  0.00     0.159 HD
HETATM   16  O           1     -22.669  -2.537 -15.383  0.00  0.00    -0.274 OA
ENDBRANCH  11  12
ENDBRANCH  10  11
ENDBRANCH   5  10
ENDBRANCH   4   5
BRANCH   2  17
HETATM   17  C           1     -23.366  -4.600  -9.076  0.00  0.00     0.189 C 
BRANCH  17  18
HETATM   18  C           1     -24.675  -3.921  -9.399  0.00  0.00     0.197 C 
HETATM   19  O           1     -24.706  -2.686  -9.593  0.00  0.00    -0.646 OA
HETATM   20  O           1     -25.726  -4.592  -9.472  0.00  0.00    -0.646 OA
ENDBRANCH  17  18
BRANCH  17  21
HETATM   21  C           1     -22.503  -3.667  -8.236  0.00  0.00     0.074 C 
BRANCH  21  22
HETATM   22  C           1     -21.909  -4.430  -7.092  0.00  0.00    -0.056 A 
HETATM   23  C           1     -22.654  -5.420  -6.451  0.00  0.00     0.007 A 
HETATM   24  C           1     -22.101  -6.130  -5.387  0.00  0.00     0.001 A 
HETATM   25  C           1     -20.802  -5.852  -4.964  0.00  0.00     0.000 A 
HETATM   26  C           1     -20.056  -4.862  -5.604  0.00  0.00     0.001 A 
HETATM   27  C           1     -20.609  -4.152  -6.669  0.00  0.00     0.007 A 
ENDBRANCH  21  22
ENDBRANCH  17  21
ENDBRANCH   2  17
TORSDOF 9
ENDMDL
MODEL 3
REMARK VINA RESULT:      -6.9      2.772      4.369
REMARK  9 active torsions:
REMARK  status: ('A' for Active; 'I' for Inactive)
REMARK    1  A    between atoms: N_2  and  C_25 
REMARK       I    between atoms: N_2  and  C_10 
REMARK       I    between atoms: N_4  and  C_16 
REMARK    2  A    between atoms: N_6  and  C_11 
REMARK    3  A    between atoms: C_10  and  C_11 
REMARK    4  A    between atoms: C_11  and  C_18 
REMARK    5  A    between atoms: C_16  and  C_17 
REMARK    6  A    between atoms: C_17  and  C_18 
REMARK    7  A    between atoms: C_23  and  C_25 
REMARK    8  A    between atoms: C_25  and  C_26 
REMARK    9  A    between atoms: C_26  and  C_27 
ROOT
HETATM    1  H           1     -21.523  -8.537  -6.174  0.00  0.00     0.163 HD
HETATM    2  N           1     -20.810  -8.002  -5.694  0.00  0.00    -0.344 N 
HETATM    3  O           1     -19.545  -6.677  -6.973  0.00  0.00    -0.271 OA
HETATM    4  C           1     -20.443  -6.772  -6.169  0.00  0.00     0.249 C 
ENDROOT
BRANCH   4   5
HETATM    5  C           1     -21.159  -5.533  -5.690  0.00  0.00     0.275 C 
BRANCH   5   6
HETATM    6  N           1     -20.190  -4.391  -5.622  0.00  0.00    -0.066 N 
HETATM    7  H           1     -20.389  -3.814  -4.773  0.00  0.00     0.275 HD
HETATM    8  H           1     -19.216  -4.764  -5.568  0.00  0.00     0.275 HD
HETATM    9  H           1     -20.291  -3.798  -6.477  0.00  0.00     0.275 HD
ENDBRANCH   5   6
BRANCH   5  10
HETATM   10  C           1     -22.283  -5.189  -6.659  0.00  0.00     0.052 C 
BRANCH  10  11
HETATM   11  C           1     -21.893  -3.963  -7.474  0.00  0.00     0.105 C 
BRANCH  11  12
HETATM   12  C           1     -22.746  -3.893  -8.717  0.00  0.00     0.215 C 
HETATM   13  N           1     -24.097  -3.701  -8.610  0.00  0.00    -0.370 N 
HETATM   14  H           1     -24.669  -3.654  -9.444  0.00  0.00     0.159 HD
HETATM   15  H           1     -24.524  -3.607  -7.697  0.00  0.00     0.159 HD
HETATM   16  O           1     -22.237  -4.006  -9.807  0.00  0.00    -0.274 OA
ENDBRANCH  11  12
ENDBRANCH  10  11
ENDBRANCH   5  10
ENDBRANCH   4   5
BRANCH   2  17
HETATM   17  C           1     -20.177  -8.538  -4.505  0.00  0.00     0.189 C 
BRANCH  17  18
HETATM   18  C           1     -18.976  -9.361  -4.903  0.00  0.00     0.197 C 
HETATM   19  O           1     -17.973  -9.402  -4.158  0.00  0.00    -0.646 OA
HETATM   20  O           1     -18.984 -10.000  -5.977  0.00  0.00    -0.646 OA
ENDBRANCH  17  18
BRANCH  17  21
HETATM   21  C           1     -21.170  -9.418  -3.756  0.00  0.00     0.074 C 
BRANCH  21  22
HETATM   22  C           1     -21.628  -8.713  -2.517  0.00  0.00    -0.056 A 
HETATM   23  C           1     -21.700  -7.320  -2.494  0.00  0.00     0.007 A 
HETATM   24  C           1     -22.126  -6.663  -1.340  0.00  0.00     0.001 A 
HETATM   25  C           1     -22.482  -7.399  -0.210  0.00  0.00     0.000 A 
HETATM   26  C           1     -22.411  -8.792  -0.233  0.00  0.00     0.001 A 
HETATM   27  C           1     -21.985  -9.448  -1.387  0.00  0.00     0.007 A 
ENDBRANCH  21  22
ENDBRANCH  17  21
ENDBRANCH   2  17
TORSDOF 9
ENDMDL
MODEL 4
REMARK VINA RESULT:      -6.8      2.841      4.497
REMARK  9 active torsions:
REMARK  status: ('A' for Active; 'I' for Inactive)
REMARK    1  A    between atoms: N_2  and  C_25 
REMARK       I    between atoms: N_2  and  C_10 
REMARK       I    between atoms: N_4  and  C_16 
REMARK    2  A    between atoms: N_6  and  C_11 
REMARK    3  A    between atoms: C_10  and  C_11 
REMARK    4  A    between atoms: C_11  and  C_18 
REMARK    5  A    between atoms: C_16  and  C_17 
REMARK    6  A    between atoms: C_17  and  C_18 
REMARK    7  A    between atoms: C_23  and  C_25 
REMARK    8  A    between atoms: C_25  and  C_26 
REMARK    9  A    between atoms: C_26  and  C_27 
ROOT
HETATM    1  H           1     -21.617  -8.501  -6.145  0.00  0.00     0.163 HD
HETATM    2  N           1     -20.883  -7.978  -5.685  0.00  0.00    -0.344 N 
HETATM    3  O           1     -19.614  -6.692  -7.000  0.00  0.00    -0.271 OA
HETATM    4  C           1     -20.498  -6.760  -6.178  0.00  0.00     0.249 C 
ENDROOT
BRANCH   4   5
HETATM    5  C           1     -21.176  -5.502  -5.695  0.00  0.00     0.275 C 
BRANCH   5   6
HETATM    6  N           1     -20.143  -4.449  -5.425  0.00  0.00    -0.066 N 
HETATM    7  H           1     -19.667  -4.191  -6.319  0.00  0.00     0.275 HD
HETATM    8  H           1     -20.605  -3.604  -5.021  0.00  0.00     0.275 HD
HETATM    9  H           1     -19.438  -4.819  -4.749  0.00  0.00     0.275 HD
ENDBRANCH   5   6
BRANCH   5  10
HETATM   10  C           1     -22.142  -5.004  -6.761  0.00  0.00     0.052 C 
BRANCH  10  11
HETATM   11  C           1     -21.544  -3.791  -7.461  0.00  0.00     0.105 C 
BRANCH  11  12
HETATM   12  C           1     -21.262  -4.131  -8.904  0.00  0.00     0.215 C 
HETATM   13  N           1     -20.062  -4.689  -9.254  0.00  0.00    -0.370 N 
HETATM   14  H           1     -19.873  -4.917 -10.222  0.00  0.00     0.159 HD
HETATM   15  H           1     -19.364  -4.873  -8.545  0.00  0.00     0.159 HD
HETATM   16  O           1     -22.095  -3.911  -9.751  0.00  0.00    -0.274 OA
ENDBRANCH  11  12
ENDBRANCH  10  11
ENDBRANCH   5  10
ENDBRANCH   4   5
BRANCH   2  17
HETATM   17  C           1     -20.238  -8.519  -4.504  0.00  0.00     0.189 C 
BRANCH  17  18
HETATM   18  C           1     -19.040  -9.339  -4.917  0.00  0.00     0.197 C 
HETATM   19  O           1     -19.075 -10.008  -5.972  0.00  0.00    -0.646 OA
HETATM   20  O           1     -18.013  -9.349  -4.204  0.00  0.00    -0.646 OA
ENDBRANCH  17  18
BRANCH  17  21
HETATM   21  C           1     -21.223  -9.403  -3.750  0.00  0.00     0.074 C 
BRANCH  21  22
HETATM   22  C           1     -21.672  -8.701  -2.505  0.00  0.00    -0.056 A 
HETATM   23  C           1     -22.056  -9.441  -1.387  0.00  0.00     0.007 A 
HETATM   24  C           1     -22.474  -8.787  -0.228  0.00  0.00     0.001 A 
HETATM   25  C           1     -22.506  -7.393  -0.187  0.00  0.00     0.000 A 
HETATM   26  C           1     -22.122  -6.653  -1.305  0.00  0.00     0.001 A 
HETATM   27  C           1     -21.704  -7.307  -2.464  0.00  0.00     0.007 A 
ENDBRANCH  21  22
ENDBRANCH  17  21
ENDBRANCH   2  17
TORSDOF 9
ENDMDL
MODEL 5
REMARK VINA RESULT:      -6.7      3.103      7.341
REMARK  9 active torsions:
REMARK  status: ('A' for Active; 'I' for Inactive)
REMARK    1  A    between atoms: N_2  and  C_25 
REMARK       I    between atoms: N_2  and  C_10 
REMARK       I    between atoms: N_4  and  C_16 
REMARK    2  A    between atoms: N_6  and  C_11 
REMARK    3  A    between atoms: C_10  and  C_11 
REMARK    4  A    between atoms: C_11  and  C_18 
REMARK    5  A    between atoms: C_16  and  C_17 
REMARK    6  A    between atoms: C_17  and  C_18 
REMARK    7  A    between atoms: C_23  and  C_25 
REMARK    8  A    between atoms: C_25  and  C_26 
REMARK    9  A    between atoms: C_26  and  C_27 
ROOT
HETATM    1  H           1     -23.183  -5.392  -5.524  0.00  0.00     0.163 HD
HETATM    2  N           1     -22.236  -5.732  -5.635  0.00  0.00    -0.344 N 
HETATM    3  O           1     -20.976  -5.761  -3.791  0.00  0.00    -0.271 OA
HETATM    4  C           1     -21.617  -6.385  -4.604  0.00  0.00     0.249 C 
ENDROOT
BRANCH   4   5
HETATM    5  C           1     -21.736  -7.884  -4.480  0.00  0.00     0.275 C 
BRANCH   5   6
HETATM    6  N           1     -21.299  -8.527  -5.763  0.00  0.00    -0.066 N 
HETATM    7  H           1     -20.686  -7.866  -6.293  0.00  0.00     0.275 HD
HETATM    8  H           1     -20.766  -9.400  -5.550  0.00  0.00     0.275 HD
HETATM    9  H           1     -22.139  -8.761  -6.338  0.00  0.00     0.275 HD
ENDBRANCH   5   6
BRANCH   5  10
HETATM   10  C           1     -20.852  -8.373  -3.341  0.00  0.00     0.052 C 
BRANCH  10  11
HETATM   11  C           1     -21.725  -8.890  -2.206  0.00  0.00     0.105 C 
BRANCH  11  12
HETATM   12  C           1     -21.666  -7.927  -1.046  0.00  0.00     0.215 C 
HETATM   13  N           1     -22.362  -6.750  -1.097  0.00  0.00    -0.370 N 
HETATM   14  H           1     -22.322  -6.104  -0.318  0.00  0.00     0.159 HD
HETATM   15  H           1     -22.916  -6.524  -1.913  0.00  0.00     0.159 HD
HETATM   16  O           1     -21.005  -8.196  -0.071  0.00  0.00    -0.274 OA
ENDBRANCH  11  12
ENDBRANCH  10  11
ENDBRANCH   5  10
ENDBRANCH   4   5
BRANCH   2  17
HETATM   17  C           1     -21.534  -5.525  -6.887  0.00  0.00     0.189 C 
BRANCH  17  18
HETATM   18  C           1     -20.046  -5.596  -6.645  0.00  0.00     0.197 C 
HETATM   19  O           1     -19.431  -4.588  -6.234  0.00  0.00    -0.646 OA
HETATM   20  O           1     -19.428  -6.662  -6.856  0.00  0.00    -0.646 OA
ENDBRANCH  17  18
BRANCH  17  21
HETATM   21  C           1     -21.892  -4.155  -7.448  0.00  0.00     0.074 C 
BRANCH  21  22
HETATM   22  C           1     -21.876  -4.208  -8.945  0.00  0.00    -0.056 A 
HETATM   23  C           1     -23.051  -4.477  -9.646  0.00  0.00     0.007 A 
HETATM   24  C           1     -23.036  -4.527 -11.040  0.00  0.00     0.001 A 
HETATM   25  C           1     -21.845  -4.307 -11.732  0.00  0.00     0.000 A 
HETATM   26  C           1     -20.670  -4.039 -11.031  0.00  0.00     0.001 A 
HETATM   27  C           1     -20.685  -3.989  -9.638  0.00  0.00     0.007 A 
ENDBRANCH  21  22
ENDBRANCH  17  21
ENDBRANCH   2  17
TORSDOF 9
ENDMDL
MODEL 6
REMARK VINA RESULT:      -6.5      4.179      8.135
REMARK  9 active torsions:
REMARK  status: ('A' for Active; 'I' for Inactive)
REMARK    1  A    between atoms: N_2  and  C_25 
REMARK       I    between atoms: N_2  and  C_10 
REMARK       I    between atoms: N_4  and  C_16 
REMARK    2  A    between atoms: N_6  and  C_11 
REMARK    3  A    between atoms: C_10  and  C_11 
REMARK    4  A    between atoms: C_11  and  C_18 
REMARK    5  A    between atoms: C_16  and  C_17 
REMARK    6  A    between atoms: C_17  and  C_18 
REMARK    7  A    between atoms: C_23  and  C_25 
REMARK    8  A    between atoms: C_25  and  C_26 
REMARK    9  A    between atoms: C_26  and  C_27 
ROOT
HETATM    1  H           1     -23.578  -6.377  -3.936  0.00  0.00     0.163 HD
HETATM    2  N           1     -22.571  -6.465  -3.884  0.00  0.00    -0.344 N 
HETATM    3  O           1     -21.562  -5.302  -2.266  0.00  0.00    -0.271 OA
HETATM    4  C           1     -21.938  -6.376  -2.673  0.00  0.00     0.249 C 
ENDROOT
BRANCH   4   5
HETATM    5  C           1     -21.710  -7.618  -1.848  0.00  0.00     0.275 C 
BRANCH   5   6
HETATM    6  N           1     -20.237  -7.853  -1.695  0.00  0.00    -0.066 N 
HETATM    7  H           1     -19.833  -8.144  -2.614  0.00  0.00     0.275 HD
HETATM    8  H           1     -19.775  -6.971  -1.377  0.00  0.00     0.275 HD
HETATM    9  H           1     -20.076  -8.606  -0.990  0.00  0.00     0.275 HD
ENDBRANCH   5   6
BRANCH   5  10
HETATM   10  C           1     -22.340  -7.437  -0.473  0.00  0.00     0.052 C 
BRANCH  10  11
HETATM   11  C           1     -21.913  -8.582   0.436  0.00  0.00     0.105 C 
BRANCH  11  12
HETATM   12  C           1     -22.605  -9.852   0.005  0.00  0.00     0.215 C 
HETATM   13  N           1     -21.866 -10.942  -0.368  0.00  0.00    -0.370 N 
HETATM   14  H           1     -22.330 -11.794  -0.657  0.00  0.00     0.159 HD
HETATM   15  H           1     -20.855 -10.895  -0.357  0.00  0.00     0.159 HD
HETATM   16  O           1     -23.812  -9.907  -0.009  0.00  0.00    -0.274 OA
ENDBRANCH  11  12
ENDBRANCH  10  11
ENDBRANCH   5  10
ENDBRANCH   4   5
BRANCH   2  17
HETATM   17  C           1     -21.799  -6.685  -5.091  0.00  0.00     0.189 C 
BRANCH  17  18
HETATM   18  C           1     -21.012  -7.966  -4.957  0.00  0.00     0.197 C 
HETATM   19  O           1     -21.604  -9.066  -4.958  0.00  0.00    -0.646 OA
HETATM   20  O           1     -19.767  -7.926  -4.846  0.00  0.00    -0.646 OA
ENDBRANCH  17  18
BRANCH  17  21
HETATM   21  C           1     -20.841  -5.519  -5.299  0.00  0.00     0.074 C 
BRANCH  21  22
HETATM   22  C           1     -20.955  -5.023  -6.707  0.00  0.00    -0.056 A 
HETATM   23  C           1     -19.847  -5.065  -7.554  0.00  0.00     0.007 A 
HETATM   24  C           1     -19.954  -4.603  -8.865  0.00  0.00     0.001 A 
HETATM   25  C           1     -21.169  -4.101  -9.330  0.00  0.00     0.000 A 
HETATM   26  C           1     -22.277  -4.059  -8.485  0.00  0.00     0.001 A 
HETATM   27  C           1     -22.170  -4.521  -7.173  0.00  0.00     0.007 A 
ENDBRANCH  21  22
ENDBRANCH  17  21
ENDBRANCH   2  17
TORSDOF 9
ENDMDL
MODEL 7
REMARK VINA RESULT:      -6.5      6.101      8.827
REMARK  9 active torsions:
REMARK  status: ('A' for Active; 'I' for Inactive)
REMARK    1  A    between atoms: N_2  and  C_25 
REMARK       I    between atoms: N_2  and  C_10 
REMARK       I    between atoms: N_4  and  C_16 
REMARK    2  A    between atoms: N_6  and  C_11 
REMARK    3  A    between atoms: C_10  and  C_11 
REMARK    4  A    between atoms: C_11  and  C_18 
REMARK    5  A    between atoms: C_16  and  C_17 
REMARK    6  A    between atoms: C_17  and  C_18 
REMARK    7  A    between atoms: C_23  and  C_25 
REMARK    8  A    between atoms: C_25  and  C_26 
REMARK    9  A    between atoms: C_26  and  C_27 
ROOT
HETATM    1  H           1     -23.598 -11.291  -3.407  0.00  0.00     0.163 HD
HETATM    2  N           1     -22.749 -11.590  -2.946  0.00  0.00    -0.344 N 
HETATM    3  O           1     -21.089 -12.269  -4.278  0.00  0.00    -0.271 OA
HETATM    4  C           1     -21.537 -11.409  -3.557  0.00  0.00     0.249 C 
ENDROOT
BRANCH   4   5
HETATM    5  C           1     -20.762 -10.135  -3.331  0.00  0.00     0.275 C 
BRANCH   5   6
HETATM    6  N           1     -19.859  -9.885  -4.502  0.00  0.00    -0.066 N 
HETATM    7  H           1     -20.395 -10.011  -5.390  0.00  0.00     0.275 HD
HETATM    8  H           1     -19.490  -8.909  -4.455  0.00  0.00     0.275 HD
HETATM    9  H           1     -19.062 -10.562  -4.478  0.00  0.00     0.275 HD
ENDBRANCH   5   6
BRANCH   5  10
HETATM   10  C           1     -21.730  -8.969  -3.181  0.00  0.00     0.052 C 
BRANCH  10  11
HETATM   11  C           1     -21.002  -7.778  -2.574  0.00  0.00     0.105 C 
BRANCH  11  12
HETATM   12  C           1     -21.719  -6.504  -2.949  0.00  0.00     0.215 C 
HETATM   13  N           1     -21.545  -5.961  -4.193  0.00  0.00    -0.370 N 
HETATM   14  H           1     -22.026  -5.106  -4.444  0.00  0.00     0.159 HD
HETATM   15  H           1     -20.933  -6.413  -4.861  0.00  0.00     0.159 HD
HETATM   16  O           1     -22.449  -5.965  -2.151  0.00  0.00    -0.274 OA
ENDBRANCH  11  12
ENDBRANCH  10  11
ENDBRANCH   5  10
ENDBRANCH   4   5
BRANCH   2  17
HETATM   17  C           1     -22.814 -12.212  -1.637  0.00  0.00     0.189 C 
BRANCH  17  18
HETATM   18  C           1     -23.363 -13.611  -1.773  0.00  0.00     0.197 C 
HETATM   19  O           1     -22.702 -14.487  -2.371  0.00  0.00    -0.646 OA
HETATM   20  O           1     -24.480 -13.894  -1.287  0.00  0.00    -0.646 OA
ENDBRANCH  17  18
BRANCH  17  21
HETATM   21  C           1     -23.726 -11.394  -0.733  0.00  0.00     0.074 C 
BRANCH  21  22
HETATM   22  C           1     -22.932 -10.310  -0.071  0.00  0.00    -0.056 A 
HETATM   23  C           1     -23.492  -9.045   0.109  0.00  0.00     0.007 A 
HETATM   24  C           1     -22.753  -8.036   0.725  0.00  0.00     0.001 A 
HETATM   25  C           1     -21.454  -8.292   1.162  0.00  0.00     0.000 A 
HETATM   26  C           1     -20.893  -9.557   0.982  0.00  0.00     0.001 A 
HETATM   27  C           1     -21.632 -10.566   0.366  0.00  0.00     0.007 A 
ENDBRANCH  21  22
ENDBRANCH  17  21
ENDBRANCH   2  17
TORSDOF 9
ENDMDL
MODEL 8
REMARK VINA RESULT:      -6.4      6.232      8.659
REMARK  9 active torsions:
REMARK  status: ('A' for Active; 'I' for Inactive)
REMARK    1  A    between atoms: N_2  and  C_25 
REMARK       I    between atoms: N_2  and  C_10 
REMARK       I    between atoms: N_4  and  C_16 
REMARK    2  A    between atoms: N_6  and  C_11 
REMARK    3  A    between atoms: C_10  and  C_11 
REMARK    4  A    between atoms: C_11  and  C_18 
REMARK    5  A    between atoms: C_16  and  C_17 
REMARK    6  A    between atoms: C_17  and  C_18 
REMARK    7  A    between atoms: C_23  and  C_25 
REMARK    8  A    between atoms: C_25  and  C_26 
REMARK    9  A    between atoms: C_26  and  C_27 
ROOT
HETATM    1  H           1     -20.786 -11.606  -2.379  0.00  0.00     0.163 HD
HETATM    2  N           1     -19.905 -11.159  -2.159  0.00  0.00    -0.344 N 
HETATM    3  O           1     -18.366 -11.161  -3.778  0.00  0.00    -0.271 OA
HETATM    4  C           1     -19.186 -10.539  -3.146  0.00  0.00     0.249 C 
ENDROOT
BRANCH   4   5
HETATM    5  C           1     -19.419  -9.079  -3.445  0.00  0.00     0.275 C 
BRANCH   5   6
HETATM    6  N           1     -19.204  -8.828  -4.907  0.00  0.00    -0.066 N 
HETATM    7  H           1     -18.839  -9.696  -5.360  0.00  0.00     0.275 HD
HETATM    8  H           1     -20.111  -8.559  -5.351  0.00  0.00     0.275 HD
HETATM    9  H           1     -18.512  -8.054  -5.029  0.00  0.00     0.275 HD
ENDBRANCH   5   6
BRANCH   5  10
HETATM   10  C           1     -20.847  -8.704  -3.071  0.00  0.00     0.052 C 
BRANCH  10  11
HETATM   11  C           1     -20.835  -7.449  -2.209  0.00  0.00     0.105 C 
BRANCH  11  12
HETATM   12  C           1     -21.837  -6.458  -2.749  0.00  0.00     0.215 C 
HETATM   13  N           1     -21.900  -6.211  -4.093  0.00  0.00    -0.370 N 
HETATM   14  H           1     -22.572  -5.546  -4.455  0.00  0.00     0.159 HD
HETATM   15  H           1     -21.273  -6.691  -4.726  0.00  0.00     0.159 HD
HETATM   16  O           1     -22.586  -5.884  -1.994  0.00  0.00    -0.274 OA
ENDBRANCH  11  12
ENDBRANCH  10  11
ENDBRANCH   5  10
ENDBRANCH   4   5
BRANCH   2  17
HETATM   17  C           1     -19.403 -11.176  -0.799  0.00  0.00     0.189 C 
BRANCH  17  18
HETATM   18  C           1     -18.300 -12.199  -0.683  0.00  0.00     0.197 C 
HETATM   19  O           1     -18.514 -13.387  -1.005  0.00  0.00    -0.646 OA
HETATM   20  O           1     -17.172 -11.858  -0.265  0.00  0.00    -0.646 OA
ENDBRANCH  17  18
BRANCH  17  21
HETATM   21  C           1     -20.535 -11.539   0.154  0.00  0.00     0.074 C 
BRANCH  21  22
HETATM   22  C           1     -21.428 -10.352   0.346  0.00  0.00    -0.056 A 
HETATM   23  C           1     -20.955  -9.225   1.017  0.00  0.00     0.007 A 
HETATM   24  C           1     -21.786  -8.119   1.195  0.00  0.00     0.001 A 
HETATM   25  C           1     -23.090  -8.141   0.701  0.00  0.00     0.000 A 
HETATM   26  C           1     -23.563  -9.268   0.030  0.00  0.00     0.001 A 
HETATM   27  C           1     -22.732 -10.373  -0.149  0.00  0.00     0.007 A 
ENDBRANCH  21  22
ENDBRANCH  17  21
ENDBRANCH   2  17
TORSDOF 9
ENDMDL
MODEL 9
REMARK VINA RESULT:      -6.4      2.718      4.414
REMARK  9 active torsions:
REMARK  status: ('A' for Active; 'I' for Inactive)
REMARK    1  A    between atoms: N_2  and  C_25 
REMARK       I    between atoms: N_2  and  C_10 
REMARK       I    between atoms: N_4  and  C_16 
REMARK    2  A    between atoms: N_6  and  C_11 
REMARK    3  A    between atoms: C_10  and  C_11 
REMARK    4  A    between atoms: C_11  and  C_18 
REMARK    5  A    between atoms: C_16  and  C_17 
REMARK    6  A    between atoms: C_17  and  C_18 
REMARK    7  A    between atoms: C_23  and  C_25 
REMARK    8  A    between atoms: C_25  and  C_26 
REMARK    9  A    between atoms: C_26  and  C_27 
ROOT
HETATM    1  H           1     -22.861  -2.063 -10.333  0.00  0.00     0.163 HD
HETATM    2  N           1     -23.215  -2.966 -10.622  0.00  0.00    -0.344 N 
HETATM    3  O           1     -25.070  -2.946 -11.867  0.00  0.00    -0.271 OA
HETATM    4  C           1     -23.871  -3.094 -11.817  0.00  0.00     0.249 C 
ENDROOT
BRANCH   4   5
HETATM    5  C           1     -23.099  -3.419 -13.071  0.00  0.00     0.275 C 
BRANCH   5   6
HETATM    6  N           1     -23.997  -4.126 -14.041  0.00  0.00    -0.066 N 
HETATM    7  H           1     -24.734  -3.467 -14.380  0.00  0.00     0.275 HD
HETATM    8  H           1     -23.433  -4.464 -14.854  0.00  0.00     0.275 HD
HETATM    9  H           1     -24.448  -4.941 -13.567  0.00  0.00     0.275 HD
ENDBRANCH   5   6
BRANCH   5  10
HETATM   10  C           1     -22.586  -2.130 -13.701  0.00  0.00     0.052 C 
BRANCH  10  11
HETATM   11  C           1     -23.110  -2.019 -15.127  0.00  0.00     0.105 C 
BRANCH  11  12
HETATM   12  C           1     -23.962  -0.780 -15.255  0.00  0.00     0.215 C 
HETATM   13  N           1     -23.558   0.249 -16.063  0.00  0.00    -0.370 N 
HETATM   14  H           1     -24.130   1.080 -16.148  0.00  0.00     0.159 HD
HETATM   15  H           1     -22.687   0.179 -16.574  0.00  0.00     0.159 HD
HETATM   16  O           1     -25.001  -0.695 -14.645  0.00  0.00    -0.274 OA
ENDBRANCH  11  12
ENDBRANCH  10  11
ENDBRANCH   5  10
ENDBRANCH   4   5
BRANCH   2  17
HETATM   17  C           1     -23.028  -4.124  -9.770  0.00  0.00     0.189 C 
BRANCH  17  18
HETATM   18  C           1     -24.151  -5.106 -10.004  0.00  0.00     0.197 C 
HETATM   19  O           1     -23.998  -6.048 -10.811  0.00  0.00    -0.646 OA
HETATM   20  O           1     -25.232  -4.976  -9.391  0.00  0.00    -0.646 OA
ENDBRANCH  17  18
BRANCH  17  21
HETATM   21  C           1     -23.033  -3.686  -8.311  0.00  0.00     0.074 C 
BRANCH  21  22
HETATM   22  C           1     -21.864  -4.298  -7.602  0.00  0.00    -0.056 A 
HETATM   23  C           1     -20.565  -4.006  -8.017  0.00  0.00     0.007 A 
HETATM   24  C           1     -19.477  -4.577  -7.357  0.00  0.00     0.001 A 
HETATM   25  C           1     -19.689  -5.438  -6.281  0.00  0.00     0.000 A 
HETATM   26  C           1     -20.988  -5.730  -5.865  0.00  0.00     0.001 A 
HETATM   27  C           1     -22.076  -5.160  -6.525  0.00  0.00     0.007 A 
ENDBRANCH  21  22
ENDBRANCH  17  21
ENDBRANCH   2  17
TORSDOF 9
ENDMDL
