MODEL 1
REMARK VINA RESULT:      -6.0      0.000      0.000
REMARK  5 active torsions:
REMARK  status: ('A' for Active; 'I' for Inactive)
REMARK    1  A    between atoms: C_1  and  C_12 
REMARK    2  A    between atoms: C_1  and  C_2 
REMARK    3  A    between atoms: C_1  and  N_6 
REMARK       I    between atoms: N_6  and  C_7 
REMARK    4  A    between atoms: C_7  and  C_8 
REMARK    5  A    between atoms: C_12  and  O_17 
ROOT
HETATM    1  H           1     -33.822  -1.147 -12.611  0.00  0.00     0.163 HD
HETATM    2  N           1     -34.819  -1.076 -12.452  0.00  0.00    -0.343 N 
HETATM    3  C           1     -35.421  -1.872 -11.514  0.00  0.00     0.251 C 
HETATM    4  O           1     -36.611  -1.785 -11.324  0.00  0.00    -0.271 OA
ENDROOT
BRANCH   2   5
HETATM    5  C           1     -35.609  -0.130 -13.215  0.00  0.00     0.209 C 
BRANCH   5   6
HETATM    6  C           1     -34.758   1.084 -13.562  0.00  0.00     0.200 C 
BRANCH   6   7
HETATM    7  O           1     -35.289   1.720 -14.693  0.00  0.00    -0.398 OA
HETATM    8  H           1     -35.926   2.342 -14.383  0.00  0.00     0.209 HD
ENDBRANCH   6   7
ENDBRANCH   5   6
BRANCH   5   9
HETATM    9  C           1     -36.087  -0.788 -14.487  0.00  0.00     0.198 C 
HETATM   10  O           1     -37.291  -0.714 -14.815  0.00  0.00    -0.646 OA
HETATM   11  O           1     -35.279  -1.405 -15.213  0.00  0.00    -0.646 OA
ENDBRANCH   5   9
ENDBRANCH   2   5
BRANCH   3  12
HETATM   12  C           1     -34.598  -2.855 -10.719  0.00  0.00     0.311 C 
HETATM   13  N           1     -35.110  -4.213 -10.882  0.00  0.00     0.097 N 
HETATM   14  H           1     -34.745  -4.826 -10.153  0.00  0.00     0.317 HD
HETATM   15  C           1     -34.613  -4.651 -12.183  0.00  0.00     0.271 C 
HETATM   16  C           1     -33.192  -4.114 -12.227  0.00  0.00     0.033 C 
HETATM   17  C           1     -33.181  -2.936 -11.261  0.00  0.00     0.047 C 
ENDBRANCH   3  12
TORSDOF 5
ENDMDL
MODEL 2
REMARK VINA RESULT:      -5.9     12.985     14.183
REMARK  5 active torsions:
REMARK  status: ('A' for Active; 'I' for Inactive)
REMARK    1  A    between atoms: C_1  and  C_12 
REMARK    2  A    between atoms: C_1  and  C_2 
REMARK    3  A    between atoms: C_1  and  N_6 
REMARK       I    between atoms: N_6  and  C_7 
REMARK    4  A    between atoms: C_7  and  C_8 
REMARK    5  A    between atoms: C_12  and  O_17 
ROOT
HETATM    1  H           1     -21.217  -5.257 -10.129  0.00  0.00     0.163 HD
HETATM    2  N           1     -21.767  -4.541  -9.674  0.00  0.00    -0.343 N 
HETATM    3  C           1     -21.967  -4.588  -8.320  0.00  0.00     0.251 C 
HETATM    4  O           1     -22.624  -3.732  -7.776  0.00  0.00    -0.271 OA
ENDROOT
BRANCH   2   5
HETATM    5  C           1     -22.346  -3.464 -10.454  0.00  0.00     0.209 C 
BRANCH   5   6
HETATM    6  C           1     -21.387  -3.073 -11.571  0.00  0.00     0.200 C 
BRANCH   6   7
HETATM    7  O           1     -21.831  -3.622 -12.782  0.00  0.00    -0.398 OA
HETATM    8  H           1     -21.268  -3.284 -13.458  0.00  0.00     0.209 HD
ENDBRANCH   6   7
ENDBRANCH   5   6
BRANCH   5   9
HETATM    9  C           1     -23.652  -3.924 -11.053  0.00  0.00     0.198 C 
HETATM   10  O           1     -23.845  -5.140 -11.272  0.00  0.00    -0.646 OA
HETATM   11  O           1     -24.541  -3.091 -11.329  0.00  0.00    -0.646 OA
ENDBRANCH   5   9
ENDBRANCH   2   5
BRANCH   3  12
HETATM   12  C           1     -21.364  -5.708  -7.507  0.00  0.00     0.311 C 
HETATM   13  N           1     -19.942  -5.857  -7.803  0.00  0.00     0.097 N 
HETATM   14  H           1     -19.598  -6.761  -7.478  0.00  0.00     0.317 HD
HETATM   15  C           1     -19.287  -4.788  -7.055  0.00  0.00     0.271 C 
HETATM   16  C           1     -20.028  -4.767  -5.729  0.00  0.00     0.033 C 
HETATM   17  C           1     -21.392  -5.376  -6.026  0.00  0.00     0.047 C 
ENDBRANCH   3  12
TORSDOF 5
ENDMDL
MODEL 3
REMARK VINA RESULT:      -5.7     12.808     14.062
REMARK  5 active torsions:
REMARK  status: ('A' for Active; 'I' for Inactive)
REMARK    1  A    between atoms: C_1  and  C_12 
REMARK    2  A    between atoms: C_1  and  C_2 
REMARK    3  A    between atoms: C_1  and  N_6 
REMARK       I    between atoms: N_6  and  C_7 
REMARK    4  A    between atoms: C_7  and  C_8 
REMARK    5  A    between atoms: C_12  and  O_17 
ROOT
HETATM    1  H           1     -22.800  -3.311  -8.897  0.00  0.00     0.163 HD
HETATM    2  N           1     -22.244  -3.850  -9.549  0.00  0.00    -0.343 N 
HETATM    3  C           1     -20.948  -4.171  -9.241  0.00  0.00     0.251 C 
HETATM    4  O           1     -20.285  -4.815 -10.018  0.00  0.00    -0.271 OA
ENDROOT
BRANCH   2   5
HETATM    5  C           1     -22.817  -4.281 -10.809  0.00  0.00     0.209 C 
BRANCH   5   6
HETATM    6  C           1     -23.996  -5.208 -10.541  0.00  0.00     0.200 C 
BRANCH   6   7
HETATM    7  O           1     -24.892  -4.582  -9.663  0.00  0.00    -0.398 OA
HETATM    8  H           1     -25.359  -3.936 -10.164  0.00  0.00     0.209 HD
ENDBRANCH   6   7
ENDBRANCH   5   6
BRANCH   5   9
HETATM    9  C           1     -23.293  -3.076 -11.582  0.00  0.00     0.198 C 
HETATM   10  O           1     -24.517  -2.883 -11.748  0.00  0.00    -0.646 OA
HETATM   11  O           1     -22.464  -2.270 -12.057  0.00  0.00    -0.646 OA
ENDBRANCH   5   9
ENDBRANCH   2   5
BRANCH   3  12
HETATM   12  C           1     -20.352  -3.723  -7.929  0.00  0.00     0.311 C 
HETATM   13  N           1     -21.350  -3.763  -6.864  0.00  0.00     0.097 N 
HETATM   14  H           1     -21.043  -3.216  -6.060  0.00  0.00     0.317 HD
HETATM   15  C           1     -21.446  -5.171  -6.488  0.00  0.00     0.271 C 
HETATM   16  C           1     -20.004  -5.652  -6.516  0.00  0.00     0.033 C 
HETATM   17  C           1     -19.285  -4.697  -7.460  0.00  0.00     0.047 C 
ENDBRANCH   3  12
TORSDOF 5
ENDMDL
MODEL 4
REMARK VINA RESULT:      -5.5      1.248      1.433
REMARK  5 active torsions:
REMARK  status: ('A' for Active; 'I' for Inactive)
REMARK    1  A    between atoms: C_1  and  C_12 
REMARK    2  A    between atoms: C_1  and  C_2 
REMARK    3  A    between atoms: C_1  and  N_6 
REMARK       I    between atoms: N_6  and  C_7 
REMARK    4  A    between atoms: C_7  and  C_8 
REMARK    5  A    between atoms: C_12  and  O_17 
ROOT
HETATM    1  H           1     -34.268  -1.907 -14.219  0.00  0.00     0.163 HD
HETATM    2  N           1     -34.844  -1.240 -13.723  0.00  0.00    -0.343 N 
HETATM    3  C           1     -34.839  -1.217 -12.353  0.00  0.00     0.251 C 
HETATM    4  O           1     -35.527  -0.420 -11.761  0.00  0.00    -0.271 OA
ENDROOT
BRANCH   2   5
HETATM    5  C           1     -35.677  -0.309 -14.460  0.00  0.00     0.209 C 
BRANCH   5   6
HETATM    6  C           1     -35.039   1.074 -14.436  0.00  0.00     0.200 C 
BRANCH   6   7
HETATM    7  O           1     -35.728   1.922 -15.315  0.00  0.00    -0.398 OA
HETATM    8  H           1     -35.270   2.745 -15.315  0.00  0.00     0.209 HD
ENDBRANCH   6   7
ENDBRANCH   5   6
BRANCH   5   9
HETATM    9  C           1     -35.807  -0.776 -15.889  0.00  0.00     0.198 C 
HETATM   10  O           1     -36.823  -0.476 -16.554  0.00  0.00    -0.646 OA
HETATM   11  O           1     -34.900  -1.461 -16.408  0.00  0.00    -0.646 OA
ENDBRANCH   5   9
ENDBRANCH   2   5
BRANCH   3  12
HETATM   12  C           1     -33.972  -2.185 -11.586  0.00  0.00     0.311 C 
HETATM   13  N           1     -34.668  -2.676 -10.400  0.00  0.00     0.097 N 
HETATM   14  H           1     -34.010  -3.102  -9.746  0.00  0.00     0.317 HD
HETATM   15  C           1     -35.589  -3.694 -10.897  0.00  0.00     0.271 C 
HETATM   16  C           1     -34.780  -4.432 -11.951  0.00  0.00     0.033 C 
HETATM   17  C           1     -33.714  -3.440 -12.400  0.00  0.00     0.047 C 
ENDBRANCH   3  12
TORSDOF 5
ENDMDL
MODEL 5
REMARK VINA RESULT:      -5.4     10.199     11.737
REMARK  5 active torsions:
REMARK  status: ('A' for Active; 'I' for Inactive)
REMARK    1  A    between atoms: C_1  and  C_12 
REMARK    2  A    between atoms: C_1  and  C_2 
REMARK    3  A    between atoms: C_1  and  N_6 
REMARK       I    between atoms: N_6  and  C_7 
REMARK    4  A    between atoms: C_7  and  C_8 
REMARK    5  A    between atoms: C_12  and  O_17 
ROOT
HETATM    1  H           1     -27.721  -8.416 -19.291  0.00  0.00     0.163 HD
HETATM    2  N           1     -27.609  -7.420 -19.426  0.00  0.00    -0.343 N 
HETATM    3  C           1     -28.467  -6.546 -18.813  0.00  0.00     0.251 C 
HETATM    4  O           1     -28.333  -5.356 -18.972  0.00  0.00    -0.271 OA
ENDROOT
BRANCH   2   5
HETATM    5  C           1     -26.541  -6.916 -20.267  0.00  0.00     0.209 C 
BRANCH   5   6
HETATM    6  C           1     -25.320  -6.608 -19.410  0.00  0.00     0.200 C 
BRANCH   6   7
HETATM    7  O           1     -24.568  -7.778 -19.231  0.00  0.00    -0.398 OA
HETATM    8  H           1     -24.916  -8.212 -18.470  0.00  0.00     0.209 HD
ENDBRANCH   6   7
ENDBRANCH   5   6
BRANCH   5   9
HETATM    9  C           1     -26.181  -7.958 -21.298  0.00  0.00     0.198 C 
HETATM   10  O           1     -25.076  -7.904 -21.881  0.00  0.00    -0.646 OA
HETATM   11  O           1     -26.985  -8.874 -21.568  0.00  0.00    -0.646 OA
ENDBRANCH   5   9
ENDBRANCH   2   5
BRANCH   3  12
HETATM   12  C           1     -29.578  -7.070 -17.936  0.00  0.00     0.311 C 
HETATM   13  N           1     -29.075  -8.078 -17.008  0.00  0.00     0.097 N 
HETATM   14  H           1     -29.843  -8.622 -16.614  0.00  0.00     0.317 HD
HETATM   15  C           1     -28.419  -7.321 -15.946  0.00  0.00     0.271 C 
HETATM   16  C           1     -29.345  -6.138 -15.719  0.00  0.00     0.033 C 
HETATM   17  C           1     -30.110  -5.976 -17.027  0.00  0.00     0.047 C 
ENDBRANCH   3  12
TORSDOF 5
ENDMDL
MODEL 6
REMARK VINA RESULT:      -5.4      1.644      2.500
REMARK  5 active torsions:
REMARK  status: ('A' for Active; 'I' for Inactive)
REMARK    1  A    between atoms: C_1  and  C_12 
REMARK    2  A    between atoms: C_1  and  C_2 
REMARK    3  A    between atoms: C_1  and  N_6 
REMARK       I    between atoms: N_6  and  C_7 
REMARK    4  A    between atoms: C_7  and  C_8 
REMARK    5  A    between atoms: C_12  and  O_17 
ROOT
HETATM    1  H           1     -36.279  -2.188 -12.857  0.00  0.00     0.163 HD
HETATM    2  N           1     -35.758  -1.667 -12.164  0.00  0.00    -0.343 N 
HETATM    3  C           1     -35.006  -2.331 -11.231  0.00  0.00     0.251 C 
HETATM    4  O           1     -34.384  -1.709 -10.403  0.00  0.00    -0.271 OA
ENDROOT
BRANCH   2   5
HETATM    5  C           1     -35.808  -0.218 -12.156  0.00  0.00     0.209 C 
BRANCH   5   6
HETATM    6  C           1     -36.150   0.288 -13.551  0.00  0.00     0.200 C 
BRANCH   6   7
HETATM    7  O           1     -36.957  -0.655 -14.204  0.00  0.00    -0.398 OA
HETATM    8  H           1     -36.518  -1.486 -14.133  0.00  0.00     0.209 HD
ENDBRANCH   6   7
ENDBRANCH   5   6
BRANCH   5   9
HETATM    9  C           1     -36.864   0.243 -11.181  0.00  0.00     0.198 C 
HETATM   10  O           1     -38.075   0.130 -11.473  0.00  0.00    -0.646 OA
HETATM   11  O           1     -36.530   0.735 -10.083  0.00  0.00    -0.646 OA
ENDBRANCH   5   9
ENDBRANCH   2   5
BRANCH   3  12
HETATM   12  C           1     -34.954  -3.839 -11.240  0.00  0.00     0.311 C 
HETATM   13  N           1     -34.865  -4.348 -12.606  0.00  0.00     0.097 N 
HETATM   14  H           1     -35.103  -5.340 -12.639  0.00  0.00     0.317 HD
HETATM   15  C           1     -33.467  -4.168 -12.987  0.00  0.00     0.271 C 
HETATM   16  C           1     -32.699  -4.551 -11.733  0.00  0.00     0.033 C 
HETATM   17  C           1     -33.678  -4.339 -10.586  0.00  0.00     0.047 C 
ENDBRANCH   3  12
TORSDOF 5
ENDMDL
MODEL 7
REMARK VINA RESULT:      -5.3     13.054     14.571
REMARK  5 active torsions:
REMARK  status: ('A' for Active; 'I' for Inactive)
REMARK    1  A    between atoms: C_1  and  C_12 
REMARK    2  A    between atoms: C_1  and  C_2 
REMARK    3  A    between atoms: C_1  and  N_6 
REMARK       I    between atoms: N_6  and  C_7 
REMARK    4  A    between atoms: C_7  and  C_8 
REMARK    5  A    between atoms: C_12  and  O_17 
ROOT
HETATM    1  H           1     -22.740  -5.489  -9.216  0.00  0.00     0.163 HD
HETATM    2  N           1     -22.057  -4.744  -9.173  0.00  0.00    -0.343 N 
HETATM    3  C           1     -21.681  -4.093 -10.317  0.00  0.00     0.251 C 
HETATM    4  O           1     -20.866  -3.203 -10.265  0.00  0.00    -0.271 OA
ENDROOT
BRANCH   2   5
HETATM    5  C           1     -21.476  -4.365  -7.899  0.00  0.00     0.209 C 
BRANCH   5   6
HETATM    6  C           1     -22.457  -4.679  -6.778  0.00  0.00     0.200 C 
BRANCH   6   7
HETATM    7  O           1     -23.751  -4.307  -7.171  0.00  0.00    -0.398 OA
HETATM    8  H           1     -23.972  -3.531  -6.684  0.00  0.00     0.209 HD
ENDBRANCH   6   7
ENDBRANCH   5   6
BRANCH   5   9
HETATM    9  C           1     -20.199  -5.140  -7.681  0.00  0.00     0.198 C 
HETATM   10  O           1     -20.246  -6.368  -7.451  0.00  0.00    -0.646 OA
HETATM   11  O           1     -19.097  -4.555  -7.730  0.00  0.00    -0.646 OA
ENDBRANCH   5   9
ENDBRANCH   2   5
BRANCH   3  12
HETATM   12  C           1     -22.287  -4.486 -11.642  0.00  0.00     0.311 C 
HETATM   13  N           1     -23.729  -4.678 -11.517  0.00  0.00     0.097 N 
HETATM   14  H           1     -24.095  -5.198 -12.315  0.00  0.00     0.317 HD
HETATM   15  C           1     -24.291  -3.331 -11.513  0.00  0.00     0.271 C 
HETATM   16  C           1     -23.476  -2.595 -12.563  0.00  0.00     0.033 C 
HETATM   17  C           1     -22.160  -3.357 -12.650  0.00  0.00     0.047 C 
ENDBRANCH   3  12
TORSDOF 5
ENDMDL
MODEL 8
REMARK VINA RESULT:      -5.3     25.280     26.459
REMARK  5 active torsions:
REMARK  status: ('A' for Active; 'I' for Inactive)
REMARK    1  A    between atoms: C_1  and  C_12 
REMARK    2  A    between atoms: C_1  and  C_2 
REMARK    3  A    between atoms: C_1  and  N_6 
REMARK       I    between atoms: N_6  and  C_7 
REMARK    4  A    between atoms: C_7  and  C_8 
REMARK    5  A    between atoms: C_12  and  O_17 
ROOT
HETATM    1  H           1     -10.591   6.196 -19.503  0.00  0.00     0.163 HD
HETATM    2  N           1     -11.304   6.742 -19.970  0.00  0.00    -0.343 N 
HETATM    3  C           1     -12.492   6.158 -20.322  0.00  0.00     0.251 C 
HETATM    4  O           1     -13.343   6.810 -20.878  0.00  0.00    -0.271 OA
ENDROOT
BRANCH   2   5
HETATM    5  C           1     -11.069   8.142 -20.266  0.00  0.00     0.209 C 
BRANCH   5   6
HETATM    6  C           1     -11.310   8.975 -19.013  0.00  0.00     0.200 C 
BRANCH   6   7
HETATM    7  O           1     -10.205   8.862 -18.157  0.00  0.00    -0.398 OA
HETATM    8  H           1     -10.417   9.339 -17.373  0.00  0.00     0.209 HD
ENDBRANCH   6   7
ENDBRANCH   5   6
BRANCH   5   9
HETATM    9  C           1      -9.643   8.326 -20.723  0.00  0.00     0.198 C 
HETATM   10  O           1      -9.241   9.456 -21.075  0.00  0.00    -0.646 OA
HETATM   11  O           1      -8.864   7.349 -20.749  0.00  0.00    -0.646 OA
ENDBRANCH   5   9
ENDBRANCH   2   5
BRANCH   3  12
HETATM   12  C           1     -12.737   4.701 -20.013  0.00  0.00     0.311 C 
HETATM   13  N           1     -13.421   4.044 -21.123  0.00  0.00     0.097 N 
HETATM   14  H           1     -13.827   3.157 -20.822  0.00  0.00     0.317 HD
HETATM   15  C           1     -12.380   3.792 -22.114  0.00  0.00     0.271 C 
HETATM   16  C           1     -11.187   3.351 -21.283  0.00  0.00     0.033 C 
HETATM   17  C           1     -11.424   3.945 -19.900  0.00  0.00     0.047 C 
ENDBRANCH   3  12
TORSDOF 5
ENDMDL
MODEL 9
REMARK VINA RESULT:      -4.8      2.212      4.888
REMARK  5 active torsions:
REMARK  status: ('A' for Active; 'I' for Inactive)
REMARK    1  A    between atoms: C_1  and  C_12 
REMARK    2  A    between atoms: C_1  and  C_2 
REMARK    3  A    between atoms: C_1  and  N_6 
REMARK       I    between atoms: N_6  and  C_7 
REMARK    4  A    between atoms: C_7  and  C_8 
REMARK    5  A    between atoms: C_12  and  O_17 
ROOT
HETATM    1  H           1     -35.707  -2.318 -13.546  0.00  0.00     0.163 HD
HETATM    2  N           1     -35.342  -1.849 -12.727  0.00  0.00    -0.343 N 
HETATM    3  C           1     -35.557  -0.507 -12.554  0.00  0.00     0.251 C 
HETATM    4  O           1     -35.122   0.052 -11.576  0.00  0.00    -0.271 OA
ENDROOT
BRANCH   2   5
HETATM    5  C           1     -34.590  -2.596 -11.737  0.00  0.00     0.209 C 
BRANCH   5   6
HETATM    6  C           1     -35.545  -3.436 -10.900  0.00  0.00     0.200 C 
BRANCH   6   7
HETATM    7  O           1     -35.144  -4.780 -10.942  0.00  0.00    -0.398 OA
HETATM    8  H           1     -35.788  -5.241 -11.452  0.00  0.00     0.209 HD
ENDBRANCH   6   7
ENDBRANCH   5   6
BRANCH   5   9
HETATM    9  C           1     -33.604  -3.501 -12.434  0.00  0.00     0.198 C 
HETATM   10  O           1     -32.581  -3.892 -11.831  0.00  0.00    -0.646 OA
HETATM   11  O           1     -33.810  -3.860 -13.613  0.00  0.00    -0.646 OA
ENDBRANCH   5   9
ENDBRANCH   2   5
BRANCH   3  12
HETATM   12  C           1     -36.340   0.270 -13.584  0.00  0.00     0.311 C 
HETATM   13  N           1     -35.508   1.299 -14.201  0.00  0.00     0.097 N 
HETATM   14  H           1     -36.085   1.989 -14.682  0.00  0.00     0.317 HD
HETATM   15  C           1     -34.686   0.586 -15.175  0.00  0.00     0.271 C 
HETATM   16  C           1     -35.645  -0.418 -15.793  0.00  0.00     0.033 C 
HETATM   17  C           1     -36.734  -0.622 -14.748  0.00  0.00     0.047 C 
ENDBRANCH   3  12
TORSDOF 5
ENDMDL
