MODEL 1
REMARK VINA RESULT:      -6.0      0.000      0.000
REMARK  6 active torsions:
REMARK  status: ('A' for Active; 'I' for Inactive)
REMARK    1  A    between atoms: N_4  and  C_6 
REMARK       I    between atoms: N_4  and  C_18 
REMARK    2  A    between atoms: C_6  and  C_7 
REMARK    3  A    between atoms: N_12  and  C_17 
REMARK    4  A    between atoms: C_15  and  C_16 
REMARK    5  A    between atoms: C_16  and  C_17 
REMARK    6  A    between atoms: C_17  and  C_18 
ROOT
HETATM    1  C           1     -34.354  -1.664 -11.867  0.00  0.00     0.284 C 
ENDROOT
BRANCH   1   2
HETATM    2  N           1     -34.902  -1.528 -10.476  0.00  0.00    -0.066 N 
HETATM    3  H           1     -35.875  -1.908 -10.448  0.00  0.00     0.275 HD
HETATM    4  H           1     -34.913  -0.520 -10.203  0.00  0.00     0.275 HD
HETATM    5  H           1     -34.299  -2.063  -9.811  0.00  0.00     0.275 HD
ENDBRANCH   1   2
BRANCH   1   6
HETATM    6  C           1     -34.047  -3.129 -12.149  0.00  0.00     0.155 C 
BRANCH   6   7
HETATM    7  C           1     -34.653  -3.987 -11.066  0.00  0.00     0.175 C 
HETATM    8  O           1     -35.895  -4.102 -10.979  0.00  0.00    -0.648 OA
HETATM    9  O           1     -33.913  -4.584 -10.254  0.00  0.00    -0.648 OA
ENDBRANCH   6   7
ENDBRANCH   1   6
BRANCH   1  10
HETATM   10  C           1     -35.374  -1.162 -12.859  0.00  0.00     0.249 C 
HETATM   11  N           1     -34.965  -0.615 -14.045  0.00  0.00    -0.345 N 
HETATM   12  H           1     -33.977  -0.546 -14.257  0.00  0.00     0.163 HD
HETATM   13  O           1     -36.553  -1.244 -12.607  0.00  0.00    -0.271 OA
BRANCH  11  14
HETATM   14  C           1     -35.944  -0.132 -14.998  0.00  0.00     0.181 C 
HETATM   15  C           1     -35.625   1.310 -15.367  0.00  0.00     0.043 C 
BRANCH  14  16
HETATM   16  C           1     -35.902  -0.991 -16.239  0.00  0.00     0.196 C 
HETATM   17  O           1     -35.107  -1.954 -16.306  0.00  0.00    -0.646 OA
HETATM   18  O           1     -36.662  -0.740 -17.198  0.00  0.00    -0.646 OA
ENDBRANCH  14  16
ENDBRANCH  11  14
ENDBRANCH   1  10
TORSDOF 6
ENDMDL
MODEL 2
REMARK VINA RESULT:      -5.9     11.765     13.946
REMARK  6 active torsions:
REMARK  status: ('A' for Active; 'I' for Inactive)
REMARK    1  A    between atoms: N_4  and  C_6 
REMARK       I    between atoms: N_4  and  C_18 
REMARK    2  A    between atoms: C_6  and  C_7 
REMARK    3  A    between atoms: N_12  and  C_17 
REMARK    4  A    between atoms: C_15  and  C_16 
REMARK    5  A    between atoms: C_16  and  C_17 
REMARK    6  A    between atoms: C_17  and  C_18 
ROOT
HETATM    1  C           1     -23.769  -3.870 -12.507  0.00  0.00     0.284 C 
ENDROOT
BRANCH   1   2
HETATM    2  N           1     -24.984  -3.063 -12.153  0.00  0.00    -0.066 N 
HETATM    3  H           1     -24.925  -2.768 -11.152  0.00  0.00     0.275 HD
HETATM    4  H           1     -25.842  -3.643 -12.295  0.00  0.00     0.275 HD
HETATM    5  H           1     -25.031  -2.217 -12.764  0.00  0.00     0.275 HD
ENDBRANCH   1   2
BRANCH   1   6
HETATM    6  C           1     -22.693  -2.946 -13.063  0.00  0.00     0.155 C 
BRANCH   6   7
HETATM    7  C           1     -23.087  -2.491 -14.446  0.00  0.00     0.175 C 
HETATM    8  O           1     -22.396  -2.821 -15.435  0.00  0.00    -0.648 OA
HETATM    9  O           1     -24.104  -1.782 -14.606  0.00  0.00    -0.648 OA
ENDBRANCH   6   7
ENDBRANCH   1   6
BRANCH   1  10
HETATM   10  C           1     -23.250  -4.565 -11.272  0.00  0.00     0.249 C 
HETATM   11  N           1     -22.216  -4.018 -10.563  0.00  0.00    -0.345 N 
HETATM   12  H           1     -21.797  -3.147 -10.866  0.00  0.00     0.163 HD
HETATM   13  O           1     -23.750  -5.603 -10.909  0.00  0.00    -0.271 OA
BRANCH  11  14
HETATM   14  C           1     -21.718  -4.685  -9.377  0.00  0.00     0.181 C 
HETATM   15  C           1     -20.198  -4.588  -9.341  0.00  0.00     0.043 C 
BRANCH  14  16
HETATM   16  C           1     -22.294  -4.023  -8.149  0.00  0.00     0.196 C 
HETATM   17  O           1     -23.507  -4.156  -7.878  0.00  0.00    -0.646 OA
HETATM   18  O           1     -21.558  -3.341  -7.403  0.00  0.00    -0.646 OA
ENDBRANCH  14  16
ENDBRANCH  11  14
ENDBRANCH   1  10
TORSDOF 6
ENDMDL
MODEL 3
REMARK VINA RESULT:      -5.9     12.788     15.142
REMARK  6 active torsions:
REMARK  status: ('A' for Active; 'I' for Inactive)
REMARK    1  A    between atoms: N_4  and  C_6 
REMARK       I    between atoms: N_4  and  C_18 
REMARK    2  A    between atoms: C_6  and  C_7 
REMARK    3  A    between atoms: N_12  and  C_17 
REMARK    4  A    between atoms: C_15  and  C_16 
REMARK    5  A    between atoms: C_16  and  C_17 
REMARK    6  A    between atoms: C_17  and  C_18 
ROOT
HETATM    1  C           1     -22.010  -3.681 -11.154  0.00  0.00     0.284 C 
ENDROOT
BRANCH   1   2
HETATM    2  N           1     -21.532  -3.701 -12.577  0.00  0.00    -0.066 N 
HETATM    3  H           1     -22.073  -4.416 -13.114  0.00  0.00     0.275 HD
HETATM    4  H           1     -20.516  -3.943 -12.601  0.00  0.00     0.275 HD
HETATM    5  H           1     -21.677  -2.760 -13.005  0.00  0.00     0.275 HD
ENDBRANCH   1   2
BRANCH   1   6
HETATM    6  C           1     -23.355  -4.388 -11.061  0.00  0.00     0.155 C 
BRANCH   6   7
HETATM    7  C           1     -24.466  -3.378 -11.216  0.00  0.00     0.175 C 
HETATM    8  O           1     -25.266  -3.179 -10.276  0.00  0.00    -0.648 OA
HETATM    9  O           1     -24.586  -2.740 -12.284  0.00  0.00    -0.648 OA
ENDBRANCH   6   7
ENDBRANCH   1   6
BRANCH   1  10
HETATM   10  C           1     -21.006  -4.390 -10.278  0.00  0.00     0.249 C 
HETATM   11  N           1     -21.269  -4.577  -8.948  0.00  0.00    -0.345 N 
HETATM   12  H           1     -22.137  -4.240  -8.551  0.00  0.00     0.163 HD
HETATM   13  O           1     -19.969  -4.793 -10.751  0.00  0.00    -0.271 OA
BRANCH  11  14
HETATM   14  C           1     -20.305  -5.258  -8.107  0.00  0.00     0.181 C 
HETATM   15  C           1     -19.307  -4.247  -7.559  0.00  0.00     0.043 C 
BRANCH  14  16
HETATM   16  C           1     -21.024  -5.928  -6.961  0.00  0.00     0.196 C 
HETATM   17  O           1     -20.677  -7.070  -6.588  0.00  0.00    -0.646 OA
HETATM   18  O           1     -21.965  -5.341  -6.386  0.00  0.00    -0.646 OA
ENDBRANCH  14  16
ENDBRANCH  11  14
ENDBRANCH   1  10
TORSDOF 6
ENDMDL
MODEL 4
REMARK VINA RESULT:      -5.6     11.976     14.447
REMARK  6 active torsions:
REMARK  status: ('A' for Active; 'I' for Inactive)
REMARK    1  A    between atoms: N_4  and  C_6 
REMARK       I    between atoms: N_4  and  C_18 
REMARK    2  A    between atoms: C_6  and  C_7 
REMARK    3  A    between atoms: N_12  and  C_17 
REMARK    4  A    between atoms: C_15  and  C_16 
REMARK    5  A    between atoms: C_16  and  C_17 
REMARK    6  A    between atoms: C_17  and  C_18 
ROOT
HETATM    1  C           1     -23.982  -4.748 -10.474  0.00  0.00     0.284 C 
ENDROOT
BRANCH   1   2
HETATM    2  N           1     -24.874  -3.646  -9.984  0.00  0.00    -0.066 N 
HETATM    3  H           1     -24.680  -2.774 -10.526  0.00  0.00     0.275 HD
HETATM    4  H           1     -24.691  -3.473  -8.970  0.00  0.00     0.275 HD
HETATM    5  H           1     -25.873  -3.922 -10.115  0.00  0.00     0.275 HD
ENDBRANCH   1   2
BRANCH   1   6
HETATM    6  C           1     -23.723  -4.565 -11.964  0.00  0.00     0.155 C 
BRANCH   6   7
HETATM    7  C           1     -24.102  -3.162 -12.372  0.00  0.00     0.175 C 
HETATM    8  O           1     -25.276  -2.906 -12.714  0.00  0.00    -0.648 OA
HETATM    9  O           1     -23.241  -2.256 -12.367  0.00  0.00    -0.648 OA
ENDBRANCH   6   7
ENDBRANCH   1   6
BRANCH   1  10
HETATM   10  C           1     -22.673  -4.704  -9.725  0.00  0.00     0.249 C 
HETATM   11  N           1     -22.657  -4.848  -8.365  0.00  0.00    -0.345 N 
HETATM   12  H           1     -23.524  -4.982  -7.859  0.00  0.00     0.163 HD
HETATM   13  O           1     -21.637  -4.545 -10.328  0.00  0.00    -0.271 OA
BRANCH  11  14
HETATM   14  C           1     -21.400  -4.806  -7.645  0.00  0.00     0.181 C 
HETATM   15  C           1     -21.208  -3.423  -7.038  0.00  0.00     0.043 C 
BRANCH  14  16
HETATM   16  C           1     -21.416  -5.841  -6.546  0.00  0.00     0.196 C 
HETATM   17  O           1     -20.748  -6.890  -6.665  0.00  0.00    -0.646 OA
HETATM   18  O           1     -22.099  -5.648  -5.517  0.00  0.00    -0.646 OA
ENDBRANCH  14  16
ENDBRANCH  11  14
ENDBRANCH   1  10
TORSDOF 6
ENDMDL
MODEL 5
REMARK VINA RESULT:      -5.5     12.295     14.546
REMARK  6 active torsions:
REMARK  status: ('A' for Active; 'I' for Inactive)
REMARK    1  A    between atoms: N_4  and  C_6 
REMARK       I    between atoms: N_4  and  C_18 
REMARK    2  A    between atoms: C_6  and  C_7 
REMARK    3  A    between atoms: N_12  and  C_17 
REMARK    4  A    between atoms: C_15  and  C_16 
REMARK    5  A    between atoms: C_16  and  C_17 
REMARK    6  A    between atoms: C_17  and  C_18 
ROOT
HETATM    1  C           1     -22.401  -4.144 -11.671  0.00  0.00     0.284 C 
ENDROOT
BRANCH   1   2
HETATM    2  N           1     -23.473  -5.132 -12.027  0.00  0.00    -0.066 N 
HETATM    3  H           1     -23.083  -5.847 -12.681  0.00  0.00     0.275 HD
HETATM    4  H           1     -24.267  -4.634 -12.489  0.00  0.00     0.275 HD
HETATM    5  H           1     -23.815  -5.602 -11.159  0.00  0.00     0.275 HD
ENDBRANCH   1   2
BRANCH   1   6
HETATM    6  C           1     -22.539  -2.908 -12.551  0.00  0.00     0.155 C 
BRANCH   6   7
HETATM    7  C           1     -23.764  -3.044 -13.421  0.00  0.00     0.175 C 
HETATM    8  O           1     -23.643  -3.327 -14.632  0.00  0.00    -0.648 OA
HETATM    9  O           1     -24.901  -2.874 -12.931  0.00  0.00    -0.648 OA
ENDBRANCH   6   7
ENDBRANCH   1   6
BRANCH   1  10
HETATM   10  C           1     -22.543  -3.750 -10.221  0.00  0.00     0.249 C 
HETATM   11  N           1     -21.666  -4.236  -9.290  0.00  0.00    -0.345 N 
HETATM   12  H           1     -20.922  -4.862  -9.573  0.00  0.00     0.163 HD
HETATM   13  O           1     -23.431  -3.003  -9.883  0.00  0.00    -0.271 OA
BRANCH  11  14
HETATM   14  C           1     -21.802  -3.858  -7.898  0.00  0.00     0.181 C 
HETATM   15  C           1     -22.907  -4.684  -7.253  0.00  0.00     0.043 C 
BRANCH  14  16
HETATM   16  C           1     -20.499  -4.111  -7.180  0.00  0.00     0.196 C 
HETATM   17  O           1     -19.420  -4.075  -7.810  0.00  0.00    -0.646 OA
HETATM   18  O           1     -20.498  -4.356  -5.954  0.00  0.00    -0.646 OA
ENDBRANCH  14  16
ENDBRANCH  11  14
ENDBRANCH   1  10
TORSDOF 6
ENDMDL
MODEL 6
REMARK VINA RESULT:      -5.4     13.079     14.854
REMARK  6 active torsions:
REMARK  status: ('A' for Active; 'I' for Inactive)
REMARK    1  A    between atoms: N_4  and  C_6 
REMARK       I    between atoms: N_4  and  C_18 
REMARK    2  A    between atoms: C_6  and  C_7 
REMARK    3  A    between atoms: N_12  and  C_17 
REMARK    4  A    between atoms: C_15  and  C_16 
REMARK    5  A    between atoms: C_16  and  C_17 
REMARK    6  A    between atoms: C_17  and  C_18 
ROOT
HETATM    1  C           1     -21.134  -5.707  -6.721  0.00  0.00     0.284 C 
ENDROOT
BRANCH   1   2
HETATM    2  N           1     -19.909  -6.280  -7.371  0.00  0.00    -0.066 N 
HETATM    3  H           1     -19.087  -5.671  -7.161  0.00  0.00     0.275 HD
HETATM    4  H           1     -20.052  -6.328  -8.404  0.00  0.00     0.275 HD
HETATM    5  H           1     -19.735  -7.241  -6.998  0.00  0.00     0.275 HD
ENDBRANCH   1   2
BRANCH   1   6
HETATM    6  C           1     -20.786  -5.230  -5.317  0.00  0.00     0.155 C 
BRANCH   6   7
HETATM    7  C           1     -21.164  -6.294  -4.316  0.00  0.00     0.175 C 
HETATM    8  O           1     -22.035  -6.059  -3.451  0.00  0.00    -0.648 OA
HETATM    9  O           1     -20.606  -7.413  -4.352  0.00  0.00    -0.648 OA
ENDBRANCH   6   7
ENDBRANCH   1   6
BRANCH   1  10
HETATM   10  C           1     -21.638  -4.543  -7.539  0.00  0.00     0.249 C 
HETATM   11  N           1     -22.277  -4.767  -8.728  0.00  0.00    -0.345 N 
HETATM   12  H           1     -22.411  -5.714  -9.060  0.00  0.00     0.163 HD
HETATM   13  O           1     -21.478  -3.412  -7.142  0.00  0.00    -0.271 OA
BRANCH  11  14
HETATM   14  C           1     -22.761  -3.649  -9.513  0.00  0.00     0.181 C 
HETATM   15  C           1     -22.073  -3.648 -10.872  0.00  0.00     0.043 C 
BRANCH  14  16
HETATM   16  C           1     -24.253  -3.779  -9.703  0.00  0.00     0.196 C 
HETATM   17  O           1     -24.753  -4.889  -9.985  0.00  0.00    -0.646 OA
HETATM   18  O           1     -24.987  -2.775  -9.579  0.00  0.00    -0.646 OA
ENDBRANCH  14  16
ENDBRANCH  11  14
ENDBRANCH   1  10
TORSDOF 6
ENDMDL
MODEL 7
REMARK VINA RESULT:      -5.2      7.213      8.999
REMARK  6 active torsions:
REMARK  status: ('A' for Active; 'I' for Inactive)
REMARK    1  A    between atoms: N_4  and  C_6 
REMARK       I    between atoms: N_4  and  C_18 
REMARK    2  A    between atoms: C_6  and  C_7 
REMARK    3  A    between atoms: N_12  and  C_17 
REMARK    4  A    between atoms: C_15  and  C_16 
REMARK    5  A    between atoms: C_16  and  C_17 
REMARK    6  A    between atoms: C_17  and  C_18 
ROOT
HETATM    1  C           1     -32.062  -5.930 -17.556  0.00  0.00     0.284 C 
ENDROOT
BRANCH   1   2
HETATM    2  N           1     -33.153  -6.851 -17.094  0.00  0.00    -0.066 N 
HETATM    3  H           1     -32.892  -7.838 -17.317  0.00  0.00     0.275 HD
HETATM    4  H           1     -34.045  -6.608 -17.581  0.00  0.00     0.275 HD
HETATM    5  H           1     -33.281  -6.748 -16.062  0.00  0.00     0.275 HD
ENDBRANCH   1   2
BRANCH   1   6
HETATM    6  C           1     -31.913  -4.784 -16.564  0.00  0.00     0.155 C 
BRANCH   6   7
HETATM    7  C           1     -32.084  -3.469 -17.284  0.00  0.00     0.175 C 
HETATM    8  O           1     -31.089  -2.885 -17.766  0.00  0.00    -0.648 OA
HETATM    9  O           1     -33.221  -2.963 -17.400  0.00  0.00    -0.648 OA
ENDBRANCH   6   7
ENDBRANCH   1   6
BRANCH   1  10
HETATM   10  C           1     -30.764  -6.694 -17.644  0.00  0.00     0.249 C 
HETATM   11  N           1     -29.610  -6.144 -17.156  0.00  0.00    -0.345 N 
HETATM   12  H           1     -29.627  -5.222 -16.736  0.00  0.00     0.163 HD
HETATM   13  O           1     -30.744  -7.794 -18.145  0.00  0.00    -0.271 OA
BRANCH  11  14
HETATM   14  C           1     -28.364  -6.878 -17.240  0.00  0.00     0.181 C 
HETATM   15  C           1     -27.507  -6.297 -18.357  0.00  0.00     0.043 C 
BRANCH  14  16
HETATM   16  C           1     -27.626  -6.766 -15.929  0.00  0.00     0.196 C 
HETATM   17  O           1     -27.893  -7.549 -14.992  0.00  0.00    -0.646 OA
HETATM   18  O           1     -26.747  -5.889 -15.779  0.00  0.00    -0.646 OA
ENDBRANCH  14  16
ENDBRANCH  11  14
ENDBRANCH   1  10
TORSDOF 6
ENDMDL
MODEL 8
REMARK VINA RESULT:      -5.1     12.533     14.594
REMARK  6 active torsions:
REMARK  status: ('A' for Active; 'I' for Inactive)
REMARK    1  A    between atoms: N_4  and  C_6 
REMARK       I    between atoms: N_4  and  C_18 
REMARK    2  A    between atoms: C_6  and  C_7 
REMARK    3  A    between atoms: N_12  and  C_17 
REMARK    4  A    between atoms: C_15  and  C_16 
REMARK    5  A    between atoms: C_16  and  C_17 
REMARK    6  A    between atoms: C_17  and  C_18 
ROOT
HETATM    1  C           1     -22.692  -3.620 -12.591  0.00  0.00     0.284 C 
ENDROOT
BRANCH   1   2
HETATM    2  N           1     -23.472  -4.890 -12.414  0.00  0.00    -0.066 N 
HETATM    3  H           1     -24.475  -4.659 -12.234  0.00  0.00     0.275 HD
HETATM    4  H           1     -23.087  -5.426 -11.604  0.00  0.00     0.275 HD
HETATM    5  H           1     -23.397  -5.468 -13.281  0.00  0.00     0.275 HD
ENDBRANCH   1   2
BRANCH   1   6
HETATM    6  C           1     -23.649  -2.478 -12.908  0.00  0.00     0.155 C 
BRANCH   6   7
HETATM    7  C           1     -23.654  -2.224 -14.395  0.00  0.00     0.175 C 
HETATM    8  O           1     -23.178  -3.075 -15.177  0.00  0.00    -0.648 OA
HETATM    9  O           1     -24.134  -1.161 -14.846  0.00  0.00    -0.648 OA
ENDBRANCH   6   7
ENDBRANCH   1   6
BRANCH   1  10
HETATM   10  C           1     -21.940  -3.311 -11.320  0.00  0.00     0.249 C 
HETATM   11  N           1     -22.148  -4.069 -10.200  0.00  0.00    -0.345 N 
HETATM   12  H           1     -22.808  -4.837 -10.223  0.00  0.00     0.163 HD
HETATM   13  O           1     -21.152  -2.395 -11.292  0.00  0.00    -0.271 OA
BRANCH  11  14
HETATM   14  C           1     -21.425  -3.772  -8.979  0.00  0.00     0.181 C 
HETATM   15  C           1     -22.270  -4.178  -7.778  0.00  0.00     0.043 C 
BRANCH  14  16
HETATM   16  C           1     -20.127  -4.542  -8.965  0.00  0.00     0.196 C 
HETATM   17  O           1     -19.790  -5.217  -9.962  0.00  0.00    -0.646 OA
HETATM   18  O           1     -19.389  -4.503  -7.957  0.00  0.00    -0.646 OA
ENDBRANCH  14  16
ENDBRANCH  11  14
ENDBRANCH   1  10
TORSDOF 6
ENDMDL
MODEL 9
REMARK VINA RESULT:      -5.1     12.455     14.110
REMARK  6 active torsions:
REMARK  status: ('A' for Active; 'I' for Inactive)
REMARK    1  A    between atoms: N_4  and  C_6 
REMARK       I    between atoms: N_4  and  C_18 
REMARK    2  A    between atoms: C_6  and  C_7 
REMARK    3  A    between atoms: N_12  and  C_17 
REMARK    4  A    between atoms: C_15  and  C_16 
REMARK    5  A    between atoms: C_16  and  C_17 
REMARK    6  A    between atoms: C_17  and  C_18 
ROOT
HETATM    1  C           1     -21.663  -4.575  -7.380  0.00  0.00     0.284 C 
ENDROOT
BRANCH   1   2
HETATM    2  N           1     -22.984  -4.484  -6.673  0.00  0.00    -0.066 N 
HETATM    3  H           1     -23.205  -3.482  -6.478  0.00  0.00     0.275 HD
HETATM    4  H           1     -22.934  -5.011  -5.772  0.00  0.00     0.275 HD
HETATM    5  H           1     -23.730  -4.896  -7.276  0.00  0.00     0.275 HD
ENDBRANCH   1   2
BRANCH   1   6
HETATM    6  C           1     -21.174  -6.017  -7.356  0.00  0.00     0.155 C 
BRANCH   6   7
HETATM    7  C           1     -20.562  -6.319  -6.011  0.00  0.00     0.175 C 
HETATM    8  O           1     -19.865  -7.345  -5.856  0.00  0.00    -0.648 OA
HETATM    9  O           1     -20.752  -5.543  -5.049  0.00  0.00    -0.648 OA
ENDBRANCH   6   7
ENDBRANCH   1   6
BRANCH   1  10
HETATM   10  C           1     -21.827  -4.121  -8.810  0.00  0.00     0.249 C 
HETATM   11  N           1     -23.069  -4.104  -9.385  0.00  0.00    -0.345 N 
HETATM   12  H           1     -23.878  -4.397  -8.852  0.00  0.00     0.163 HD
HETATM   13  O           1     -20.862  -3.770  -9.446  0.00  0.00    -0.271 OA
BRANCH  11  14
HETATM   14  C           1     -23.227  -3.667 -10.757  0.00  0.00     0.181 C 
HETATM   15  C           1     -22.894  -4.819 -11.697  0.00  0.00     0.043 C 
BRANCH  14  16
HETATM   16  C           1     -24.653  -3.228 -10.983  0.00  0.00     0.196 C 
HETATM   17  O           1     -25.435  -3.120 -10.014  0.00  0.00    -0.646 OA
HETATM   18  O           1     -25.052  -2.972 -12.140  0.00  0.00    -0.646 OA
ENDBRANCH  14  16
ENDBRANCH  11  14
ENDBRANCH   1  10
TORSDOF 6
ENDMDL
