MODEL 1
REMARK VINA RESULT:      -4.9      0.000      0.000
REMARK  4 active torsions:
REMARK  status: ('A' for Active; 'I' for Inactive)
REMARK    1  A    between atoms: C_8  and  C_10 
REMARK    2  A    between atoms: C_10  and  C_11 
REMARK    3  A    between atoms: C_10  and  N_14 
REMARK       I    between atoms: N_14  and  C_15 
REMARK    4  A    between atoms: C_15  and  C_18 
ROOT
HETATM    1  H           1     -22.346  -8.457  -2.481  0.00  0.00     0.163 HD
HETATM    2  O           1     -19.696 -10.068  -2.007  0.00  0.00    -0.271 OA
HETATM    3  N           1     -21.698  -9.078  -2.013  0.00  0.00    -0.344 N 
HETATM    4  C           1     -20.470  -9.327  -2.566  0.00  0.00     0.249 C 
ENDROOT
BRANCH   4   5
HETATM    5  C           1     -20.084  -8.677  -3.872  0.00  0.00     0.274 C 
HETATM    6  N           1     -18.717  -9.144  -4.276  0.00  0.00    -0.067 N 
HETATM    7  H           1     -18.448  -8.694  -5.181  0.00  0.00     0.275 HD
HETATM    8  H           1     -18.026  -8.878  -3.537  0.00  0.00     0.275 HD
HETATM    9  H           1     -18.722 -10.182  -4.392  0.00  0.00     0.275 HD
HETATM   10 Se           1     -19.321 -11.182  -5.644  0.00  0.00     0.000 Se
HETATM   11  C           1     -21.098 -10.577  -5.119  0.00  0.00     0.003 C 
HETATM   12  C           1     -19.810 -13.066  -5.732  0.00  0.00     0.000 C 
HETATM   13  C           1     -21.089  -9.063  -4.949  0.00  0.00     0.042 C 
ENDBRANCH   4   5
BRANCH   3  14
HETATM   14  C           1     -22.069  -9.702  -0.759  0.00  0.00     0.189 C 
BRANCH  14  15
HETATM   15  C           1     -22.367  -8.625   0.275  0.00  0.00     0.010 C 
HETATM   16  C           1     -21.218  -8.548   1.272  0.00  0.00     0.012 C 
HETATM   17  C           1     -22.525  -7.282  -0.424  0.00  0.00     0.012 C 
ENDBRANCH  14  15
BRANCH  14  18
HETATM   18  C           1     -23.299 -10.554  -0.967  0.00  0.00     0.197 C 
HETATM   19  O           1     -24.133 -10.682  -0.046  0.00  0.00    -0.646 OA
HETATM   20  O           1     -23.481 -11.131  -2.061  0.00  0.00    -0.646 OA
ENDBRANCH  14  18
ENDBRANCH   3  14
TORSDOF 4
ENDMDL
MODEL 2
REMARK VINA RESULT:      -4.7      2.346      3.072
REMARK  4 active torsions:
REMARK  status: ('A' for Active; 'I' for Inactive)
REMARK    1  A    between atoms: C_8  and  C_10 
REMARK    2  A    between atoms: C_10  and  C_11 
REMARK    3  A    between atoms: C_10  and  N_14 
REMARK       I    between atoms: N_14  and  C_15 
REMARK    4  A    between atoms: C_15  and  C_18 
ROOT
HETATM    1  H           1     -19.732  -8.392  -0.921  0.00  0.00     0.163 HD
HETATM    2  O           1     -20.812 -10.777  -2.650  0.00  0.00    -0.271 OA
HETATM    3  N           1     -20.403  -8.945  -1.441  0.00  0.00    -0.344 N 
HETATM    4  C           1     -20.012 -10.118  -2.030  0.00  0.00     0.249 C 
ENDROOT
BRANCH   4   5
HETATM    5  C           1     -18.583 -10.587  -1.903  0.00  0.00     0.274 C 
HETATM    6  N           1     -18.490 -12.023  -2.328  0.00  0.00    -0.067 N 
HETATM    7  H           1     -17.501 -12.349  -2.241  0.00  0.00     0.275 HD
HETATM    8  H           1     -19.104 -12.607  -1.714  0.00  0.00     0.275 HD
HETATM    9  H           1     -18.801 -12.114  -3.321  0.00  0.00     0.275 HD
HETATM   10 Se           1     -18.019 -11.736  -4.794  0.00  0.00     0.000 Se
HETATM   11  C           1     -18.140  -9.870  -4.245  0.00  0.00     0.003 C 
HETATM   12  C           1     -18.663 -11.415  -6.606  0.00  0.00     0.000 C 
HETATM   13  C           1     -17.689  -9.737  -2.796  0.00  0.00     0.042 C 
ENDBRANCH   4   5
BRANCH   3  14
HETATM   14  C           1     -21.775  -8.494  -1.562  0.00  0.00     0.189 C 
BRANCH  14  15
HETATM   15  C           1     -22.457  -8.575  -0.203  0.00  0.00     0.010 C 
HETATM   16  C           1     -23.250  -9.872  -0.111  0.00  0.00     0.012 C 
HETATM   17  C           1     -21.403  -8.543   0.895  0.00  0.00     0.012 C 
ENDBRANCH  14  15
BRANCH  14  18
HETATM   18  C           1     -21.792  -7.065  -2.050  0.00  0.00     0.197 C 
HETATM   19  O           1     -21.073  -6.726  -3.015  0.00  0.00    -0.646 OA
HETATM   20  O           1     -22.525  -6.223  -1.490  0.00  0.00    -0.646 OA
ENDBRANCH  14  18
ENDBRANCH   3  14
TORSDOF 4
ENDMDL
MODEL 3
REMARK VINA RESULT:      -4.7     24.680     26.640
REMARK  4 active torsions:
REMARK  status: ('A' for Active; 'I' for Inactive)
REMARK    1  A    between atoms: C_8  and  C_10 
REMARK    2  A    between atoms: C_10  and  C_11 
REMARK    3  A    between atoms: C_10  and  N_14 
REMARK       I    between atoms: N_14  and  C_15 
REMARK    4  A    between atoms: C_15  and  C_18 
ROOT
HETATM    1  H           1     -11.749   5.794 -19.646  0.00  0.00     0.163 HD
HETATM    2  O           1     -11.922   6.951 -22.557  0.00  0.00    -0.271 OA
HETATM    3  N           1     -12.042   5.859 -20.612  0.00  0.00    -0.344 N 
HETATM    4  C           1     -11.572   6.873 -21.403  0.00  0.00     0.249 C 
ENDROOT
BRANCH   4   5
HETATM    5  C           1     -10.617   7.894 -20.834  0.00  0.00     0.274 C 
HETATM    6  N           1     -10.352   8.956 -21.860  0.00  0.00    -0.067 N 
HETATM    7  H           1      -9.691   9.663 -21.467  0.00  0.00     0.275 HD
HETATM    8  H           1      -9.929   8.519 -22.711  0.00  0.00     0.275 HD
HETATM    9  H           1     -11.250   9.424 -22.118  0.00  0.00     0.275 HD
HETATM   10 Se           1     -12.195  10.593 -21.303  0.00  0.00     0.000 Se
HETATM   11  C           1     -12.541   9.214 -19.969  0.00  0.00     0.003 C 
HETATM   12  C           1     -14.058  11.146 -21.451  0.00  0.00     0.000 C 
HETATM   13  C           1     -11.232   8.530 -19.595  0.00  0.00     0.042 C 
ENDBRANCH   4   5
BRANCH   3  14
HETATM   14  C           1     -12.960   4.879 -21.158  0.00  0.00     0.189 C 
BRANCH  14  15
HETATM   15  C           1     -12.633   3.505 -20.587  0.00  0.00     0.010 C 
HETATM   16  C           1     -13.379   2.438 -21.377  0.00  0.00     0.012 C 
HETATM   17  C           1     -11.134   3.258 -20.688  0.00  0.00     0.012 C 
ENDBRANCH  14  15
BRANCH  14  18
HETATM   18  C           1     -14.375   5.255 -20.789  0.00  0.00     0.197 C 
HETATM   19  O           1     -15.233   5.414 -21.684  0.00  0.00    -0.646 OA
HETATM   20  O           1     -14.687   5.408 -19.588  0.00  0.00    -0.646 OA
ENDBRANCH  14  18
ENDBRANCH   3  14
TORSDOF 4
ENDMDL
MODEL 4
REMARK VINA RESULT:      -4.7      2.664      4.404
REMARK  4 active torsions:
REMARK  status: ('A' for Active; 'I' for Inactive)
REMARK    1  A    between atoms: C_8  and  C_10 
REMARK    2  A    between atoms: C_10  and  C_11 
REMARK    3  A    between atoms: C_10  and  N_14 
REMARK       I    between atoms: N_14  and  C_15 
REMARK    4  A    between atoms: C_15  and  C_18 
ROOT
HETATM    1  H           1     -22.804  -9.473  -2.202  0.00  0.00     0.163 HD
HETATM    2  O           1     -21.129  -9.467   0.450  0.00  0.00    -0.271 OA
HETATM    3  N           1     -22.092  -9.182  -1.544  0.00  0.00    -0.344 N 
HETATM    4  C           1     -21.979  -9.815  -0.335  0.00  0.00     0.249 C 
ENDROOT
BRANCH   4   5
HETATM    5  C           1     -22.915 -10.945   0.016  0.00  0.00     0.274 C 
HETATM    6  N           1     -23.874 -11.169  -1.115  0.00  0.00    -0.067 N 
HETATM    7  H           1     -24.522 -11.952  -0.873  0.00  0.00     0.275 HD
HETATM    8  H           1     -24.427 -10.297  -1.279  0.00  0.00     0.275 HD
HETATM    9  H           1     -23.341 -11.413  -1.981  0.00  0.00     0.275 HD
HETATM   10 Se           1     -22.581 -12.863  -2.475  0.00  0.00     0.000 Se
HETATM   11  C           1     -21.334 -12.573  -1.006  0.00  0.00     0.003 C 
HETATM   12  C           1     -21.197 -13.267  -3.786  0.00  0.00     0.000 C 
HETATM   13  C           1     -22.109 -12.215   0.256  0.00  0.00     0.042 C 
ENDBRANCH   4   5
BRANCH   3  14
HETATM   14  C           1     -21.194  -8.096  -1.882  0.00  0.00     0.189 C 
BRANCH  14  15
HETATM   15  C           1     -20.601  -8.339  -3.263  0.00  0.00     0.010 C 
HETATM   16  C           1     -19.246  -9.020  -3.120  0.00  0.00     0.012 C 
HETATM   17  C           1     -21.537  -9.233  -4.066  0.00  0.00     0.012 C 
ENDBRANCH  14  15
BRANCH  14  18
HETATM   18  C           1     -21.959  -6.794  -1.885  0.00  0.00     0.197 C 
HETATM   19  O           1     -21.848  -6.006  -2.849  0.00  0.00    -0.646 OA
HETATM   20  O           1     -22.702  -6.505  -0.923  0.00  0.00    -0.646 OA
ENDBRANCH  14  18
ENDBRANCH   3  14
TORSDOF 4
ENDMDL
MODEL 5
REMARK VINA RESULT:      -4.6      2.742      4.843
REMARK  4 active torsions:
REMARK  status: ('A' for Active; 'I' for Inactive)
REMARK    1  A    between atoms: C_8  and  C_10 
REMARK    2  A    between atoms: C_10  and  C_11 
REMARK    3  A    between atoms: C_10  and  N_14 
REMARK       I    between atoms: N_14  and  C_15 
REMARK    4  A    between atoms: C_15  and  C_18 
ROOT
HETATM    1  H           1     -21.100  -7.991  -1.033  0.00  0.00     0.163 HD
HETATM    2  O           1     -22.461 -10.505  -2.326  0.00  0.00    -0.271 OA
HETATM    3  N           1     -21.415  -8.613  -1.767  0.00  0.00    -0.344 N 
HETATM    4  C           1     -22.086  -9.763  -1.449  0.00  0.00     0.249 C 
ENDROOT
BRANCH   4   5
HETATM    5  C           1     -22.358 -10.104  -0.005  0.00  0.00     0.274 C 
HETATM    6  N           1     -23.022 -11.447   0.075  0.00  0.00    -0.067 N 
HETATM    7  H           1     -23.210 -11.684   1.075  0.00  0.00     0.275 HD
HETATM    8  H           1     -23.924 -11.420  -0.453  0.00  0.00     0.275 HD
HETATM    9  H           1     -22.395 -12.171  -0.343  0.00  0.00     0.275 HD
HETATM   10 Se           1     -20.994 -12.944   0.260  0.00  0.00     0.000 Se
HETATM   11  C           1     -20.129 -11.200   0.157  0.00  0.00     0.003 C 
HETATM   12  C           1     -19.525 -13.904  -0.589  0.00  0.00     0.000 C 
HETATM   13  C           1     -21.044 -10.143   0.764  0.00  0.00     0.042 C 
ENDBRANCH   4   5
BRANCH   3  14
HETATM   14  C           1     -21.153  -8.285  -3.155  0.00  0.00     0.189 C 
BRANCH  14  15
HETATM   15  C           1     -21.342  -6.789  -3.367  0.00  0.00     0.010 C 
HETATM   16  C           1     -22.170  -6.555  -4.623  0.00  0.00     0.012 C 
HETATM   17  C           1     -22.062  -6.194  -2.165  0.00  0.00     0.012 C 
ENDBRANCH  14  15
BRANCH  14  18
HETATM   18  C           1     -19.735  -8.669  -3.503  0.00  0.00     0.197 C 
HETATM   19  O           1     -19.348  -8.622  -4.691  0.00  0.00    -0.646 OA
HETATM   20  O           1     -18.948  -9.034  -2.603  0.00  0.00    -0.646 OA
ENDBRANCH  14  18
ENDBRANCH   3  14
TORSDOF 4
ENDMDL
MODEL 6
REMARK VINA RESULT:      -4.5      1.440      1.771
REMARK  4 active torsions:
REMARK  status: ('A' for Active; 'I' for Inactive)
REMARK    1  A    between atoms: C_8  and  C_10 
REMARK    2  A    between atoms: C_10  and  C_11 
REMARK    3  A    between atoms: C_10  and  N_14 
REMARK       I    between atoms: N_14  and  C_15 
REMARK    4  A    between atoms: C_15  and  C_18 
ROOT
HETATM    1  H           1     -22.532  -9.681  -2.662  0.00  0.00     0.163 HD
HETATM    2  O           1     -19.576  -8.681  -2.983  0.00  0.00    -0.271 OA
HETATM    3  N           1     -21.618  -9.352  -2.378  0.00  0.00    -0.344 N 
HETATM    4  C           1     -20.667  -9.074  -3.323  0.00  0.00     0.249 C 
ENDROOT
BRANCH   4   5
HETATM    5  C           1     -20.981  -9.259  -4.787  0.00  0.00     0.274 C 
HETATM    6  N           1     -19.840  -8.739  -5.611  0.00  0.00    -0.067 N 
HETATM    7  H           1     -20.057  -8.866  -6.626  0.00  0.00     0.275 HD
HETATM    8  H           1     -19.702  -7.722  -5.410  0.00  0.00     0.275 HD
HETATM    9  H           1     -18.969  -9.264  -5.372  0.00  0.00     0.275 HD
HETATM   10 Se           1     -18.432 -10.829  -5.805  0.00  0.00     0.000 Se
HETATM   11  C           1     -19.913 -11.506  -4.733  0.00  0.00     0.003 C 
HETATM   12  C           1     -17.113 -12.047  -5.047  0.00  0.00     0.000 C 
HETATM   13  C           1     -21.183 -10.740  -5.081  0.00  0.00     0.042 C 
ENDBRANCH   4   5
BRANCH   3  14
HETATM   14  C           1     -21.317  -9.174  -0.971  0.00  0.00     0.189 C 
BRANCH  14  15
HETATM   15  C           1     -22.346  -8.242  -0.346  0.00  0.00     0.010 C 
HETATM   16  C           1     -22.009  -8.028   1.124  0.00  0.00     0.012 C 
HETATM   17  C           1     -22.324  -6.904  -1.073  0.00  0.00     0.012 C 
ENDBRANCH  14  15
BRANCH  14  18
HETATM   18  C           1     -21.362 -10.514  -0.275  0.00  0.00     0.197 C 
HETATM   19  O           1     -20.332 -10.971   0.267  0.00  0.00    -0.646 OA
HETATM   20  O           1     -22.428 -11.165  -0.242  0.00  0.00    -0.646 OA
ENDBRANCH  14  18
ENDBRANCH   3  14
TORSDOF 4
ENDMDL
MODEL 7
REMARK VINA RESULT:      -4.5      2.168      2.711
REMARK  4 active torsions:
REMARK  status: ('A' for Active; 'I' for Inactive)
REMARK    1  A    between atoms: C_8  and  C_10 
REMARK    2  A    between atoms: C_10  and  C_11 
REMARK    3  A    between atoms: C_10  and  N_14 
REMARK       I    between atoms: N_14  and  C_15 
REMARK    4  A    between atoms: C_15  and  C_18 
ROOT
HETATM    1  H           1     -20.107  -9.496  -1.139  0.00  0.00     0.163 HD
HETATM    2  O           1     -21.666  -8.480  -3.665  0.00  0.00    -0.271 OA
HETATM    3  N           1     -20.896  -9.181  -1.689  0.00  0.00    -0.344 N 
HETATM    4  C           1     -20.724  -8.856  -3.008  0.00  0.00     0.249 C 
ENDROOT
BRANCH   4   5
HETATM    5  C           1     -19.359  -8.968  -3.642  0.00  0.00     0.274 C 
HETATM    6  N           1     -18.380  -9.486  -2.630  0.00  0.00    -0.067 N 
HETATM    7  H           1     -17.434  -9.563  -3.067  0.00  0.00     0.275 HD
HETATM    8  H           1     -18.336  -8.825  -1.820  0.00  0.00     0.275 HD
HETATM    9  H           1     -18.688 -10.427  -2.295  0.00  0.00     0.275 HD
HETATM   10 Se           1     -18.598 -11.974  -3.020  0.00  0.00     0.000 Se
HETATM   11  C           1     -19.871 -11.303  -4.335  0.00  0.00     0.003 C 
HETATM   12  C           1     -19.546 -13.649  -2.716  0.00  0.00     0.000 C 
HETATM   13  C           1     -19.423  -9.930  -4.821  0.00  0.00     0.042 C 
ENDBRANCH   4   5
BRANCH   3  14
HETATM   14  C           1     -22.207  -9.074  -1.080  0.00  0.00     0.189 C 
BRANCH  14  15
HETATM   15  C           1     -22.417 -10.236  -0.119  0.00  0.00     0.010 C 
HETATM   16  C           1     -23.789 -10.851  -0.360  0.00  0.00     0.012 C 
HETATM   17  C           1     -21.340 -11.287  -0.353  0.00  0.00     0.012 C 
ENDBRANCH  14  15
BRANCH  14  18
HETATM   18  C           1     -22.304  -7.770  -0.324  0.00  0.00     0.197 C 
HETATM   19  O           1     -22.018  -7.731   0.892  0.00  0.00    -0.646 OA
HETATM   20  O           1     -22.671  -6.732  -0.915  0.00  0.00    -0.646 OA
ENDBRANCH  14  18
ENDBRANCH   3  14
TORSDOF 4
ENDMDL
MODEL 8
REMARK VINA RESULT:      -4.5      2.024      2.552
REMARK  4 active torsions:
REMARK  status: ('A' for Active; 'I' for Inactive)
REMARK    1  A    between atoms: C_8  and  C_10 
REMARK    2  A    between atoms: C_10  and  C_11 
REMARK    3  A    between atoms: C_10  and  N_14 
REMARK       I    between atoms: N_14  and  C_15 
REMARK    4  A    between atoms: C_15  and  C_18 
ROOT
HETATM    1  H           1     -20.301 -10.916  -1.788  0.00  0.00     0.163 HD
HETATM    2  O           1     -20.520  -7.809  -2.161  0.00  0.00    -0.271 OA
HETATM    3  N           1     -20.653  -9.977  -1.645  0.00  0.00    -0.344 N 
HETATM    4  C           1     -20.100  -8.929  -2.332  0.00  0.00     0.249 C 
ENDROOT
BRANCH   4   5
HETATM    5  C           1     -18.968  -9.173  -3.299  0.00  0.00     0.274 C 
HETATM    6  N           1     -18.602 -10.627  -3.282  0.00  0.00    -0.067 N 
HETATM    7  H           1     -17.818 -10.797  -3.952  0.00  0.00     0.275 HD
HETATM    8  H           1     -18.300 -10.898  -2.318  0.00  0.00     0.275 HD
HETATM    9  H           1     -19.430 -11.199  -3.563  0.00  0.00     0.275 HD
HETATM   10 Se           1     -20.135 -11.502  -5.091  0.00  0.00     0.000 Se
HETATM   11  C           1     -20.613  -9.612  -5.114  0.00  0.00     0.003 C 
HETATM   12  C           1     -21.896 -12.121  -5.652  0.00  0.00     0.000 C 
HETATM   13  C           1     -19.406  -8.778  -4.704  0.00  0.00     0.042 C 
ENDBRANCH   4   5
BRANCH   3  14
HETATM   14  C           1     -21.740  -9.744  -0.716  0.00  0.00     0.189 C 
BRANCH  14  15
HETATM   15  C           1     -22.715 -10.912  -0.772  0.00  0.00     0.010 C 
HETATM   16  C           1     -23.981 -10.553  -0.005  0.00  0.00     0.012 C 
HETATM   17  C           1     -23.067 -11.208  -2.223  0.00  0.00     0.012 C 
ENDBRANCH  14  15
BRANCH  14  18
HETATM   18  C           1     -21.185  -9.617   0.683  0.00  0.00     0.197 C 
HETATM   19  O           1     -21.329  -8.550   1.318  0.00  0.00    -0.646 OA
HETATM   20  O           1     -20.583 -10.579   1.206  0.00  0.00    -0.646 OA
ENDBRANCH  14  18
ENDBRANCH   3  14
TORSDOF 4
ENDMDL
MODEL 9
REMARK VINA RESULT:      -4.5     17.138     18.778
REMARK  4 active torsions:
REMARK  status: ('A' for Active; 'I' for Inactive)
REMARK    1  A    between atoms: C_8  and  C_10 
REMARK    2  A    between atoms: C_10  and  C_11 
REMARK    3  A    between atoms: C_10  and  N_14 
REMARK       I    between atoms: N_14  and  C_15 
REMARK    4  A    between atoms: C_15  and  C_18 
ROOT
HETATM    1  H           1     -24.516   9.060  -2.216  0.00  0.00     0.163 HD
HETATM    2  O           1     -26.682   8.110  -0.156  0.00  0.00    -0.271 OA
HETATM    3  N           1     -24.890   8.609  -1.391  0.00  0.00    -0.344 N 
HETATM    4  C           1     -26.236   8.649  -1.141  0.00  0.00     0.249 C 
ENDROOT
BRANCH   4   5
HETATM    5  C           1     -27.160   9.364  -2.095  0.00  0.00     0.274 C 
HETATM    6  N           1     -26.352  10.032  -3.167  0.00  0.00    -0.067 N 
HETATM    7  H           1     -26.991  10.528  -3.828  0.00  0.00     0.275 HD
HETATM    8  H           1     -25.699  10.723  -2.730  0.00  0.00     0.275 HD
HETATM    9  H           1     -25.801   9.313  -3.688  0.00  0.00     0.275 HD
HETATM   10 Se           1     -26.258   8.180  -4.884  0.00  0.00     0.000 Se
HETATM   11  C           1     -27.309   7.310  -3.492  0.00  0.00     0.003 C 
HETATM   12  C           1     -25.457   6.528  -5.538  0.00  0.00     0.000 C 
HETATM   13  C           1     -28.111   8.358  -2.731  0.00  0.00     0.042 C 
ENDBRANCH   4   5
BRANCH   3  14
HETATM   14  C           1     -24.001   7.922  -0.475  0.00  0.00     0.189 C 
BRANCH  14  15
HETATM   15  C           1     -23.138   6.936  -1.249  0.00  0.00     0.010 C 
HETATM   16  C           1     -23.932   5.662  -1.508  0.00  0.00     0.012 C 
HETATM   17  C           1     -22.726   7.557  -2.577  0.00  0.00     0.012 C 
ENDBRANCH  14  15
BRANCH  14  18
HETATM   18  C           1     -23.116   8.931   0.218  0.00  0.00     0.197 C 
HETATM   19  O           1     -22.457   8.596   1.226  0.00  0.00    -0.646 OA
HETATM   20  O           1     -23.044  10.100  -0.217  0.00  0.00    -0.646 OA
ENDBRANCH  14  18
ENDBRANCH   3  14
TORSDOF 4
ENDMDL
