MODEL 1
REMARK VINA RESULT:      -8.0      0.000      0.000
REMARK  10 active torsions:
REMARK  status: ('A' for Active; 'I' for Inactive)
REMARK    1  A    between atoms: N_7  and  C_20 
REMARK    2  A    between atoms: O_12  and  P_13 
REMARK    3  A    between atoms: P_13  and  O_14 
REMARK    4  A    between atoms: O_14  and  C_15 
REMARK    5  A    between atoms: C_18  and  C_19 
REMARK    6  A    between atoms: C_19  and  C_20 
REMARK    7  A    between atoms: C_20  and  C_21 
REMARK       I    between atoms: C_21  and  N_22 
REMARK    8  A    between atoms: N_22  and  C_26 
REMARK    9  A    between atoms: C_25  and  C_26 
REMARK   10  A    between atoms: C_26  and  C_28 
ROOT
HETATM    1  C           1     -21.039  -4.991  -6.286  0.00  0.00     0.278 C 
ENDROOT
BRANCH   1   2
HETATM    2  N           1     -19.752  -4.532  -5.667  0.00  0.00    -0.066 N 
HETATM    3  H           1     -19.908  -4.318  -4.657  0.00  0.00     0.275 HD
HETATM    4  H           1     -19.418  -3.672  -6.159  0.00  0.00     0.275 HD
HETATM    5  H           1     -19.034  -5.285  -5.758  0.00  0.00     0.275 HD
ENDBRANCH   1   2
BRANCH   1   6
HETATM    6  C           1     -20.746  -5.681  -7.612  0.00  0.00     0.081 C 
BRANCH   6   7
HETATM    7  C           1     -21.296  -4.858  -8.736  0.00  0.00    -0.056 A 
HETATM    8  C           1     -20.484  -4.534  -9.823  0.00  0.00     0.010 A 
HETATM    9  C           1     -20.997  -3.767 -10.870  0.00  0.00     0.038 A 
HETATM   10  C           1     -22.319  -3.326 -10.829  0.00  0.00     0.081 A 
HETATM   11  C           1     -23.130  -3.650  -9.742  0.00  0.00     0.038 A 
HETATM   12  C           1     -22.618  -4.417  -8.695  0.00  0.00     0.010 A 
BRANCH  10  13
HETATM   13  O           1     -22.816  -2.581 -11.846  0.00  0.00    -0.247 OA
BRANCH  13  14
HETATM   14  P           1     -23.854  -3.285 -12.864  0.00  0.00     0.411 P 
HETATM   15  O           1     -23.566  -2.843 -14.247  0.00  0.00    -0.624 OA
HETATM   16  O           1     -25.237  -2.903 -12.502  0.00  0.00    -0.624 OA
BRANCH  14  17
HETATM   17  O           1     -23.697  -4.890 -12.769  0.00  0.00    -0.300 OA
HETATM   18  H           1     -23.536  -5.172 -13.654  0.00  0.00     0.223 HD
ENDBRANCH  14  17
ENDBRANCH  13  14
ENDBRANCH  10  13
ENDBRANCH   6   7
ENDBRANCH   1   6
BRANCH   1  19
HETATM   19  C           1     -21.726  -5.960  -5.355  0.00  0.00     0.249 C 
HETATM   20  O           1     -22.932  -5.992  -5.300  0.00  0.00    -0.271 OA
HETATM   21  N           1     -20.982  -6.801  -4.573  0.00  0.00    -0.344 N 
HETATM   22  H           1     -19.972  -6.774  -4.619  0.00  0.00     0.163 HD
BRANCH  21  23
HETATM   23  C           1     -21.642  -7.732  -3.678  0.00  0.00     0.189 C 
BRANCH  23  24
HETATM   24  C           1     -21.456  -7.276  -2.252  0.00  0.00     0.197 C 
HETATM   25  O           1     -20.421  -7.591  -1.625  0.00  0.00    -0.646 OA
HETATM   26  O           1     -22.337  -6.584  -1.697  0.00  0.00    -0.646 OA
ENDBRANCH  23  24
BRANCH  23  27
HETATM   27  C           1     -21.035  -9.118  -3.850  0.00  0.00     0.010 C 
HETATM   28  C           1     -21.945 -10.154  -3.203  0.00  0.00     0.012 C 
HETATM   29  C           1     -20.891  -9.429  -5.334  0.00  0.00     0.012 C 
ENDBRANCH  23  27
ENDBRANCH  21  23
ENDBRANCH   1  19
TORSDOF 10
ENDMDL
MODEL 2
REMARK VINA RESULT:      -7.8      1.685      2.245
REMARK  10 active torsions:
REMARK  status: ('A' for Active; 'I' for Inactive)
REMARK    1  A    between atoms: N_7  and  C_20 
REMARK    2  A    between atoms: O_12  and  P_13 
REMARK    3  A    between atoms: P_13  and  O_14 
REMARK    4  A    between atoms: O_14  and  C_15 
REMARK    5  A    between atoms: C_18  and  C_19 
REMARK    6  A    between atoms: C_19  and  C_20 
REMARK    7  A    between atoms: C_20  and  C_21 
REMARK       I    between atoms: C_21  and  N_22 
REMARK    8  A    between atoms: N_22  and  C_26 
REMARK    9  A    between atoms: C_25  and  C_26 
REMARK   10  A    between atoms: C_26  and  C_28 
ROOT
HETATM    1  C           1     -21.125  -5.373  -7.079  0.00  0.00     0.278 C 
ENDROOT
BRANCH   1   2
HETATM    2  N           1     -20.886  -4.042  -6.430  0.00  0.00    -0.066 N 
HETATM    3  H           1     -20.221  -3.484  -7.012  0.00  0.00     0.275 HD
HETATM    4  H           1     -20.480  -4.188  -5.478  0.00  0.00     0.275 HD
HETATM    5  H           1     -21.791  -3.527  -6.346  0.00  0.00     0.275 HD
ENDBRANCH   1   2
BRANCH   1   6
HETATM    6  C           1     -20.407  -5.418  -8.422  0.00  0.00     0.081 C 
BRANCH   6   7
HETATM    7  C           1     -21.144  -4.568  -9.411  0.00  0.00    -0.056 A 
HETATM    8  C           1     -20.446  -3.920 -10.429  0.00  0.00     0.010 A 
HETATM    9  C           1     -21.133  -3.128 -11.350  0.00  0.00     0.038 A 
HETATM   10  C           1     -22.517  -2.987 -11.253  0.00  0.00     0.081 A 
HETATM   11  C           1     -23.215  -3.635 -10.234  0.00  0.00     0.038 A 
HETATM   12  C           1     -22.527  -4.426  -9.313  0.00  0.00     0.010 A 
BRANCH  10  13
HETATM   13  O           1     -23.184  -2.218 -12.147  0.00  0.00    -0.247 OA
BRANCH  13  14
HETATM   14  P           1     -23.476  -2.838 -13.610  0.00  0.00     0.411 P 
HETATM   15  O           1     -24.084  -1.801 -14.473  0.00  0.00    -0.624 OA
HETATM   16  O           1     -24.405  -3.983 -13.484  0.00  0.00    -0.624 OA
BRANCH  14  17
HETATM   17  O           1     -22.089  -3.341 -14.269  0.00  0.00    -0.300 OA
HETATM   18  H           1     -22.170  -4.279 -14.320  0.00  0.00     0.223 HD
ENDBRANCH  14  17
ENDBRANCH  13  14
ENDBRANCH  10  13
ENDBRANCH   6   7
ENDBRANCH   1   6
BRANCH   1  19
HETATM   19  C           1     -20.594  -6.469  -6.187  0.00  0.00     0.249 C 
HETATM   20  O           1     -19.510  -6.954  -6.408  0.00  0.00    -0.271 OA
HETATM   21  N           1     -21.341  -6.912  -5.130  0.00  0.00    -0.344 N 
HETATM   22  H           1     -22.248  -6.506  -4.945  0.00  0.00     0.163 HD
BRANCH  21  23
HETATM   23  C           1     -20.831  -7.966  -4.273  0.00  0.00     0.189 C 
BRANCH  23  24
HETATM   24  C           1     -21.350  -9.299  -4.752  0.00  0.00     0.197 C 
HETATM   25  O           1     -22.139  -9.955  -4.038  0.00  0.00    -0.646 OA
HETATM   26  O           1     -20.989  -9.748  -5.862  0.00  0.00    -0.646 OA
ENDBRANCH  23  24
BRANCH  23  27
HETATM   27  C           1     -21.294  -7.725  -2.842  0.00  0.00     0.010 C 
HETATM   28  C           1     -20.162  -8.058  -1.880  0.00  0.00     0.012 C 
HETATM   29  C           1     -21.688  -6.263  -2.674  0.00  0.00     0.012 C 
ENDBRANCH  23  27
ENDBRANCH  21  23
ENDBRANCH   1  19
TORSDOF 10
ENDMDL
MODEL 3
REMARK VINA RESULT:      -7.6      3.546      9.151
REMARK  10 active torsions:
REMARK  status: ('A' for Active; 'I' for Inactive)
REMARK    1  A    between atoms: N_7  and  C_20 
REMARK    2  A    between atoms: O_12  and  P_13 
REMARK    3  A    between atoms: P_13  and  O_14 
REMARK    4  A    between atoms: O_14  and  C_15 
REMARK    5  A    between atoms: C_18  and  C_19 
REMARK    6  A    between atoms: C_19  and  C_20 
REMARK    7  A    between atoms: C_20  and  C_21 
REMARK       I    between atoms: C_21  and  N_22 
REMARK    8  A    between atoms: N_22  and  C_26 
REMARK    9  A    between atoms: C_25  and  C_26 
REMARK   10  A    between atoms: C_26  and  C_28 
ROOT
HETATM    1  C           1     -21.145  -5.448  -6.445  0.00  0.00     0.278 C 
ENDROOT
BRANCH   1   2
HETATM    2  N           1     -20.121  -4.832  -5.538  0.00  0.00    -0.066 N 
HETATM    3  H           1     -20.601  -4.254  -4.813  0.00  0.00     0.275 HD
HETATM    4  H           1     -19.480  -4.227  -6.099  0.00  0.00     0.275 HD
HETATM    5  H           1     -19.568  -5.586  -5.072  0.00  0.00     0.275 HD
ENDBRANCH   1   2
BRANCH   1   6
HETATM    6  C           1     -22.321  -5.947  -5.616  0.00  0.00     0.081 C 
BRANCH   6   7
HETATM    7  C           1     -21.810  -6.708  -4.431  0.00  0.00    -0.056 A 
HETATM    8  C           1     -21.194  -7.946  -4.610  0.00  0.00     0.010 A 
HETATM    9  C           1     -20.718  -8.654  -3.506  0.00  0.00     0.038 A 
HETATM   10  C           1     -20.858  -8.122  -2.224  0.00  0.00     0.081 A 
HETATM   11  C           1     -21.474  -6.884  -2.045  0.00  0.00     0.038 A 
HETATM   12  C           1     -21.950  -6.176  -3.149  0.00  0.00     0.010 A 
BRANCH  10  13
HETATM   13  O           1     -20.396  -8.810  -1.152  0.00  0.00    -0.247 OA
BRANCH  13  14
HETATM   14  P           1     -21.472  -9.344  -0.072  0.00  0.00     0.411 P 
HETATM   15  O           1     -20.933 -10.539   0.614  0.00  0.00    -0.624 OA
HETATM   16  O           1     -22.731  -9.697  -0.764  0.00  0.00    -0.624 OA
BRANCH  14  17
HETATM   17  O           1     -21.764  -8.185   1.016  0.00  0.00    -0.300 OA
HETATM   18  H           1     -20.918  -7.819   1.215  0.00  0.00     0.223 HD
ENDBRANCH  14  17
ENDBRANCH  13  14
ENDBRANCH  10  13
ENDBRANCH   6   7
ENDBRANCH   1   6
BRANCH   1  19
HETATM   19  C           1     -21.628  -4.415  -7.433  0.00  0.00     0.249 C 
HETATM   20  O           1     -21.575  -3.241  -7.153  0.00  0.00    -0.271 OA
HETATM   21  N           1     -22.125  -4.808  -8.646  0.00  0.00    -0.344 N 
HETATM   22  H           1     -22.170  -5.791  -8.880  0.00  0.00     0.163 HD
BRANCH  21  23
HETATM   23  C           1     -22.590  -3.815  -9.595  0.00  0.00     0.189 C 
BRANCH  23  24
HETATM   24  C           1     -24.091  -3.906  -9.722  0.00  0.00     0.197 C 
HETATM   25  O           1     -24.805  -2.931  -9.399  0.00  0.00    -0.646 OA
HETATM   26  O           1     -24.621  -4.955 -10.149  0.00  0.00    -0.646 OA
ENDBRANCH  23  24
BRANCH  23  27
HETATM   27  C           1     -21.950  -4.072 -10.953  0.00  0.00     0.010 C 
HETATM   28  C           1     -22.299  -2.934 -11.902  0.00  0.00     0.012 C 
HETATM   29  C           1     -20.437  -4.152 -10.794  0.00  0.00     0.012 C 
ENDBRANCH  23  27
ENDBRANCH  21  23
ENDBRANCH   1  19
TORSDOF 10
ENDMDL
MODEL 4
REMARK VINA RESULT:      -7.5      3.541      9.119
REMARK  10 active torsions:
REMARK  status: ('A' for Active; 'I' for Inactive)
REMARK    1  A    between atoms: N_7  and  C_20 
REMARK    2  A    between atoms: O_12  and  P_13 
REMARK    3  A    between atoms: P_13  and  O_14 
REMARK    4  A    between atoms: O_14  and  C_15 
REMARK    5  A    between atoms: C_18  and  C_19 
REMARK    6  A    between atoms: C_19  and  C_20 
REMARK    7  A    between atoms: C_20  and  C_21 
REMARK       I    between atoms: C_21  and  N_22 
REMARK    8  A    between atoms: N_22  and  C_26 
REMARK    9  A    between atoms: C_25  and  C_26 
REMARK   10  A    between atoms: C_26  and  C_28 
ROOT
HETATM    1  C           1     -21.124  -5.494  -6.553  0.00  0.00     0.278 C 
ENDROOT
BRANCH   1   2
HETATM    2  N           1     -20.004  -4.929  -5.729  0.00  0.00    -0.066 N 
HETATM    3  H           1     -20.036  -5.340  -4.769  0.00  0.00     0.275 HD
HETATM    4  H           1     -20.106  -3.891  -5.670  0.00  0.00     0.275 HD
HETATM    5  H           1     -19.089  -5.164  -6.178  0.00  0.00     0.275 HD
ENDBRANCH   1   2
BRANCH   1   6
HETATM    6  C           1     -22.268  -5.906  -5.636  0.00  0.00     0.081 C 
BRANCH   6   7
HETATM    7  C           1     -21.741  -6.782  -4.542  0.00  0.00    -0.056 A 
HETATM    8  C           1     -21.714  -6.317  -3.227  0.00  0.00     0.010 A 
HETATM    9  C           1     -21.223  -7.134  -2.209  0.00  0.00     0.038 A 
HETATM   10  C           1     -20.760  -8.415  -2.505  0.00  0.00     0.081 A 
HETATM   11  C           1     -20.787  -8.881  -3.819  0.00  0.00     0.038 A 
HETATM   12  C           1     -21.278  -8.064  -4.838  0.00  0.00     0.010 A 
BRANCH  10  13
HETATM   13  O           1     -20.283  -9.209  -1.515  0.00  0.00    -0.247 OA
BRANCH  13  14
HETATM   14  P           1     -21.332  -9.776  -0.426  0.00  0.00     0.411 P 
HETATM   15  O           1     -22.670  -9.900  -1.047  0.00  0.00    -0.624 OA
HETATM   16  O           1     -21.405  -8.845   0.721  0.00  0.00    -0.624 OA
BRANCH  14  17
HETATM   17  O           1     -20.843 -11.227   0.090  0.00  0.00    -0.300 OA
HETATM   18  H           1     -20.606 -11.097   0.993  0.00  0.00     0.223 HD
ENDBRANCH  14  17
ENDBRANCH  13  14
ENDBRANCH  10  13
ENDBRANCH   6   7
ENDBRANCH   1   6
BRANCH   1  19
HETATM   19  C           1     -21.610  -4.446  -7.524  0.00  0.00     0.249 C 
HETATM   20  O           1     -21.557  -3.277  -7.227  0.00  0.00    -0.271 OA
HETATM   21  N           1     -22.110  -4.822  -8.742  0.00  0.00    -0.344 N 
HETATM   22  H           1     -22.155  -5.801  -8.990  0.00  0.00     0.163 HD
BRANCH  21  23
HETATM   23  C           1     -22.578  -3.816  -9.676  0.00  0.00     0.189 C 
BRANCH  23  24
HETATM   24  C           1     -24.083  -3.868  -9.758  0.00  0.00     0.197 C 
HETATM   25  O           1     -24.654  -4.930 -10.089  0.00  0.00    -0.646 OA
HETATM   26  O           1     -24.760  -2.849  -9.499  0.00  0.00    -0.646 OA
ENDBRANCH  23  24
BRANCH  23  27
HETATM   27  C           1     -21.984  -4.086 -11.052  0.00  0.00     0.010 C 
HETATM   28  C           1     -22.352  -2.948 -11.994  0.00  0.00     0.012 C 
HETATM   29  C           1     -20.468  -4.182 -10.941  0.00  0.00     0.012 C 
ENDBRANCH  23  27
ENDBRANCH  21  23
ENDBRANCH   1  19
TORSDOF 10
ENDMDL
MODEL 5
REMARK VINA RESULT:      -7.2      3.552      8.920
REMARK  10 active torsions:
REMARK  status: ('A' for Active; 'I' for Inactive)
REMARK    1  A    between atoms: N_7  and  C_20 
REMARK    2  A    between atoms: O_12  and  P_13 
REMARK    3  A    between atoms: P_13  and  O_14 
REMARK    4  A    between atoms: O_14  and  C_15 
REMARK    5  A    between atoms: C_18  and  C_19 
REMARK    6  A    between atoms: C_19  and  C_20 
REMARK    7  A    between atoms: C_20  and  C_21 
REMARK       I    between atoms: C_21  and  N_22 
REMARK    8  A    between atoms: N_22  and  C_26 
REMARK    9  A    between atoms: C_25  and  C_26 
REMARK   10  A    between atoms: C_26  and  C_28 
ROOT
HETATM    1  C           1     -21.029  -5.441  -6.707  0.00  0.00     0.278 C 
ENDROOT
BRANCH   1   2
HETATM    2  N           1     -19.800  -4.913  -6.027  0.00  0.00    -0.066 N 
HETATM    3  H           1     -19.348  -4.194  -6.636  0.00  0.00     0.275 HD
HETATM    4  H           1     -19.132  -5.698  -5.858  0.00  0.00     0.275 HD
HETATM    5  H           1     -20.066  -4.480  -5.114  0.00  0.00     0.275 HD
ENDBRANCH   1   2
BRANCH   1   6
HETATM    6  C           1     -22.072  -5.804  -5.657  0.00  0.00     0.081 C 
BRANCH   6   7
HETATM    7  C           1     -21.557  -6.926  -4.809  0.00  0.00    -0.056 A 
HETATM    8  C           1     -21.374  -6.737  -3.439  0.00  0.00     0.010 A 
HETATM    9  C           1     -20.895  -7.783  -2.649  0.00  0.00     0.038 A 
HETATM   10  C           1     -20.600  -9.016  -3.229  0.00  0.00     0.081 A 
HETATM   11  C           1     -20.784  -9.205  -4.599  0.00  0.00     0.038 A 
HETATM   12  C           1     -21.262  -8.159  -5.389  0.00  0.00     0.010 A 
BRANCH  10  13
HETATM   13  O           1     -20.135 -10.032  -2.462  0.00  0.00    -0.247 OA
BRANCH  13  14
HETATM   14  P           1     -18.586 -10.457  -2.626  0.00  0.00     0.411 P 
HETATM   15  O           1     -18.142 -11.182  -1.415  0.00  0.00    -0.624 OA
HETATM   16  O           1     -17.758  -9.244  -2.807  0.00  0.00    -0.624 OA
BRANCH  14  17
HETATM   17  O           1     -18.424 -11.415  -3.917  0.00  0.00    -0.300 OA
HETATM   18  H           1     -17.505 -11.390  -4.126  0.00  0.00     0.223 HD
ENDBRANCH  14  17
ENDBRANCH  13  14
ENDBRANCH  10  13
ENDBRANCH   6   7
ENDBRANCH   1   6
BRANCH   1  19
HETATM   19  C           1     -21.588  -4.384  -7.627  0.00  0.00     0.249 C 
HETATM   20  O           1     -21.587  -3.226  -7.286  0.00  0.00    -0.271 OA
HETATM   21  N           1     -22.096  -4.739  -8.848  0.00  0.00    -0.344 N 
HETATM   22  H           1     -22.097  -5.709  -9.132  0.00  0.00     0.163 HD
BRANCH  21  23
HETATM   23  C           1     -22.634  -3.724  -9.732  0.00  0.00     0.189 C 
BRANCH  23  24
HETATM   24  C           1     -24.138  -3.835  -9.770  0.00  0.00     0.197 C 
HETATM   25  O           1     -24.845  -2.839  -9.502  0.00  0.00    -0.646 OA
HETATM   26  O           1     -24.677  -4.923 -10.066  0.00  0.00    -0.646 OA
ENDBRANCH  23  24
BRANCH  23  27
HETATM   27  C           1     -22.075  -3.924 -11.135  0.00  0.00     0.010 C 
HETATM   28  C           1     -22.521  -2.774 -12.027  0.00  0.00     0.012 C 
HETATM   29  C           1     -20.553  -3.959 -11.075  0.00  0.00     0.012 C 
ENDBRANCH  23  27
ENDBRANCH  21  23
ENDBRANCH   1  19
TORSDOF 10
ENDMDL
MODEL 6
REMARK VINA RESULT:      -7.1      1.709      2.246
REMARK  10 active torsions:
REMARK  status: ('A' for Active; 'I' for Inactive)
REMARK    1  A    between atoms: N_7  and  C_20 
REMARK    2  A    between atoms: O_12  and  P_13 
REMARK    3  A    between atoms: P_13  and  O_14 
REMARK    4  A    between atoms: O_14  and  C_15 
REMARK    5  A    between atoms: C_18  and  C_19 
REMARK    6  A    between atoms: C_19  and  C_20 
REMARK    7  A    between atoms: C_20  and  C_21 
REMARK       I    between atoms: C_21  and  N_22 
REMARK    8  A    between atoms: N_22  and  C_26 
REMARK    9  A    between atoms: C_25  and  C_26 
REMARK   10  A    between atoms: C_26  and  C_28 
ROOT
HETATM    1  C           1     -20.909  -5.400  -6.317  0.00  0.00     0.278 C 
ENDROOT
BRANCH   1   2
HETATM    2  N           1     -20.211  -4.204  -5.740  0.00  0.00    -0.066 N 
HETATM    3  H           1     -19.867  -3.594  -6.515  0.00  0.00     0.275 HD
HETATM    4  H           1     -19.401  -4.521  -5.160  0.00  0.00     0.275 HD
HETATM    5  H           1     -20.877  -3.666  -5.142  0.00  0.00     0.275 HD
ENDBRANCH   1   2
BRANCH   1   6
HETATM    6  C           1     -20.286  -5.750  -7.662  0.00  0.00     0.081 C 
BRANCH   6   7
HETATM    7  C           1     -20.921  -4.924  -8.738  0.00  0.00    -0.056 A 
HETATM    8  C           1     -20.195  -4.592  -9.882  0.00  0.00     0.010 A 
HETATM    9  C           1     -20.788  -3.823 -10.884  0.00  0.00     0.038 A 
HETATM   10  C           1     -22.104  -3.386 -10.741  0.00  0.00     0.081 A 
HETATM   11  C           1     -22.830  -3.717  -9.596  0.00  0.00     0.038 A 
HETATM   12  C           1     -22.237  -4.487  -8.595  0.00  0.00     0.010 A 
BRANCH  10  13
HETATM   13  O           1     -22.679  -2.638 -11.714  0.00  0.00    -0.247 OA
BRANCH  13  14
HETATM   14  P           1     -23.840  -3.319 -12.607  0.00  0.00     0.411 P 
HETATM   15  O           1     -23.790  -2.774 -13.981  0.00  0.00    -0.624 OA
HETATM   16  O           1     -25.161  -3.026 -12.007  0.00  0.00    -0.624 OA
BRANCH  14  17
HETATM   17  O           1     -23.615  -4.919 -12.653  0.00  0.00    -0.300 OA
HETATM   18  H           1     -23.216  -5.085 -13.491  0.00  0.00     0.223 HD
ENDBRANCH  14  17
ENDBRANCH  13  14
ENDBRANCH  10  13
ENDBRANCH   6   7
ENDBRANCH   1   6
BRANCH   1  19
HETATM   19  C           1     -20.764  -6.570  -5.375  0.00  0.00     0.249 C 
HETATM   20  O           1     -21.197  -6.496  -4.250  0.00  0.00    -0.271 OA
HETATM   21  N           1     -20.140  -7.713  -5.796  0.00  0.00    -0.344 N 
HETATM   22  H           1     -19.777  -7.774  -6.738  0.00  0.00     0.163 HD
BRANCH  21  23
HETATM   23  C           1     -20.000  -8.838  -4.891  0.00  0.00     0.189 C 
BRANCH  23  24
HETATM   24  C           1     -18.713  -9.567  -5.192  0.00  0.00     0.197 C 
HETATM   25  O           1     -18.145  -9.403  -6.293  0.00  0.00    -0.646 OA
HETATM   26  O           1     -18.217 -10.336  -4.340  0.00  0.00    -0.646 OA
ENDBRANCH  23  24
BRANCH  23  27
HETATM   27  C           1     -21.176  -9.787  -5.074  0.00  0.00     0.010 C 
HETATM   28  C           1     -20.741 -10.976  -5.920  0.00  0.00     0.012 C 
HETATM   29  C           1     -21.649 -10.280  -3.713  0.00  0.00     0.012 C 
ENDBRANCH  23  27
ENDBRANCH  21  23
ENDBRANCH   1  19
TORSDOF 10
ENDMDL
MODEL 7
REMARK VINA RESULT:      -7.1      2.734      3.971
REMARK  10 active torsions:
REMARK  status: ('A' for Active; 'I' for Inactive)
REMARK    1  A    between atoms: N_7  and  C_20 
REMARK    2  A    between atoms: O_12  and  P_13 
REMARK    3  A    between atoms: P_13  and  O_14 
REMARK    4  A    between atoms: O_14  and  C_15 
REMARK    5  A    between atoms: C_18  and  C_19 
REMARK    6  A    between atoms: C_19  and  C_20 
REMARK    7  A    between atoms: C_20  and  C_21 
REMARK       I    between atoms: C_21  and  N_22 
REMARK    8  A    between atoms: N_22  and  C_26 
REMARK    9  A    between atoms: C_25  and  C_26 
REMARK   10  A    between atoms: C_26  and  C_28 
ROOT
HETATM    1  C           1     -20.405  -7.733  -4.631  0.00  0.00     0.278 C 
ENDROOT
BRANCH   1   2
HETATM    2  N           1     -20.971  -8.663  -5.663  0.00  0.00    -0.066 N 
HETATM    3  H           1     -21.970  -8.416  -5.844  0.00  0.00     0.275 HD
HETATM    4  H           1     -20.911  -9.646  -5.314  0.00  0.00     0.275 HD
HETATM    5  H           1     -20.424  -8.574  -6.549  0.00  0.00     0.275 HD
ENDBRANCH   1   2
BRANCH   1   6
HETATM    6  C           1     -21.309  -6.513  -4.499  0.00  0.00     0.081 C 
BRANCH   6   7
HETATM    7  C           1     -21.183  -5.664  -5.726  0.00  0.00    -0.056 A 
HETATM    8  C           1     -19.924  -5.262  -6.171  0.00  0.00     0.010 A 
HETATM    9  C           1     -19.808  -4.472  -7.314  0.00  0.00     0.038 A 
HETATM   10  C           1     -20.951  -4.084  -8.012  0.00  0.00     0.081 A 
HETATM   11  C           1     -22.210  -4.485  -7.568  0.00  0.00     0.038 A 
HETATM   12  C           1     -22.326  -5.276  -6.424  0.00  0.00     0.010 A 
BRANCH  10  13
HETATM   13  O           1     -20.838  -3.315  -9.123  0.00  0.00    -0.247 OA
BRANCH  13  14
HETATM   14  P           1     -20.776  -4.059 -10.556  0.00  0.00     0.411 P 
HETATM   15  O           1     -22.105  -4.628 -10.874  0.00  0.00    -0.624 OA
HETATM   16  O           1     -19.772  -5.144 -10.506  0.00  0.00    -0.624 OA
BRANCH  14  17
HETATM   17  O           1     -20.360  -2.995 -11.698  0.00  0.00    -0.300 OA
HETATM   18  H           1     -20.062  -2.235 -11.226  0.00  0.00     0.223 HD
ENDBRANCH  14  17
ENDBRANCH  13  14
ENDBRANCH  10  13
ENDBRANCH   6   7
ENDBRANCH   1   6
BRANCH   1  19
HETATM   19  C           1     -20.326  -8.445  -3.302  0.00  0.00     0.249 C 
HETATM   20  O           1     -19.288  -8.955  -2.953  0.00  0.00    -0.271 OA
HETATM   21  N           1     -21.429  -8.513  -2.496  0.00  0.00    -0.344 N 
HETATM   22  H           1     -22.298  -8.087  -2.789  0.00  0.00     0.163 HD
BRANCH  21  23
HETATM   23  C           1     -21.354  -9.198  -1.219  0.00  0.00     0.189 C 
BRANCH  23  24
HETATM   24  C           1     -21.912 -10.593  -1.364  0.00  0.00     0.197 C 
HETATM   25  O           1     -23.099 -10.756  -1.721  0.00  0.00    -0.646 OA
HETATM   26  O           1     -21.188 -11.584  -1.124  0.00  0.00    -0.646 OA
ENDBRANCH  23  24
BRANCH  23  27
HETATM   27  C           1     -22.164  -8.431  -0.183  0.00  0.00     0.010 C 
HETATM   28  C           1     -21.392  -8.383   1.129  0.00  0.00     0.012 C 
HETATM   29  C           1     -22.410  -7.012  -0.678  0.00  0.00     0.012 C 
ENDBRANCH  23  27
ENDBRANCH  21  23
ENDBRANCH   1  19
TORSDOF 10
ENDMDL
MODEL 8
REMARK VINA RESULT:      -6.8      3.447      8.695
REMARK  10 active torsions:
REMARK  status: ('A' for Active; 'I' for Inactive)
REMARK    1  A    between atoms: N_7  and  C_20 
REMARK    2  A    between atoms: O_12  and  P_13 
REMARK    3  A    between atoms: P_13  and  O_14 
REMARK    4  A    between atoms: O_14  and  C_15 
REMARK    5  A    between atoms: C_18  and  C_19 
REMARK    6  A    between atoms: C_19  and  C_20 
REMARK    7  A    between atoms: C_20  and  C_21 
REMARK       I    between atoms: C_21  and  N_22 
REMARK    8  A    between atoms: N_22  and  C_26 
REMARK    9  A    between atoms: C_25  and  C_26 
REMARK   10  A    between atoms: C_26  and  C_28 
ROOT
HETATM    1  C           1     -20.388  -5.004  -7.087  0.00  0.00     0.278 C 
ENDROOT
BRANCH   1   2
HETATM    2  N           1     -18.979  -4.708  -7.511  0.00  0.00    -0.066 N 
HETATM    3  H           1     -18.987  -4.000  -8.279  0.00  0.00     0.275 HD
HETATM    4  H           1     -18.527  -5.587  -7.851  0.00  0.00     0.275 HD
HETATM    5  H           1     -18.442  -4.333  -6.697  0.00  0.00     0.275 HD
ENDBRANCH   1   2
BRANCH   1   6
HETATM    6  C           1     -20.526  -4.768  -5.589  0.00  0.00     0.081 C 
BRANCH   6   7
HETATM    7  C           1     -20.867  -6.059  -4.910  0.00  0.00    -0.056 A 
HETATM    8  C           1     -20.789  -7.260  -5.616  0.00  0.00     0.010 A 
HETATM    9  C           1     -21.107  -8.462  -4.982  0.00  0.00     0.038 A 
HETATM   10  C           1     -21.501  -8.462  -3.645  0.00  0.00     0.081 A 
HETATM   11  C           1     -21.579  -7.262  -2.939  0.00  0.00     0.038 A 
HETATM   12  C           1     -21.262  -6.060  -3.573  0.00  0.00     0.010 A 
BRANCH  10  13
HETATM   13  O           1     -21.810  -9.630  -3.030  0.00  0.00    -0.247 OA
BRANCH  13  14
HETATM   14  P           1     -20.607 -10.475  -2.361  0.00  0.00     0.411 P 
HETATM   15  O           1     -19.406  -9.619  -2.247  0.00  0.00    -0.624 OA
HETATM   16  O           1     -20.299 -11.649  -3.208  0.00  0.00    -0.624 OA
BRANCH  14  17
HETATM   17  O           1     -21.053 -10.976  -0.891  0.00  0.00    -0.300 OA
HETATM   18  H           1     -20.247 -11.182  -0.449  0.00  0.00     0.223 HD
ENDBRANCH  14  17
ENDBRANCH  13  14
ENDBRANCH  10  13
ENDBRANCH   6   7
ENDBRANCH   1   6
BRANCH   1  19
HETATM   19  C           1     -21.336  -4.094  -7.829  0.00  0.00     0.249 C 
HETATM   20  O           1     -21.683  -3.049  -7.332  0.00  0.00    -0.271 OA
HETATM   21  N           1     -21.803  -4.453  -9.065  0.00  0.00    -0.344 N 
HETATM   22  H           1     -21.513  -5.328  -9.480  0.00  0.00     0.163 HD
BRANCH  21  23
HETATM   23  C           1     -22.715  -3.579  -9.778  0.00  0.00     0.189 C 
BRANCH  23  24
HETATM   24  C           1     -23.973  -4.338 -10.120  0.00  0.00     0.197 C 
HETATM   25  O           1     -23.899  -5.505 -10.562  0.00  0.00    -0.646 OA
HETATM   26  O           1     -25.090  -3.799  -9.963  0.00  0.00    -0.646 OA
ENDBRANCH  23  24
BRANCH  23  27
HETATM   27  C           1     -22.052  -3.091 -11.059  0.00  0.00     0.010 C 
HETATM   28  C           1     -21.148  -4.185 -11.611  0.00  0.00     0.012 C 
HETATM   29  C           1     -23.123  -2.752 -12.088  0.00  0.00     0.012 C 
ENDBRANCH  23  27
ENDBRANCH  21  23
ENDBRANCH   1  19
TORSDOF 10
ENDMDL
MODEL 9
REMARK VINA RESULT:      -6.6      1.634      2.473
REMARK  10 active torsions:
REMARK  status: ('A' for Active; 'I' for Inactive)
REMARK    1  A    between atoms: N_7  and  C_20 
REMARK    2  A    between atoms: O_12  and  P_13 
REMARK    3  A    between atoms: P_13  and  O_14 
REMARK    4  A    between atoms: O_14  and  C_15 
REMARK    5  A    between atoms: C_18  and  C_19 
REMARK    6  A    between atoms: C_19  and  C_20 
REMARK    7  A    between atoms: C_20  and  C_21 
REMARK       I    between atoms: C_21  and  N_22 
REMARK    8  A    between atoms: N_22  and  C_26 
REMARK    9  A    between atoms: C_25  and  C_26 
REMARK   10  A    between atoms: C_26  and  C_28 
ROOT
HETATM    1  C           1     -20.991  -5.892  -5.242  0.00  0.00     0.278 C 
ENDROOT
BRANCH   1   2
HETATM    2  N           1     -20.208  -4.715  -4.740  0.00  0.00    -0.066 N 
HETATM    3  H           1     -20.867  -3.975  -4.408  0.00  0.00     0.275 HD
HETATM    4  H           1     -19.617  -4.335  -5.514  0.00  0.00     0.275 HD
HETATM    5  H           1     -19.595  -5.015  -3.949  0.00  0.00     0.275 HD
ENDBRANCH   1   2
BRANCH   1   6
HETATM    6  C           1     -20.434  -6.332  -6.590  0.00  0.00     0.081 C 
BRANCH   6   7
HETATM    7  C           1     -20.974  -5.443  -7.668  0.00  0.00    -0.056 A 
HETATM    8  C           1     -22.246  -4.885  -7.539  0.00  0.00     0.010 A 
HETATM    9  C           1     -22.748  -4.056  -8.543  0.00  0.00     0.038 A 
HETATM   10  C           1     -21.978  -3.786  -9.673  0.00  0.00     0.081 A 
HETATM   11  C           1     -20.706  -4.344  -9.802  0.00  0.00     0.038 A 
HETATM   12  C           1     -20.204  -5.172  -8.798  0.00  0.00     0.010 A 
BRANCH  10  13
HETATM   13  O           1     -22.466  -2.981 -10.648  0.00  0.00    -0.247 OA
BRANCH  13  14
HETATM   14  P           1     -23.712  -3.519 -11.523  0.00  0.00     0.411 P 
HETATM   15  O           1     -23.570  -4.976 -11.740  0.00  0.00    -0.624 OA
HETATM   16  O           1     -23.735  -2.825 -12.829  0.00  0.00    -0.624 OA
BRANCH  14  17
HETATM   17  O           1     -25.091  -3.225 -10.734  0.00  0.00    -0.300 OA
HETATM   18  H           1     -25.771  -3.547 -11.302  0.00  0.00     0.223 HD
ENDBRANCH  14  17
ENDBRANCH  13  14
ENDBRANCH  10  13
ENDBRANCH   6   7
ENDBRANCH   1   6
BRANCH   1  19
HETATM   19  C           1     -20.876  -7.029  -4.255  0.00  0.00     0.249 C 
HETATM   20  O           1     -21.268  -6.886  -3.122  0.00  0.00    -0.271 OA
HETATM   21  N           1     -20.329  -8.221  -4.646  0.00  0.00    -0.344 N 
HETATM   22  H           1     -20.000  -8.340  -5.595  0.00  0.00     0.163 HD
BRANCH  21  23
HETATM   23  C           1     -20.218  -9.313  -3.699  0.00  0.00     0.189 C 
BRANCH  23  24
HETATM   24  C           1     -18.764  -9.663  -3.502  0.00  0.00     0.197 C 
HETATM   25  O           1     -17.916  -9.305  -4.348  0.00  0.00    -0.646 OA
HETATM   26  O           1     -18.407 -10.312  -2.495  0.00  0.00    -0.646 OA
ENDBRANCH  23  24
BRANCH  23  27
HETATM   27  C           1     -20.965 -10.528  -4.235  0.00  0.00     0.010 C 
HETATM   28  C           1     -22.399 -10.508  -3.724  0.00  0.00     0.012 C 
HETATM   29  C           1     -20.969 -10.490  -5.758  0.00  0.00     0.012 C 
ENDBRANCH  23  27
ENDBRANCH  21  23
ENDBRANCH   1  19
TORSDOF 10
ENDMDL
