MODEL 1
REMARK VINA RESULT:      -6.5      0.000      0.000
REMARK  8 active torsions:
REMARK  status: ('A' for Active; 'I' for Inactive)
REMARK    1  A    between atoms: C_3  and  C_9 
REMARK    2  A    between atoms: C_3  and  C_16 
REMARK    3  A    between atoms: N_4  and  C_9 
REMARK    4  A    between atoms: C_9  and  C_19 
REMARK    5  A    between atoms: Se_10  and  C_20 
REMARK    6  A    between atoms: N_12  and  C_13 
REMARK       I    between atoms: N_12  and  C_19 
REMARK    7  A    between atoms: C_13  and  C_20 
REMARK    8  A    between atoms: C_13  and  C_14 
ROOT
HETATM    1  C           1     -35.934  -0.556 -11.140  0.00  0.00     0.278 C 
ENDROOT
BRANCH   1   2
HETATM    2  C           1     -36.371  -1.962 -10.752  0.00  0.00     0.081 C 
BRANCH   2   3
HETATM    3  C           1     -35.239  -2.916 -10.971  0.00  0.00    -0.056 A 
HETATM    4  C           1     -33.958  -2.430 -11.230  0.00  0.00     0.007 A 
HETATM    5  C           1     -32.903  -3.319 -11.435  0.00  0.00     0.001 A 
HETATM    6  C           1     -33.129  -4.694 -11.380  0.00  0.00     0.000 A 
HETATM    7  C           1     -34.410  -5.180 -11.121  0.00  0.00     0.001 A 
HETATM    8  C           1     -35.466  -4.292 -10.917  0.00  0.00     0.007 A 
ENDBRANCH   2   3
ENDBRANCH   1   2
BRANCH   1   9
HETATM    9  N           1     -36.491   0.430 -10.156  0.00  0.00    -0.066 N 
HETATM   10  H           1     -35.851   1.253 -10.087  0.00  0.00     0.275 HD
HETATM   11  H           1     -37.433   0.747 -10.478  0.00  0.00     0.275 HD
HETATM   12  H           1     -36.577  -0.025  -9.219  0.00  0.00     0.275 HD
ENDBRANCH   1   9
BRANCH   1  13
HETATM   13  C           1     -36.448  -0.231 -12.522  0.00  0.00     0.249 C 
HETATM   14  O           1     -37.631  -0.291 -12.756  0.00  0.00    -0.271 OA
HETATM   15  N           1     -35.572   0.131 -13.511  0.00  0.00    -0.345 N 
HETATM   16  H           1     -34.580   0.181 -13.314  0.00  0.00     0.163 HD
BRANCH  15  17
HETATM   17  C           1     -36.066   0.443 -14.837  0.00  0.00     0.185 C 
BRANCH  17  18
HETATM   18  C           1     -35.303   1.636 -15.396  0.00  0.00     0.039 C 
BRANCH  18  19
HETATM   19 Se           1     -36.514   2.755 -16.435  0.00  0.00     0.000 Se
HETATM   20  H           1     -37.454   1.662 -16.732  0.00  0.00     0.000 HD
ENDBRANCH  18  19
ENDBRANCH  17  18
BRANCH  17  21
HETATM   21  C           1     -35.866  -0.750 -15.740  0.00  0.00     0.196 C 
HETATM   22  O           1     -36.412  -0.781 -16.864  0.00  0.00    -0.646 OA
HETATM   23  O           1     -35.156  -1.707 -15.364  0.00  0.00    -0.646 OA
ENDBRANCH  17  21
ENDBRANCH  15  17
ENDBRANCH   1  13
TORSDOF 8
ENDMDL
MODEL 2
REMARK VINA RESULT:      -6.5     13.657     15.402
REMARK  8 active torsions:
REMARK  status: ('A' for Active; 'I' for Inactive)
REMARK    1  A    between atoms: C_3  and  C_9 
REMARK    2  A    between atoms: C_3  and  C_16 
REMARK    3  A    between atoms: N_4  and  C_9 
REMARK    4  A    between atoms: C_9  and  C_19 
REMARK    5  A    between atoms: Se_10  and  C_20 
REMARK    6  A    between atoms: N_12  and  C_13 
REMARK       I    between atoms: N_12  and  C_19 
REMARK    7  A    between atoms: C_13  and  C_20 
REMARK    8  A    between atoms: C_13  and  C_14 
ROOT
HETATM    1  C           1     -21.076  -5.722  -6.876  0.00  0.00     0.278 C 
ENDROOT
BRANCH   1   2
HETATM    2  C           1     -20.886  -5.222  -5.450  0.00  0.00     0.081 C 
BRANCH   2   3
HETATM    3  C           1     -21.152  -6.337  -4.489  0.00  0.00    -0.056 A 
HETATM    4  C           1     -21.294  -6.067  -3.128  0.00  0.00     0.007 A 
HETATM    5  C           1     -21.541  -7.107  -2.232  0.00  0.00     0.001 A 
HETATM    6  C           1     -21.647  -8.417  -2.697  0.00  0.00     0.000 A 
HETATM    7  C           1     -21.504  -8.688  -4.057  0.00  0.00     0.001 A 
HETATM    8  C           1     -21.257  -7.648  -4.954  0.00  0.00     0.007 A 
ENDBRANCH   2   3
ENDBRANCH   1   2
BRANCH   1   9
HETATM    9  N           1     -19.752  -6.157  -7.432  0.00  0.00    -0.066 N 
HETATM   10  H           1     -19.378  -5.414  -8.064  0.00  0.00     0.275 HD
HETATM   11  H           1     -19.081  -6.316  -6.647  0.00  0.00     0.275 HD
HETATM   12  H           1     -19.875  -7.044  -7.971  0.00  0.00     0.275 HD
ENDBRANCH   1   9
BRANCH   1  13
HETATM   13  C           1     -21.639  -4.612  -7.729  0.00  0.00     0.249 C 
HETATM   14  O           1     -21.647  -3.477  -7.316  0.00  0.00    -0.271 OA
HETATM   15  N           1     -22.142  -4.891  -8.972  0.00  0.00    -0.345 N 
HETATM   16  H           1     -22.136  -5.843  -9.318  0.00  0.00     0.163 HD
BRANCH  15  17
HETATM   17  C           1     -22.682  -3.825  -9.791  0.00  0.00     0.185 C 
BRANCH  17  18
HETATM   18  C           1     -22.222  -4.008 -11.231  0.00  0.00     0.039 C 
BRANCH  18  19
HETATM   19 Se           1     -23.096  -2.686 -12.367  0.00  0.00     0.000 Se
HETATM   20  H           1     -23.597  -1.881 -11.241  0.00  0.00     0.000 HD
ENDBRANCH  18  19
ENDBRANCH  17  18
BRANCH  17  21
HETATM   21  C           1     -24.190  -3.864  -9.736  0.00  0.00     0.196 C 
HETATM   22  O           1     -24.797  -4.928  -9.979  0.00  0.00    -0.646 OA
HETATM   23  O           1     -24.831  -2.830  -9.447  0.00  0.00    -0.646 OA
ENDBRANCH  17  21
ENDBRANCH  15  17
ENDBRANCH   1  13
TORSDOF 8
ENDMDL
MODEL 3
REMARK VINA RESULT:      -6.4     14.987     17.161
REMARK  8 active torsions:
REMARK  status: ('A' for Active; 'I' for Inactive)
REMARK    1  A    between atoms: C_3  and  C_9 
REMARK    2  A    between atoms: C_3  and  C_16 
REMARK    3  A    between atoms: N_4  and  C_9 
REMARK    4  A    between atoms: C_9  and  C_19 
REMARK    5  A    between atoms: Se_10  and  C_20 
REMARK    6  A    between atoms: N_12  and  C_13 
REMARK       I    between atoms: N_12  and  C_19 
REMARK    7  A    between atoms: C_13  and  C_20 
REMARK    8  A    between atoms: C_13  and  C_14 
ROOT
HETATM    1  C           1     -22.271  -5.135  -6.907  0.00  0.00     0.278 C 
ENDROOT
BRANCH   1   2
HETATM    2  C           1     -21.696  -3.832  -7.447  0.00  0.00     0.081 C 
BRANCH   2   3
HETATM    3  C           1     -21.634  -3.894  -8.940  0.00  0.00    -0.056 A 
HETATM    4  C           1     -20.423  -4.162  -9.578  0.00  0.00     0.007 A 
HETATM    5  C           1     -20.366  -4.219 -10.970  0.00  0.00     0.001 A 
HETATM    6  C           1     -21.518  -4.008 -11.725  0.00  0.00     0.000 A 
HETATM    7  C           1     -22.730  -3.739 -11.088  0.00  0.00     0.001 A 
HETATM    8  C           1     -22.788  -3.682  -9.696  0.00  0.00     0.007 A 
ENDBRANCH   2   3
ENDBRANCH   1   2
BRANCH   1   9
HETATM    9  N           1     -23.644  -4.885  -6.356  0.00  0.00    -0.066 N 
HETATM   10  H           1     -23.888  -3.875  -6.475  0.00  0.00     0.275 HD
HETATM   11  H           1     -24.337  -5.473  -6.872  0.00  0.00     0.275 HD
HETATM   12  H           1     -23.662  -5.131  -5.341  0.00  0.00     0.275 HD
ENDBRANCH   1   9
BRANCH   1  13
HETATM   13  C           1     -21.379  -5.663  -5.810  0.00  0.00     0.249 C 
HETATM   14  O           1     -20.544  -4.947  -5.312  0.00  0.00    -0.271 OA
HETATM   15  N           1     -21.515  -6.957  -5.379  0.00  0.00    -0.345 N 
HETATM   16  H           1     -22.215  -7.558  -5.797  0.00  0.00     0.163 HD
BRANCH  15  17
HETATM   17  C           1     -20.659  -7.464  -4.326  0.00  0.00     0.185 C 
BRANCH  17  18
HETATM   18  C           1     -21.510  -7.877  -3.133  0.00  0.00     0.039 C 
BRANCH  18  19
HETATM   19 Se           1     -22.007  -6.294  -2.109  0.00  0.00     0.000 Se
HETATM   20  H           1     -22.071  -7.005  -0.822  0.00  0.00     0.000 HD
ENDBRANCH  18  19
ENDBRANCH  17  18
BRANCH  17  21
HETATM   21  C           1     -19.892  -8.660  -4.835  0.00  0.00     0.196 C 
HETATM   22  O           1     -18.764  -8.924  -4.366  0.00  0.00    -0.646 OA
HETATM   23  O           1     -20.384  -9.385  -5.726  0.00  0.00    -0.646 OA
ENDBRANCH  17  21
ENDBRANCH  15  17
ENDBRANCH   1  13
TORSDOF 8
ENDMDL
MODEL 4
REMARK VINA RESULT:      -6.3     15.230     17.395
REMARK  8 active torsions:
REMARK  status: ('A' for Active; 'I' for Inactive)
REMARK    1  A    between atoms: C_3  and  C_9 
REMARK    2  A    between atoms: C_3  and  C_16 
REMARK    3  A    between atoms: N_4  and  C_9 
REMARK    4  A    between atoms: C_9  and  C_19 
REMARK    5  A    between atoms: Se_10  and  C_20 
REMARK    6  A    between atoms: N_12  and  C_13 
REMARK       I    between atoms: N_12  and  C_19 
REMARK    7  A    between atoms: C_13  and  C_20 
REMARK    8  A    between atoms: C_13  and  C_14 
ROOT
HETATM    1  C           1     -20.868  -4.851  -6.585  0.00  0.00     0.278 C 
ENDROOT
BRANCH   1   2
HETATM    2  C           1     -20.604  -5.590  -7.891  0.00  0.00     0.081 C 
BRANCH   2   3
HETATM    3  C           1     -21.098  -4.767  -9.039  0.00  0.00    -0.056 A 
HETATM    4  C           1     -20.237  -4.444 -10.088  0.00  0.00     0.007 A 
HETATM    5  C           1     -20.697  -3.677 -11.157  0.00  0.00     0.001 A 
HETATM    6  C           1     -22.017  -3.232 -11.179  0.00  0.00     0.000 A 
HETATM    7  C           1     -22.879  -3.553 -10.131  0.00  0.00     0.001 A 
HETATM    8  C           1     -22.420  -4.321  -9.060  0.00  0.00     0.007 A 
ENDBRANCH   2   3
ENDBRANCH   1   2
BRANCH   1   9
HETATM    9  N           1     -19.561  -4.483  -5.947  0.00  0.00    -0.066 N 
HETATM   10  H           1     -18.895  -4.152  -6.682  0.00  0.00     0.275 HD
HETATM   11  H           1     -19.717  -3.720  -5.251  0.00  0.00     0.275 HD
HETATM   12  H           1     -19.161  -5.320  -5.466  0.00  0.00     0.275 HD
ENDBRANCH   1   9
BRANCH   1  13
HETATM   13  C           1     -21.650  -5.742  -5.651  0.00  0.00     0.249 C 
HETATM   14  O           1     -22.857  -5.700  -5.645  0.00  0.00    -0.271 OA
HETATM   15  N           1     -20.990  -6.598  -4.810  0.00  0.00    -0.345 N 
HETATM   16  H           1     -19.978  -6.633  -4.815  0.00  0.00     0.163 HD
BRANCH  15  17
HETATM   17  C           1     -21.741  -7.454  -3.913  0.00  0.00     0.185 C 
BRANCH  17  18
HETATM   18  C           1     -21.161  -8.862  -3.950  0.00  0.00     0.039 C 
BRANCH  18  19
HETATM   19 Se           1     -19.429  -8.829  -4.843  0.00  0.00     0.000 Se
HETATM   20  H           1     -18.853  -9.902  -4.016  0.00  0.00     0.000 HD
ENDBRANCH  18  19
ENDBRANCH  17  18
BRANCH  17  21
HETATM   21  C           1     -21.653  -6.910  -2.508  0.00  0.00     0.196 C 
HETATM   22  O           1     -22.344  -5.924  -2.175  0.00  0.00    -0.646 OA
HETATM   23  O           1     -20.886  -7.446  -1.678  0.00  0.00    -0.646 OA
ENDBRANCH  17  21
ENDBRANCH  15  17
ENDBRANCH   1  13
TORSDOF 8
ENDMDL
MODEL 5
REMARK VINA RESULT:      -6.2     15.255     17.462
REMARK  8 active torsions:
REMARK  status: ('A' for Active; 'I' for Inactive)
REMARK    1  A    between atoms: C_3  and  C_9 
REMARK    2  A    between atoms: C_3  and  C_16 
REMARK    3  A    between atoms: N_4  and  C_9 
REMARK    4  A    between atoms: C_9  and  C_19 
REMARK    5  A    between atoms: Se_10  and  C_20 
REMARK    6  A    between atoms: N_12  and  C_13 
REMARK       I    between atoms: N_12  and  C_19 
REMARK    7  A    between atoms: C_13  and  C_20 
REMARK    8  A    between atoms: C_13  and  C_14 
ROOT
HETATM    1  C           1     -20.853  -4.858  -6.525  0.00  0.00     0.278 C 
ENDROOT
BRANCH   1   2
HETATM    2  C           1     -20.567  -5.563  -7.845  0.00  0.00     0.081 C 
BRANCH   2   3
HETATM    3  C           1     -21.103  -4.743  -8.976  0.00  0.00    -0.056 A 
HETATM    4  C           1     -22.431  -4.319  -8.961  0.00  0.00     0.007 A 
HETATM    5  C           1     -22.931  -3.556 -10.016  0.00  0.00     0.001 A 
HETATM    6  C           1     -22.104  -3.217 -11.085  0.00  0.00     0.000 A 
HETATM    7  C           1     -20.775  -3.642 -11.101  0.00  0.00     0.001 A 
HETATM    8  C           1     -20.275  -4.405 -10.047  0.00  0.00     0.007 A 
ENDBRANCH   2   3
ENDBRANCH   1   2
BRANCH   1   9
HETATM    9  N           1     -19.560  -4.428  -5.898  0.00  0.00    -0.066 N 
HETATM   10  H           1     -19.209  -3.569  -6.377  0.00  0.00     0.275 HD
HETATM   11  H           1     -19.718  -4.222  -4.885  0.00  0.00     0.275 HD
HETATM   12  H           1     -18.856  -5.194  -5.992  0.00  0.00     0.275 HD
ENDBRANCH   1   9
BRANCH   1  13
HETATM   13  C           1     -21.573  -5.804  -5.595  0.00  0.00     0.249 C 
HETATM   14  O           1     -22.781  -5.840  -5.585  0.00  0.00    -0.271 OA
HETATM   15  N           1     -20.858  -6.622  -4.761  0.00  0.00    -0.345 N 
HETATM   16  H           1     -19.846  -6.591  -4.769  0.00  0.00     0.163 HD
BRANCH  15  17
HETATM   17  C           1     -21.549  -7.530  -3.868  0.00  0.00     0.185 C 
BRANCH  17  18
HETATM   18  C           1     -20.795  -8.851  -3.804  0.00  0.00     0.039 C 
BRANCH  18  19
HETATM   19 Se           1     -22.044 -10.295  -3.412  0.00  0.00     0.000 Se
HETATM   20  H           1     -20.999 -11.239  -2.985  0.00  0.00     0.000 HD
ENDBRANCH  18  19
ENDBRANCH  17  18
BRANCH  17  21
HETATM   21  C           1     -21.618  -6.923  -2.489  0.00  0.00     0.196 C 
HETATM   22  O           1     -20.885  -7.359  -1.576  0.00  0.00    -0.646 OA
HETATM   23  O           1     -22.409  -5.982  -2.259  0.00  0.00    -0.646 OA
ENDBRANCH  17  21
ENDBRANCH  15  17
ENDBRANCH   1  13
TORSDOF 8
ENDMDL
MODEL 6
REMARK VINA RESULT:      -5.9      3.439      5.698
REMARK  8 active torsions:
REMARK  status: ('A' for Active; 'I' for Inactive)
REMARK    1  A    between atoms: C_3  and  C_9 
REMARK    2  A    between atoms: C_3  and  C_16 
REMARK    3  A    between atoms: N_4  and  C_9 
REMARK    4  A    between atoms: C_9  and  C_19 
REMARK    5  A    between atoms: Se_10  and  C_20 
REMARK    6  A    between atoms: N_12  and  C_13 
REMARK       I    between atoms: N_12  and  C_19 
REMARK    7  A    between atoms: C_13  and  C_20 
REMARK    8  A    between atoms: C_13  and  C_14 
ROOT
HETATM    1  C           1     -36.037  -0.424 -11.593  0.00  0.00     0.278 C 
ENDROOT
BRANCH   1   2
HETATM    2  C           1     -35.418   0.380 -12.729  0.00  0.00     0.081 C 
BRANCH   2   3
HETATM    3  C           1     -36.072   0.004 -14.021  0.00  0.00    -0.056 A 
HETATM    4  C           1     -35.291  -0.347 -15.122  0.00  0.00     0.007 A 
HETATM    5  C           1     -35.901  -0.697 -16.327  0.00  0.00     0.001 A 
HETATM    6  C           1     -37.291  -0.695 -16.431  0.00  0.00     0.000 A 
HETATM    7  C           1     -38.073  -0.343 -15.331  0.00  0.00     0.001 A 
HETATM    8  C           1     -37.463   0.007 -14.125  0.00  0.00     0.007 A 
ENDBRANCH   2   3
ENDBRANCH   1   2
BRANCH   1   9
HETATM    9  N           1     -36.206   0.459 -10.392  0.00  0.00    -0.066 N 
HETATM   10  H           1     -36.747  -0.052  -9.658  0.00  0.00     0.275 HD
HETATM   11  H           1     -35.266   0.716 -10.015  0.00  0.00     0.275 HD
HETATM   12  H           1     -36.722   1.325 -10.666  0.00  0.00     0.275 HD
ENDBRANCH   1   9
BRANCH   1  13
HETATM   13  C           1     -35.132  -1.580 -11.243  0.00  0.00     0.249 C 
HETATM   14  O           1     -34.214  -1.419 -10.474  0.00  0.00    -0.271 OA
HETATM   15  N           1     -35.350  -2.813 -11.798  0.00  0.00    -0.345 N 
HETATM   16  H           1     -36.119  -2.949 -12.443  0.00  0.00     0.163 HD
BRANCH  15  17
HETATM   17  C           1     -34.482  -3.924 -11.462  0.00  0.00     0.185 C 
BRANCH  17  18
HETATM   18  C           1     -35.288  -5.216 -11.455  0.00  0.00     0.039 C 
BRANCH  18  19
HETATM   19 Se           1     -34.352  -6.561 -10.401  0.00  0.00     0.000 Se
HETATM   20  H           1     -33.185  -6.618 -11.295  0.00  0.00     0.000 HD
ENDBRANCH  18  19
ENDBRANCH  17  18
BRANCH  17  21
HETATM   21  C           1     -33.377  -4.025 -12.485  0.00  0.00     0.196 C 
HETATM   22  O           1     -32.210  -4.283 -12.121  0.00  0.00    -0.646 OA
HETATM   23  O           1     -33.630  -3.849 -13.696  0.00  0.00    -0.646 OA
ENDBRANCH  17  21
ENDBRANCH  15  17
ENDBRANCH   1  13
TORSDOF 8
ENDMDL
MODEL 7
REMARK VINA RESULT:      -5.9     15.953     18.190
REMARK  8 active torsions:
REMARK  status: ('A' for Active; 'I' for Inactive)
REMARK    1  A    between atoms: C_3  and  C_9 
REMARK    2  A    between atoms: C_3  and  C_16 
REMARK    3  A    between atoms: N_4  and  C_9 
REMARK    4  A    between atoms: C_9  and  C_19 
REMARK    5  A    between atoms: Se_10  and  C_20 
REMARK    6  A    between atoms: N_12  and  C_13 
REMARK       I    between atoms: N_12  and  C_19 
REMARK    7  A    between atoms: C_13  and  C_20 
REMARK    8  A    between atoms: C_13  and  C_14 
ROOT
HETATM    1  C           1     -21.471  -6.138  -5.879  0.00  0.00     0.278 C 
ENDROOT
BRANCH   1   2
HETATM    2  C           1     -20.851  -4.792  -6.233  0.00  0.00     0.081 C 
BRANCH   2   3
HETATM    3  C           1     -21.192  -4.441  -7.647  0.00  0.00    -0.056 A 
HETATM    4  C           1     -20.197  -4.434  -8.624  0.00  0.00     0.007 A 
HETATM    5  C           1     -20.515  -4.107  -9.942  0.00  0.00     0.001 A 
HETATM    6  C           1     -21.828  -3.787 -10.283  0.00  0.00     0.000 A 
HETATM    7  C           1     -22.824  -3.793  -9.307  0.00  0.00     0.001 A 
HETATM    8  C           1     -22.506  -4.120  -7.988  0.00  0.00     0.007 A 
ENDBRANCH   2   3
ENDBRANCH   1   2
BRANCH   1   9
HETATM    9  N           1     -22.243  -6.010  -4.599  0.00  0.00    -0.066 N 
HETATM   10  H           1     -22.077  -6.855  -4.006  0.00  0.00     0.275 HD
HETATM   11  H           1     -21.925  -5.157  -4.086  0.00  0.00     0.275 HD
HETATM   12  H           1     -23.262  -5.929  -4.814  0.00  0.00     0.275 HD
ENDBRANCH   1   9
BRANCH   1  13
HETATM   13  C           1     -20.379  -7.165  -5.706  0.00  0.00     0.249 C 
HETATM   14  O           1     -19.493  -7.249  -6.523  0.00  0.00    -0.271 OA
HETATM   15  N           1     -20.393  -8.004  -4.623  0.00  0.00    -0.345 N 
HETATM   16  H           1     -21.136  -7.934  -3.939  0.00  0.00     0.163 HD
BRANCH  15  17
HETATM   17  C           1     -19.344  -8.990  -4.457  0.00  0.00     0.185 C 
BRANCH  17  18
HETATM   18  C           1     -19.080  -9.207  -2.973  0.00  0.00     0.039 C 
BRANCH  18  19
HETATM   19 Se           1     -20.417  -8.246  -1.928  0.00  0.00     0.000 Se
HETATM   20  H           1     -20.811  -9.423  -1.137  0.00  0.00     0.000 HD
ENDBRANCH  18  19
ENDBRANCH  17  18
BRANCH  17  21
HETATM   21  C           1     -19.776 -10.292  -5.086  0.00  0.00     0.196 C 
HETATM   22  O           1     -19.321 -10.629  -6.201  0.00  0.00    -0.646 OA
HETATM   23  O           1     -20.588 -11.034  -4.493  0.00  0.00    -0.646 OA
ENDBRANCH  17  21
ENDBRANCH  15  17
ENDBRANCH   1  13
TORSDOF 8
ENDMDL
MODEL 8
REMARK VINA RESULT:      -5.7     16.227     18.145
REMARK  8 active torsions:
REMARK  status: ('A' for Active; 'I' for Inactive)
REMARK    1  A    between atoms: C_3  and  C_9 
REMARK    2  A    between atoms: C_3  and  C_16 
REMARK    3  A    between atoms: N_4  and  C_9 
REMARK    4  A    between atoms: C_9  and  C_19 
REMARK    5  A    between atoms: Se_10  and  C_20 
REMARK    6  A    between atoms: N_12  and  C_13 
REMARK       I    between atoms: N_12  and  C_19 
REMARK    7  A    between atoms: C_13  and  C_20 
REMARK    8  A    between atoms: C_13  and  C_14 
ROOT
HETATM    1  C           1     -21.203  -8.692  -4.211  0.00  0.00     0.278 C 
ENDROOT
BRANCH   1   2
HETATM    2  C           1     -20.235  -8.502  -3.051  0.00  0.00     0.081 C 
BRANCH   2   3
HETATM    3  C           1     -21.005  -8.351  -1.777  0.00  0.00    -0.056 A 
HETATM    4  C           1     -21.807  -7.229  -1.575  0.00  0.00     0.007 A 
HETATM    5  C           1     -22.525  -7.089  -0.387  0.00  0.00     0.001 A 
HETATM    6  C           1     -22.440  -8.071   0.599  0.00  0.00     0.000 A 
HETATM    7  C           1     -21.638  -9.194   0.398  0.00  0.00     0.001 A 
HETATM    8  C           1     -20.920  -9.334  -0.790  0.00  0.00     0.007 A 
ENDBRANCH   2   3
ENDBRANCH   1   2
BRANCH   1   9
HETATM    9  N           1     -21.140 -10.113  -4.686  0.00  0.00    -0.066 N 
HETATM   10  H           1     -20.460 -10.647  -4.098  0.00  0.00     0.275 HD
HETATM   11  H           1     -22.087 -10.549  -4.603  0.00  0.00     0.275 HD
HETATM   12  H           1     -20.832 -10.134  -5.684  0.00  0.00     0.275 HD
ENDBRANCH   1   9
BRANCH   1  13
HETATM   13  C           1     -20.821  -7.768  -5.342  0.00  0.00     0.249 C 
HETATM   14  O           1     -19.876  -8.032  -6.046  0.00  0.00    -0.271 OA
HETATM   15  N           1     -21.546  -6.628  -5.569  0.00  0.00    -0.345 N 
HETATM   16  H           1     -22.337  -6.405  -4.978  0.00  0.00     0.163 HD
BRANCH  15  17
HETATM   17  C           1     -21.179  -5.740  -6.655  0.00  0.00     0.185 C 
BRANCH  17  18
HETATM   18  C           1     -22.368  -4.858  -7.013  0.00  0.00     0.039 C 
BRANCH  18  19
HETATM   19 Se           1     -22.140  -4.161  -8.820  0.00  0.00     0.000 Se
HETATM   20  H           1     -22.154  -2.750  -8.401  0.00  0.00     0.000 HD
ENDBRANCH  18  19
ENDBRANCH  17  18
BRANCH  17  21
HETATM   21  C           1     -20.021  -4.874  -6.226  0.00  0.00     0.196 C 
HETATM   22  O           1     -19.076  -4.658  -7.015  0.00  0.00    -0.646 OA
HETATM   23  O           1     -20.005  -4.373  -5.081  0.00  0.00    -0.646 OA
ENDBRANCH  17  21
ENDBRANCH  15  17
ENDBRANCH   1  13
TORSDOF 8
ENDMDL
MODEL 9
REMARK VINA RESULT:      -5.7     16.875     19.007
REMARK  8 active torsions:
REMARK  status: ('A' for Active; 'I' for Inactive)
REMARK    1  A    between atoms: C_3  and  C_9 
REMARK    2  A    between atoms: C_3  and  C_16 
REMARK    3  A    between atoms: N_4  and  C_9 
REMARK    4  A    between atoms: C_9  and  C_19 
REMARK    5  A    between atoms: Se_10  and  C_20 
REMARK    6  A    between atoms: N_12  and  C_13 
REMARK       I    between atoms: N_12  and  C_19 
REMARK    7  A    between atoms: C_13  and  C_20 
REMARK    8  A    between atoms: C_13  and  C_14 
ROOT
HETATM    1  C           1     -20.905  -7.618  -4.785  0.00  0.00     0.278 C 
ENDROOT
BRANCH   1   2
HETATM    2  C           1     -21.579  -6.253  -4.758  0.00  0.00     0.081 C 
BRANCH   2   3
HETATM    3  C           1     -21.129  -5.450  -5.938  0.00  0.00    -0.056 A 
HETATM    4  C           1     -19.768  -5.265  -6.178  0.00  0.00     0.007 A 
HETATM    5  C           1     -19.349  -4.516  -7.278  0.00  0.00     0.001 A 
HETATM    6  C           1     -20.291  -3.952  -8.137  0.00  0.00     0.000 A 
HETATM    7  C           1     -21.653  -4.136  -7.897  0.00  0.00     0.001 A 
HETATM    8  C           1     -22.072  -4.885  -6.797  0.00  0.00     0.007 A 
ENDBRANCH   2   3
ENDBRANCH   1   2
BRANCH   1   9
HETATM    9  N           1     -21.214  -8.302  -6.085  0.00  0.00    -0.066 N 
HETATM   10  H           1     -20.474  -8.069  -6.785  0.00  0.00     0.275 HD
HETATM   11  H           1     -21.238  -9.336  -5.936  0.00  0.00     0.275 HD
HETATM   12  H           1     -22.142  -7.977  -6.437  0.00  0.00     0.275 HD
ENDBRANCH   1   9
BRANCH   1  13
HETATM   13  C           1     -21.421  -8.457  -3.642  0.00  0.00     0.249 C 
HETATM   14  O           1     -21.994  -9.497  -3.865  0.00  0.00    -0.271 OA
HETATM   15  N           1     -21.239  -8.040  -2.350  0.00  0.00    -0.345 N 
HETATM   16  H           1     -20.760  -7.168  -2.163  0.00  0.00     0.163 HD
BRANCH  15  17
HETATM   17  C           1     -21.734  -8.845  -1.251  0.00  0.00     0.185 C 
BRANCH  17  18
HETATM   18  C           1     -20.617  -9.741  -0.734  0.00  0.00     0.039 C 
BRANCH  18  19
HETATM   19 Se           1     -21.277 -11.566  -0.550  0.00  0.00     0.000 Se
HETATM   20  H           1     -21.042 -11.628   0.901  0.00  0.00     0.000 HD
ENDBRANCH  18  19
ENDBRANCH  17  18
BRANCH  17  21
HETATM   21  C           1     -22.211  -7.942  -0.141  0.00  0.00     0.196 C 
HETATM   22  O           1     -21.857  -8.160   1.038  0.00  0.00    -0.646 OA
HETATM   23  O           1     -22.960  -6.975  -0.400  0.00  0.00    -0.646 OA
ENDBRANCH  17  21
ENDBRANCH  15  17
ENDBRANCH   1  13
TORSDOF 8
ENDMDL
