MODEL 1
REMARK VINA RESULT:      -7.0      0.000      0.000
REMARK  9 active torsions:
REMARK  status: ('A' for Active; 'I' for Inactive)
REMARK    1  A    between atoms: N_2  and  C_19 
REMARK       I    between atoms: N_2  and  C_3 
REMARK    2  A    between atoms: C_3  and  C_10 
REMARK    3  A    between atoms: N_7  and  C_10 
REMARK    4  A    between atoms: Se_8  and  C_9 
REMARK    5  A    between atoms: C_9  and  C_10 
REMARK    6  A    between atoms: O_11  and  C_12 
REMARK    7  A    between atoms: C_15  and  C_18 
REMARK    8  A    between atoms: C_18  and  C_19 
REMARK    9  A    between atoms: C_19  and  C_20 
ROOT
HETATM    1  C           1     -36.104  -0.908 -11.823  0.00  0.00     0.189 C 
ENDROOT
BRANCH   1   2
HETATM    2  N           1     -36.066  -0.113 -13.036  0.00  0.00    -0.344 N 
HETATM    3  C           1     -37.085  -0.203 -13.945  0.00  0.00     0.249 C 
HETATM    4  O           1     -38.017  -0.942 -13.738  0.00  0.00    -0.271 OA
HETATM    5  H           1     -35.285   0.507 -13.210  0.00  0.00     0.163 HD
BRANCH   3   6
HETATM    6  C           1     -37.045   0.625 -15.208  0.00  0.00     0.274 C 
BRANCH   6   7
HETATM    7  N           1     -35.767   1.410 -15.249  0.00  0.00    -0.067 N 
HETATM    8  H           1     -35.366   1.472 -14.286  0.00  0.00     0.275 HD
HETATM    9  H           1     -35.085   0.933 -15.881  0.00  0.00     0.275 HD
HETATM   10  H           1     -35.963   2.372 -15.608  0.00  0.00     0.275 HD
ENDBRANCH   6   7
BRANCH   6  11
HETATM   11  C           1     -37.116  -0.293 -16.420  0.00  0.00     0.045 C 
BRANCH  11  12
HETATM   12 Se           1     -35.486  -1.357 -16.526  0.00  0.00     0.000 Se
HETATM   13  H           1     -36.154  -2.535 -17.104  0.00  0.00     0.000 HD
ENDBRANCH  11  12
ENDBRANCH   6  11
ENDBRANCH   3   6
ENDBRANCH   1   2
BRANCH   1  14
HETATM   14  C           1     -34.685  -1.138 -11.323  0.00  0.00     0.074 C 
BRANCH  14  15
HETATM   15  C           1     -34.404  -2.607 -11.273  0.00  0.00    -0.056 A 
HETATM   16  C           1     -35.420  -3.502 -10.938  0.00  0.00     0.010 A 
HETATM   17  C           1     -35.158  -4.870 -10.892  0.00  0.00     0.037 A 
HETATM   18  C           1     -33.878  -5.346 -11.181  0.00  0.00     0.065 A 
HETATM   19  C           1     -32.862  -4.451 -11.517  0.00  0.00     0.037 A 
HETATM   20  C           1     -33.124  -3.082 -11.563  0.00  0.00     0.010 A 
BRANCH  18  21
HETATM   21  O           1     -33.624  -6.675 -11.136  0.00  0.00    -0.361 OA
HETATM   22  H           1     -33.258  -6.940 -11.998  0.00  0.00     0.217 HD
ENDBRANCH  18  21
ENDBRANCH  14  15
ENDBRANCH   1  14
BRANCH   1  23
HETATM   23  C           1     -36.898  -0.177 -10.769  0.00  0.00     0.197 C 
HETATM   24  O           1     -36.382   0.777 -10.148  0.00  0.00    -0.646 OA
HETATM   25  O           1     -38.072  -0.524 -10.517  0.00  0.00    -0.646 OA
ENDBRANCH   1  23
TORSDOF 9
ENDMDL
MODEL 2
REMARK VINA RESULT:      -6.4     13.949     16.894
REMARK  9 active torsions:
REMARK  status: ('A' for Active; 'I' for Inactive)
REMARK    1  A    between atoms: N_2  and  C_19 
REMARK       I    between atoms: N_2  and  C_3 
REMARK    2  A    between atoms: C_3  and  C_10 
REMARK    3  A    between atoms: N_7  and  C_10 
REMARK    4  A    between atoms: Se_8  and  C_9 
REMARK    5  A    between atoms: C_9  and  C_10 
REMARK    6  A    between atoms: O_11  and  C_12 
REMARK    7  A    between atoms: C_15  and  C_18 
REMARK    8  A    between atoms: C_18  and  C_19 
REMARK    9  A    between atoms: C_19  and  C_20 
ROOT
HETATM    1  C           1     -21.035  -5.239  -6.615  0.00  0.00     0.189 C 
ENDROOT
BRANCH   1   2
HETATM    2  N           1     -21.009  -5.184  -5.166  0.00  0.00    -0.344 N 
HETATM    3  C           1     -21.311  -6.300  -4.434  0.00  0.00     0.249 C 
HETATM    4  O           1     -21.599  -7.331  -4.993  0.00  0.00    -0.271 OA
HETATM    5  H           1     -20.768  -4.320  -4.697  0.00  0.00     0.163 HD
BRANCH   3   6
HETATM    6  C           1     -21.285  -6.243  -2.925  0.00  0.00     0.274 C 
BRANCH   6   7
HETATM    7  N           1     -22.643  -5.860  -2.417  0.00  0.00    -0.067 N 
HETATM    8  H           1     -22.810  -6.317  -1.492  0.00  0.00     0.275 HD
HETATM    9  H           1     -22.694  -4.822  -2.306  0.00  0.00     0.275 HD
HETATM   10  H           1     -23.370  -6.175  -3.098  0.00  0.00     0.275 HD
ENDBRANCH   6   7
BRANCH   6  11
HETATM   11  C           1     -20.901  -7.608  -2.371  0.00  0.00     0.045 C 
BRANCH  11  12
HETATM   12 Se           1     -21.846  -7.918  -0.695  0.00  0.00     0.000 Se
HETATM   13  H           1     -20.923  -8.968  -0.234  0.00  0.00     0.000 HD
ENDBRANCH  11  12
ENDBRANCH   6  11
ENDBRANCH   3   6
ENDBRANCH   1   2
BRANCH   1  14
HETATM   14  C           1     -21.516  -3.903  -7.165  0.00  0.00     0.074 C 
BRANCH  14  15
HETATM   15  C           1     -22.074  -4.099  -8.539  0.00  0.00    -0.056 A 
HETATM   16  C           1     -21.229  -4.067  -9.648  0.00  0.00     0.010 A 
HETATM   17  C           1     -21.750  -4.251 -10.929  0.00  0.00     0.037 A 
HETATM   18  C           1     -23.117  -4.466 -11.102  0.00  0.00     0.065 A 
HETATM   19  C           1     -23.963  -4.499  -9.993  0.00  0.00     0.037 A 
HETATM   20  C           1     -23.442  -4.316  -8.712  0.00  0.00     0.010 A 
BRANCH  18  21
HETATM   21  O           1     -23.623  -4.645 -12.345  0.00  0.00    -0.361 OA
HETATM   22  H           1     -22.883  -4.634 -12.975  0.00  0.00     0.217 HD
ENDBRANCH  18  21
ENDBRANCH  14  15
ENDBRANCH   1  14
BRANCH   1  23
HETATM   23  C           1     -19.646  -5.526  -7.132  0.00  0.00     0.197 C 
HETATM   24  O           1     -19.311  -6.697  -7.406  0.00  0.00    -0.646 OA
HETATM   25  O           1     -18.831  -4.590  -7.285  0.00  0.00    -0.646 OA
ENDBRANCH   1  23
TORSDOF 9
ENDMDL
MODEL 3
REMARK VINA RESULT:      -6.3      1.436      2.002
REMARK  9 active torsions:
REMARK  status: ('A' for Active; 'I' for Inactive)
REMARK    1  A    between atoms: N_2  and  C_19 
REMARK       I    between atoms: N_2  and  C_3 
REMARK    2  A    between atoms: C_3  and  C_10 
REMARK    3  A    between atoms: N_7  and  C_10 
REMARK    4  A    between atoms: Se_8  and  C_9 
REMARK    5  A    between atoms: C_9  and  C_10 
REMARK    6  A    between atoms: O_11  and  C_12 
REMARK    7  A    between atoms: C_15  and  C_18 
REMARK    8  A    between atoms: C_18  and  C_19 
REMARK    9  A    between atoms: C_19  and  C_20 
ROOT
HETATM    1  C           1     -35.425  -1.449 -12.049  0.00  0.00     0.189 C 
ENDROOT
BRANCH   1   2
HETATM    2  N           1     -35.070  -0.692 -13.235  0.00  0.00    -0.344 N 
HETATM    3  C           1     -35.986  -0.520 -14.236  0.00  0.00     0.249 C 
HETATM    4  O           1     -37.091  -0.997 -14.134  0.00  0.00    -0.271 OA
HETATM    5  H           1     -34.144  -0.292 -13.320  0.00  0.00     0.163 HD
BRANCH   3   6
HETATM    6  C           1     -35.617   0.268 -15.470  0.00  0.00     0.274 C 
BRANCH   6   7
HETATM    7  N           1     -36.665   0.065 -16.523  0.00  0.00    -0.067 N 
HETATM    8  H           1     -37.226   0.940 -16.630  0.00  0.00     0.275 HD
HETATM    9  H           1     -36.205  -0.166 -17.433  0.00  0.00     0.275 HD
HETATM   10  H           1     -37.294  -0.720 -16.241  0.00  0.00     0.275 HD
ENDBRANCH   6   7
BRANCH   6  11
HETATM   11  C           1     -35.527   1.747 -15.121  0.00  0.00     0.045 C 
BRANCH  11  12
HETATM   12 Se           1     -36.305   2.803 -16.563  0.00  0.00     0.000 Se
HETATM   13  H           1     -35.014   3.082 -17.213  0.00  0.00     0.000 HD
ENDBRANCH  11  12
ENDBRANCH   6  11
ENDBRANCH   3   6
ENDBRANCH   1   2
BRANCH   1  14
HETATM   14  C           1     -34.170  -1.745 -11.242  0.00  0.00     0.074 C 
BRANCH  14  15
HETATM   15  C           1     -33.977  -3.226 -11.141  0.00  0.00    -0.056 A 
HETATM   16  C           1     -32.834  -3.820 -11.675  0.00  0.00     0.010 A 
HETATM   17  C           1     -32.655  -5.200 -11.581  0.00  0.00     0.037 A 
HETATM   18  C           1     -33.620  -5.987 -10.952  0.00  0.00     0.065 A 
HETATM   19  C           1     -34.763  -5.394 -10.417  0.00  0.00     0.037 A 
HETATM   20  C           1     -34.942  -4.013 -10.512  0.00  0.00     0.010 A 
BRANCH  18  21
HETATM   21  O           1     -33.445  -7.327 -10.860  0.00  0.00    -0.361 OA
HETATM   22  H           1     -32.600  -7.551 -11.285  0.00  0.00     0.217 HD
ENDBRANCH  18  21
ENDBRANCH  14  15
ENDBRANCH   1  14
BRANCH   1  23
HETATM   23  C           1     -36.386  -0.644 -11.209  0.00  0.00     0.197 C 
HETATM   24  O           1     -37.522  -1.097 -10.952  0.00  0.00    -0.646 OA
HETATM   25  O           1     -36.046   0.475 -10.768  0.00  0.00    -0.646 OA
ENDBRANCH   1  23
TORSDOF 9
ENDMDL
MODEL 4
REMARK VINA RESULT:      -6.1     14.428     16.952
REMARK  9 active torsions:
REMARK  status: ('A' for Active; 'I' for Inactive)
REMARK    1  A    between atoms: N_2  and  C_19 
REMARK       I    between atoms: N_2  and  C_3 
REMARK    2  A    between atoms: C_3  and  C_10 
REMARK    3  A    between atoms: N_7  and  C_10 
REMARK    4  A    between atoms: Se_8  and  C_9 
REMARK    5  A    between atoms: C_9  and  C_10 
REMARK    6  A    between atoms: O_11  and  C_12 
REMARK    7  A    between atoms: C_15  and  C_18 
REMARK    8  A    between atoms: C_18  and  C_19 
REMARK    9  A    between atoms: C_19  and  C_20 
ROOT
HETATM    1  C           1     -21.040  -5.388  -6.940  0.00  0.00     0.189 C 
ENDROOT
BRANCH   1   2
HETATM    2  N           1     -21.635  -6.241  -5.929  0.00  0.00    -0.344 N 
HETATM    3  C           1     -21.010  -7.400  -5.557  0.00  0.00     0.249 C 
HETATM    4  O           1     -19.962  -7.713  -6.070  0.00  0.00    -0.271 OA
HETATM    5  H           1     -22.513  -5.979  -5.499  0.00  0.00     0.163 HD
BRANCH   3   6
HETATM    6  C           1     -21.629  -8.288  -4.505  0.00  0.00     0.274 C 
BRANCH   6   7
HETATM    7  N           1     -21.363  -9.725  -4.845  0.00  0.00    -0.067 N 
HETATM    8  H           1     -21.997 -10.022  -5.621  0.00  0.00     0.275 HD
HETATM    9  H           1     -20.369  -9.833  -5.148  0.00  0.00     0.275 HD
HETATM   10  H           1     -21.539 -10.319  -4.004  0.00  0.00     0.275 HD
ENDBRANCH   6   7
BRANCH   6  11
HETATM   11  C           1     -21.021  -7.967  -3.147  0.00  0.00     0.045 C 
BRANCH  11  12
HETATM   12 Se           1     -21.964  -6.458  -2.352  0.00  0.00     0.000 Se
HETATM   13  H           1     -23.270  -6.821  -2.928  0.00  0.00     0.000 HD
ENDBRANCH  11  12
ENDBRANCH   6  11
ENDBRANCH   3   6
ENDBRANCH   1   2
BRANCH   1  14
HETATM   14  C           1     -22.052  -4.339  -7.377  0.00  0.00     0.074 C 
BRANCH  14  15
HETATM   15  C           1     -21.989  -4.171  -8.863  0.00  0.00    -0.056 A 
HETATM   16  C           1     -23.117  -3.750  -9.568  0.00  0.00     0.010 A 
HETATM   17  C           1     -23.057  -3.594 -10.952  0.00  0.00     0.037 A 
HETATM   18  C           1     -21.869  -3.858 -11.634  0.00  0.00     0.065 A 
HETATM   19  C           1     -20.740  -4.278 -10.929  0.00  0.00     0.037 A 
HETATM   20  C           1     -20.800  -4.434  -9.544  0.00  0.00     0.010 A 
BRANCH  18  21
HETATM   21  O           1     -21.811  -3.705 -12.978  0.00  0.00    -0.361 OA
HETATM   22  H           1     -20.924  -3.378 -13.206  0.00  0.00     0.217 HD
ENDBRANCH  18  21
ENDBRANCH  14  15
ENDBRANCH   1  14
BRANCH   1  23
HETATM   23  C           1     -19.822  -4.706  -6.368  0.00  0.00     0.197 C 
HETATM   24  O           1     -18.802  -4.553  -7.073  0.00  0.00    -0.646 OA
HETATM   25  O           1     -19.833  -4.293  -5.188  0.00  0.00    -0.646 OA
ENDBRANCH   1  23
TORSDOF 9
ENDMDL
MODEL 5
REMARK VINA RESULT:      -6.0      2.977      5.513
REMARK  9 active torsions:
REMARK  status: ('A' for Active; 'I' for Inactive)
REMARK    1  A    between atoms: N_2  and  C_19 
REMARK       I    between atoms: N_2  and  C_3 
REMARK    2  A    between atoms: C_3  and  C_10 
REMARK    3  A    between atoms: N_7  and  C_10 
REMARK    4  A    between atoms: Se_8  and  C_9 
REMARK    5  A    between atoms: C_9  and  C_10 
REMARK    6  A    between atoms: O_11  and  C_12 
REMARK    7  A    between atoms: C_15  and  C_18 
REMARK    8  A    between atoms: C_18  and  C_19 
REMARK    9  A    between atoms: C_19  and  C_20 
ROOT
HETATM    1  C           1     -36.353  -0.629 -10.670  0.00  0.00     0.189 C 
ENDROOT
BRANCH   1   2
HETATM    2  N           1     -36.271  -2.052 -10.942  0.00  0.00    -0.344 N 
HETATM    3  C           1     -35.059  -2.628 -11.210  0.00  0.00     0.249 C 
HETATM    4  O           1     -34.058  -1.953 -11.219  0.00  0.00    -0.271 OA
HETATM    5  H           1     -37.110  -2.617 -10.934  0.00  0.00     0.163 HD
BRANCH   3   6
HETATM    6  C           1     -34.973  -4.108 -11.494  0.00  0.00     0.274 C 
BRANCH   6   7
HETATM    7  N           1     -34.381  -4.321 -12.855  0.00  0.00    -0.067 N 
HETATM    8  H           1     -35.054  -4.857 -13.448  0.00  0.00     0.275 HD
HETATM    9  H           1     -34.187  -3.396 -13.300  0.00  0.00     0.275 HD
HETATM   10  H           1     -33.490  -4.860 -12.766  0.00  0.00     0.275 HD
ENDBRANCH   6   7
BRANCH   6  11
HETATM   11  C           1     -34.093  -4.776 -10.447  0.00  0.00     0.045 C 
BRANCH  11  12
HETATM   12 Se           1     -34.491  -6.683 -10.385  0.00  0.00     0.000 Se
HETATM   13  H           1     -35.783  -6.555 -11.080  0.00  0.00     0.000 HD
ENDBRANCH  11  12
ENDBRANCH   6  11
ENDBRANCH   3   6
ENDBRANCH   1   2
BRANCH   1  14
HETATM   14  C           1     -37.479  -0.020 -11.493  0.00  0.00     0.074 C 
BRANCH  14  15
HETATM   15  C           1     -37.101  -0.030 -12.942  0.00  0.00    -0.056 A 
HETATM   16  C           1     -38.074  -0.252 -13.916  0.00  0.00     0.010 A 
HETATM   17  C           1     -37.721  -0.261 -15.265  0.00  0.00     0.037 A 
HETATM   18  C           1     -36.395  -0.047 -15.641  0.00  0.00     0.065 A 
HETATM   19  C           1     -35.422   0.177 -14.667  0.00  0.00     0.037 A 
HETATM   20  C           1     -35.775   0.185 -13.317  0.00  0.00     0.010 A 
BRANCH  18  21
HETATM   21  O           1     -36.053  -0.055 -16.952  0.00  0.00    -0.361 OA
HETATM   22  H           1     -36.671  -0.641 -17.420  0.00  0.00     0.217 HD
ENDBRANCH  18  21
ENDBRANCH  14  15
ENDBRANCH   1  14
BRANCH   1  23
HETATM   23  C           1     -36.630  -0.414  -9.202  0.00  0.00     0.197 C 
HETATM   24  O           1     -37.768  -0.645  -8.740  0.00  0.00    -0.646 OA
HETATM   25  O           1     -35.721  -0.005  -8.447  0.00  0.00    -0.646 OA
ENDBRANCH   1  23
TORSDOF 9
ENDMDL
MODEL 6
REMARK VINA RESULT:      -5.9     13.815     16.218
REMARK  9 active torsions:
REMARK  status: ('A' for Active; 'I' for Inactive)
REMARK    1  A    between atoms: N_2  and  C_19 
REMARK       I    between atoms: N_2  and  C_3 
REMARK    2  A    between atoms: C_3  and  C_10 
REMARK    3  A    between atoms: N_7  and  C_10 
REMARK    4  A    between atoms: Se_8  and  C_9 
REMARK    5  A    between atoms: C_9  and  C_10 
REMARK    6  A    between atoms: O_11  and  C_12 
REMARK    7  A    between atoms: C_15  and  C_18 
REMARK    8  A    between atoms: C_18  and  C_19 
REMARK    9  A    between atoms: C_19  and  C_20 
ROOT
HETATM    1  C           1     -21.199  -5.306  -6.301  0.00  0.00     0.189 C 
ENDROOT
BRANCH   1   2
HETATM    2  N           1     -21.696  -5.008  -7.631  0.00  0.00    -0.344 N 
HETATM    3  C           1     -22.980  -4.565  -7.797  0.00  0.00     0.249 C 
HETATM    4  O           1     -23.699  -4.420  -6.838  0.00  0.00    -0.271 OA
HETATM    5  H           1     -21.094  -5.129  -8.435  0.00  0.00     0.163 HD
BRANCH   3   6
HETATM    6  C           1     -23.498  -4.255  -9.181  0.00  0.00     0.274 C 
BRANCH   6   7
HETATM    7  N           1     -24.613  -3.256  -9.084  0.00  0.00    -0.067 N 
HETATM    8  H           1     -25.524  -3.731  -9.275  0.00  0.00     0.275 HD
HETATM    9  H           1     -24.630  -2.845  -8.124  0.00  0.00     0.275 HD
HETATM   10  H           1     -24.462  -2.497  -9.786  0.00  0.00     0.275 HD
ENDBRANCH   6   7
BRANCH   6  11
HETATM   11  C           1     -22.373  -3.678 -10.029  0.00  0.00     0.045 C 
BRANCH  11  12
HETATM   12 Se           1     -23.091  -3.070 -11.736  0.00  0.00     0.000 Se
HETATM   13  H           1     -24.386  -2.652 -11.174  0.00  0.00     0.000 HD
ENDBRANCH  11  12
ENDBRANCH   6  11
ENDBRANCH   3   6
ENDBRANCH   1   2
BRANCH   1  14
HETATM   14  C           1     -21.144  -6.814  -6.106  0.00  0.00     0.074 C 
BRANCH  14  15
HETATM   15  C           1     -21.106  -7.129  -4.643  0.00  0.00    -0.056 A 
HETATM   16  C           1     -21.882  -6.391  -3.750  0.00  0.00     0.010 A 
HETATM   17  C           1     -21.846  -6.685  -2.387  0.00  0.00     0.037 A 
HETATM   18  C           1     -21.034  -7.717  -1.916  0.00  0.00     0.065 A 
HETATM   19  C           1     -20.259  -8.455  -2.810  0.00  0.00     0.037 A 
HETATM   20  C           1     -20.294  -8.162  -4.173  0.00  0.00     0.010 A 
BRANCH  18  21
HETATM   21  O           1     -21.000  -8.002  -0.593  0.00  0.00    -0.361 OA
HETATM   22  H           1     -21.305  -7.216  -0.108  0.00  0.00     0.217 HD
ENDBRANCH  18  21
ENDBRANCH  14  15
ENDBRANCH   1  14
BRANCH   1  23
HETATM   23  C           1     -19.814  -4.727  -6.142  0.00  0.00     0.197 C 
HETATM   24  O           1     -19.451  -4.272  -5.037  0.00  0.00    -0.646 OA
HETATM   25  O           1     -19.031  -4.704  -7.116  0.00  0.00    -0.646 OA
ENDBRANCH   1  23
TORSDOF 9
ENDMDL
MODEL 7
REMARK VINA RESULT:      -5.7     12.824     14.828
REMARK  9 active torsions:
REMARK  status: ('A' for Active; 'I' for Inactive)
REMARK    1  A    between atoms: N_2  and  C_19 
REMARK       I    between atoms: N_2  and  C_3 
REMARK    2  A    between atoms: C_3  and  C_10 
REMARK    3  A    between atoms: N_7  and  C_10 
REMARK    4  A    between atoms: Se_8  and  C_9 
REMARK    5  A    between atoms: C_9  and  C_10 
REMARK    6  A    between atoms: O_11  and  C_12 
REMARK    7  A    between atoms: C_15  and  C_18 
REMARK    8  A    between atoms: C_18  and  C_19 
REMARK    9  A    between atoms: C_19  and  C_20 
ROOT
HETATM    1  C           1     -22.822  -4.001  -9.227  0.00  0.00     0.189 C 
ENDROOT
BRANCH   1   2
HETATM    2  N           1     -22.511  -4.811  -8.065  0.00  0.00    -0.344 N 
HETATM    3  C           1     -21.631  -4.349  -7.125  0.00  0.00     0.249 C 
HETATM    4  O           1     -21.112  -3.267  -7.262  0.00  0.00    -0.271 OA
HETATM    5  H           1     -22.946  -5.718  -7.950  0.00  0.00     0.163 HD
BRANCH   3   6
HETATM    6  C           1     -21.307  -5.192  -5.915  0.00  0.00     0.274 C 
BRANCH   6   7
HETATM    7  N           1     -22.555  -5.869  -5.431  0.00  0.00    -0.067 N 
HETATM    8  H           1     -23.233  -5.957  -6.221  0.00  0.00     0.275 HD
HETATM    9  H           1     -22.318  -6.820  -5.068  0.00  0.00     0.275 HD
HETATM   10  H           1     -22.984  -5.301  -4.666  0.00  0.00     0.275 HD
ENDBRANCH   6   7
BRANCH   6  11
HETATM   11  C           1     -20.272  -6.243  -6.289  0.00  0.00     0.045 C 
BRANCH  11  12
HETATM   12 Se           1     -20.371  -7.730  -5.032  0.00  0.00     0.000 Se
HETATM   13  H           1     -21.821  -7.927  -5.201  0.00  0.00     0.000 HD
ENDBRANCH  11  12
ENDBRANCH   6  11
ENDBRANCH   3   6
ENDBRANCH   1   2
BRANCH   1  14
HETATM   14  C           1     -22.200  -4.631 -10.465  0.00  0.00     0.074 C 
BRANCH  14  15
HETATM   15  C           1     -22.671  -3.905 -11.687  0.00  0.00    -0.056 A 
HETATM   16  C           1     -22.222  -2.610 -11.946  0.00  0.00     0.010 A 
HETATM   17  C           1     -22.661  -1.934 -13.084  0.00  0.00     0.037 A 
HETATM   18  C           1     -23.548  -2.553 -13.964  0.00  0.00     0.065 A 
HETATM   19  C           1     -23.996  -3.848 -13.706  0.00  0.00     0.037 A 
HETATM   20  C           1     -23.558  -4.525 -12.567  0.00  0.00     0.010 A 
BRANCH  18  21
HETATM   21  O           1     -23.974  -1.897 -15.070  0.00  0.00    -0.361 OA
HETATM   22  H           1     -23.195  -1.680 -15.610  0.00  0.00     0.217 HD
ENDBRANCH  18  21
ENDBRANCH  14  15
ENDBRANCH   1  14
BRANCH   1  23
HETATM   23  C           1     -24.319  -3.923  -9.400  0.00  0.00     0.197 C 
HETATM   24  O           1     -24.989  -4.971  -9.523  0.00  0.00    -0.646 OA
HETATM   25  O           1     -24.889  -2.811  -9.419  0.00  0.00    -0.646 OA
ENDBRANCH   1  23
TORSDOF 9
ENDMDL
MODEL 8
REMARK VINA RESULT:      -5.7     15.918     18.146
REMARK  9 active torsions:
REMARK  status: ('A' for Active; 'I' for Inactive)
REMARK    1  A    between atoms: N_2  and  C_19 
REMARK       I    between atoms: N_2  and  C_3 
REMARK    2  A    between atoms: C_3  and  C_10 
REMARK    3  A    between atoms: N_7  and  C_10 
REMARK    4  A    between atoms: Se_8  and  C_9 
REMARK    5  A    between atoms: C_9  and  C_10 
REMARK    6  A    between atoms: O_11  and  C_12 
REMARK    7  A    between atoms: C_15  and  C_18 
REMARK    8  A    between atoms: C_18  and  C_19 
REMARK    9  A    between atoms: C_19  and  C_20 
ROOT
HETATM    1  C           1     -21.266  -6.866  -4.490  0.00  0.00     0.189 C 
ENDROOT
BRANCH   1   2
HETATM    2  N           1     -21.089  -7.332  -3.127  0.00  0.00    -0.344 N 
HETATM    3  C           1     -21.892  -6.849  -2.130  0.00  0.00     0.249 C 
HETATM    4  O           1     -22.749  -6.036  -2.383  0.00  0.00    -0.271 OA
HETATM    5  H           1     -20.372  -8.014  -2.916  0.00  0.00     0.163 HD
BRANCH   3   6
HETATM    6  C           1     -21.709  -7.334  -0.712  0.00  0.00     0.274 C 
BRANCH   6   7
HETATM    7  N           1     -23.053  -7.541  -0.078  0.00  0.00    -0.067 N 
HETATM    8  H           1     -23.357  -8.530  -0.221  0.00  0.00     0.275 HD
HETATM    9  H           1     -22.990  -7.340   0.945  0.00  0.00     0.275 HD
HETATM   10  H           1     -23.747  -6.896  -0.519  0.00  0.00     0.275 HD
ENDBRANCH   6   7
BRANCH   6  11
HETATM   11  C           1     -20.943  -8.650  -0.719  0.00  0.00     0.045 C 
BRANCH  11  12
HETATM   12 Se           1     -22.203 -10.134  -0.822  0.00  0.00     0.000 Se
HETATM   13  H           1     -21.272 -11.026  -1.534  0.00  0.00     0.000 HD
ENDBRANCH  11  12
ENDBRANCH   6  11
ENDBRANCH   3   6
ENDBRANCH   1   2
BRANCH   1  14
HETATM   14  C           1     -20.537  -5.542  -4.671  0.00  0.00     0.074 C 
BRANCH  14  15
HETATM   15  C           1     -20.706  -5.066  -6.080  0.00  0.00    -0.056 A 
HETATM   16  C           1     -19.587  -4.750  -6.850  0.00  0.00     0.010 A 
HETATM   17  C           1     -19.745  -4.307  -8.163  0.00  0.00     0.037 A 
HETATM   18  C           1     -21.023  -4.182  -8.708  0.00  0.00     0.065 A 
HETATM   19  C           1     -22.143  -4.499  -7.939  0.00  0.00     0.037 A 
HETATM   20  C           1     -21.985  -4.942  -6.625  0.00  0.00     0.010 A 
BRANCH  18  21
HETATM   21  O           1     -21.176  -3.752  -9.983  0.00  0.00    -0.361 OA
HETATM   22  H           1     -20.515  -4.204 -10.534  0.00  0.00     0.217 HD
ENDBRANCH  18  21
ENDBRANCH  14  15
ENDBRANCH   1  14
BRANCH   1  23
HETATM   23  C           1     -20.701  -7.887  -5.447  0.00  0.00     0.197 C 
HETATM   24  O           1     -19.471  -8.106  -5.472  0.00  0.00    -0.646 OA
HETATM   25  O           1     -21.463  -8.513  -6.215  0.00  0.00    -0.646 OA
ENDBRANCH   1  23
TORSDOF 9
ENDMDL
MODEL 9
REMARK VINA RESULT:      -5.7     16.159     18.161
REMARK  9 active torsions:
REMARK  status: ('A' for Active; 'I' for Inactive)
REMARK    1  A    between atoms: N_2  and  C_19 
REMARK       I    between atoms: N_2  and  C_3 
REMARK    2  A    between atoms: C_3  and  C_10 
REMARK    3  A    between atoms: N_7  and  C_10 
REMARK    4  A    between atoms: Se_8  and  C_9 
REMARK    5  A    between atoms: C_9  and  C_10 
REMARK    6  A    between atoms: O_11  and  C_12 
REMARK    7  A    between atoms: C_15  and  C_18 
REMARK    8  A    between atoms: C_18  and  C_19 
REMARK    9  A    between atoms: C_19  and  C_20 
ROOT
HETATM    1  C           1     -20.261  -8.061  -4.798  0.00  0.00     0.189 C 
ENDROOT
BRANCH   1   2
HETATM    2  N           1     -20.668  -7.475  -6.061  0.00  0.00    -0.344 N 
HETATM    3  C           1     -20.821  -6.119  -6.167  0.00  0.00     0.249 C 
HETATM    4  O           1     -20.617  -5.410  -5.210  0.00  0.00    -0.271 OA
HETATM    5  H           1     -20.838  -8.069  -6.862  0.00  0.00     0.163 HD
BRANCH   3   6
HETATM    6  C           1     -21.244  -5.508  -7.481  0.00  0.00     0.274 C 
BRANCH   6   7
HETATM    7  N           1     -22.315  -4.487  -7.234  0.00  0.00    -0.067 N 
HETATM    8  H           1     -23.149  -4.952  -6.812  0.00  0.00     0.275 HD
HETATM    9  H           1     -21.956  -3.756  -6.580  0.00  0.00     0.275 HD
HETATM   10  H           1     -22.586  -4.042  -8.140  0.00  0.00     0.275 HD
ENDBRANCH   6   7
BRANCH   6  11
HETATM   11  C           1     -20.047  -4.839  -8.140  0.00  0.00     0.045 C 
BRANCH  11  12
HETATM   12 Se           1     -20.530  -4.267  -9.940  0.00  0.00     0.000 Se
HETATM   13  H           1     -19.864  -2.959  -9.829  0.00  0.00     0.000 HD
ENDBRANCH  11  12
ENDBRANCH   6  11
ENDBRANCH   3   6
ENDBRANCH   1   2
BRANCH   1  14
HETATM   14  C           1     -21.359  -8.986  -4.291  0.00  0.00     0.074 C 
BRANCH  14  15
HETATM   15  C           1     -21.644  -8.683  -2.853  0.00  0.00    -0.056 A 
HETATM   16  C           1     -21.879  -9.723  -1.954  0.00  0.00     0.010 A 
HETATM   17  C           1     -22.144  -9.440  -0.614  0.00  0.00     0.037 A 
HETATM   18  C           1     -22.174  -8.117  -0.173  0.00  0.00     0.065 A 
HETATM   19  C           1     -21.938  -7.077  -1.072  0.00  0.00     0.037 A 
HETATM   20  C           1     -21.673  -7.360  -2.412  0.00  0.00     0.010 A 
BRANCH  18  21
HETATM   21  O           1     -22.431  -7.843   1.128  0.00  0.00    -0.361 OA
HETATM   22  H           1     -21.596  -7.915   1.622  0.00  0.00     0.217 HD
ENDBRANCH  18  21
ENDBRANCH  14  15
ENDBRANCH   1  14
BRANCH   1  23
HETATM   23  C           1     -18.990  -8.851  -4.997  0.00  0.00     0.197 C 
HETATM   24  O           1     -18.599  -9.124  -6.152  0.00  0.00    -0.646 OA
HETATM   25  O           1     -18.329  -9.231  -4.007  0.00  0.00    -0.646 OA
ENDBRANCH   1  23
TORSDOF 9
ENDMDL
