MODEL 1
REMARK VINA RESULT:      -6.3      0.000      0.000
REMARK  10 active torsions:
REMARK  status: ('A' for Active; 'I' for Inactive)
REMARK    1  A    between atoms: N_3  and  C_12 
REMARK       I    between atoms: N_3  and  C_6 
REMARK    2  A    between atoms: C_6  and  C_15 
REMARK    3  A    between atoms: O_8  and  C_20 
REMARK    4  A    between atoms: O_8  and  P_14 
REMARK    5  A    between atoms: N_9  and  C_15 
REMARK    6  A    between atoms: O_11  and  P_14 
REMARK    7  A    between atoms: C_12  and  C_13 
REMARK    8  A    between atoms: C_12  and  C_20 
REMARK    9  A    between atoms: C_15  and  C_22 
REMARK   10  A    between atoms: C_22  and  O_23 
ROOT
HETATM    1  N           1     -27.416  -7.381 -19.308  0.00  0.00    -0.343 N 
HETATM    2  H           1     -27.564  -8.381 -19.254  0.00  0.00     0.163 HD
HETATM    3  C           1     -28.400  -6.522 -18.901  0.00  0.00     0.251 C 
HETATM    4  O           1     -28.225  -5.328 -18.964  0.00  0.00    -0.271 OA
ENDROOT
BRANCH   1   5
HETATM    5  C           1     -26.162  -6.860 -19.815  0.00  0.00     0.210 C 
BRANCH   5   6
HETATM    6  C           1     -25.749  -7.644 -21.037  0.00  0.00     0.198 C 
HETATM    7  O           1     -26.460  -8.589 -21.443  0.00  0.00    -0.646 OA
HETATM    8  O           1     -24.697  -7.348 -21.643  0.00  0.00    -0.646 OA
ENDBRANCH   5   6
BRANCH   5   9
HETATM    9  C           1     -25.089  -6.989 -18.743  0.00  0.00     0.217 C 
BRANCH   9  10
HETATM   10  O           1     -25.376  -6.114 -17.685  0.00  0.00    -0.287 OA
BRANCH  10  11
HETATM   11  P           1     -25.464  -6.782 -16.218  0.00  0.00     0.406 P 
HETATM   12  O           1     -25.153  -5.764 -15.191  0.00  0.00    -0.624 OA
HETATM   13  O           1     -24.491  -7.892 -16.123  0.00  0.00    -0.624 OA
BRANCH  11  14
HETATM   14  O           1     -26.956  -7.351 -15.975  0.00  0.00    -0.300 OA
HETATM   15  H           1     -26.952  -7.677 -15.091  0.00  0.00     0.223 HD
ENDBRANCH  11  14
ENDBRANCH  10  11
ENDBRANCH   9  10
ENDBRANCH   5   9
ENDBRANCH   1   5
BRANCH   3  16
HETATM   16  C           1     -29.705  -7.065 -18.372  0.00  0.00     0.302 C 
BRANCH  16  17
HETATM   17  N           1     -29.441  -8.295 -17.558  0.00  0.00    -0.064 N 
HETATM   18  H           1     -30.112  -9.048 -17.835  0.00  0.00     0.275 HD
HETATM   19  H           1     -28.463  -8.622 -17.728  0.00  0.00     0.275 HD
HETATM   20  H           1     -29.564  -8.076 -16.545  0.00  0.00     0.275 HD
ENDBRANCH  16  17
BRANCH  16  21
HETATM   21  C           1     -30.377  -6.012 -17.499  0.00  0.00     0.153 C 
HETATM   22  C           1     -31.810  -6.437 -17.207  0.00  0.00     0.042 C 
BRANCH  21  23
HETATM   23  O           1     -29.672  -5.887 -16.294  0.00  0.00    -0.393 OA
HETATM   24  H           1     -29.075  -6.614 -16.249  0.00  0.00     0.210 HD
ENDBRANCH  21  23
ENDBRANCH  16  21
ENDBRANCH   3  16
TORSDOF 10
ENDMDL
MODEL 2
REMARK VINA RESULT:      -5.5     10.185     11.996
REMARK  10 active torsions:
REMARK  status: ('A' for Active; 'I' for Inactive)
REMARK    1  A    between atoms: N_3  and  C_12 
REMARK       I    between atoms: N_3  and  C_6 
REMARK    2  A    between atoms: C_6  and  C_15 
REMARK    3  A    between atoms: O_8  and  C_20 
REMARK    4  A    between atoms: O_8  and  P_14 
REMARK    5  A    between atoms: N_9  and  C_15 
REMARK    6  A    between atoms: O_11  and  P_14 
REMARK    7  A    between atoms: C_12  and  C_13 
REMARK    8  A    between atoms: C_12  and  C_20 
REMARK    9  A    between atoms: C_15  and  C_22 
REMARK   10  A    between atoms: C_22  and  O_23 
ROOT
HETATM    1  N           1     -22.214  -5.295  -8.664  0.00  0.00    -0.343 N 
HETATM    2  H           1     -22.340  -6.238  -9.011  0.00  0.00     0.163 HD
HETATM    3  C           1     -23.055  -4.297  -9.080  0.00  0.00     0.251 C 
HETATM    4  O           1     -22.906  -3.171  -8.666  0.00  0.00    -0.271 OA
ENDROOT
BRANCH   1   5
HETATM    5  C           1     -21.147  -5.002  -7.729  0.00  0.00     0.210 C 
BRANCH   5   6
HETATM    6  C           1     -19.903  -4.613  -8.491  0.00  0.00     0.198 C 
HETATM    7  O           1     -18.912  -4.159  -7.881  0.00  0.00    -0.646 OA
HETATM    8  O           1     -19.865  -4.747  -9.733  0.00  0.00    -0.646 OA
ENDBRANCH   5   6
BRANCH   5   9
HETATM    9  C           1     -20.860  -6.236  -6.884  0.00  0.00     0.217 C 
BRANCH   9  10
HETATM   10  O           1     -20.786  -5.872  -5.533  0.00  0.00    -0.287 OA
BRANCH  10  11
HETATM   11  P           1     -21.929  -6.485  -4.570  0.00  0.00     0.406 P 
HETATM   12  O           1     -21.756  -5.957  -3.199  0.00  0.00    -0.624 OA
HETATM   13  O           1     -21.813  -7.960  -4.548  0.00  0.00    -0.624 OA
BRANCH  11  14
HETATM   14  O           1     -23.384  -6.067  -5.129  0.00  0.00    -0.300 OA
HETATM   15  H           1     -23.556  -5.220  -4.753  0.00  0.00     0.223 HD
ENDBRANCH  11  14
ENDBRANCH  10  11
ENDBRANCH   9  10
ENDBRANCH   5   9
ENDBRANCH   1   5
BRANCH   3  16
HETATM   16  C           1     -24.166  -4.603 -10.053  0.00  0.00     0.302 C 
BRANCH  16  17
HETATM   17  N           1     -25.319  -3.678  -9.800  0.00  0.00    -0.064 N 
HETATM   18  H           1     -24.995  -2.687  -9.877  0.00  0.00     0.275 HD
HETATM   19  H           1     -26.068  -3.854 -10.507  0.00  0.00     0.275 HD
HETATM   20  H           1     -25.698  -3.847  -8.842  0.00  0.00     0.275 HD
ENDBRANCH  16  17
BRANCH  16  21
HETATM   21  C           1     -23.663  -4.408 -11.478  0.00  0.00     0.153 C 
HETATM   22  C           1     -24.242  -3.121 -12.048  0.00  0.00     0.042 C 
BRANCH  21  23
HETATM   23  O           1     -22.264  -4.328 -11.472  0.00  0.00    -0.393 OA
HETATM   24  H           1     -22.040  -3.467 -11.165  0.00  0.00     0.210 HD
ENDBRANCH  21  23
ENDBRANCH  16  21
ENDBRANCH   3  16
TORSDOF 10
ENDMDL
MODEL 3
REMARK VINA RESULT:      -5.4      2.325      5.451
REMARK  10 active torsions:
REMARK  status: ('A' for Active; 'I' for Inactive)
REMARK    1  A    between atoms: N_3  and  C_12 
REMARK       I    between atoms: N_3  and  C_6 
REMARK    2  A    between atoms: C_6  and  C_15 
REMARK    3  A    between atoms: O_8  and  C_20 
REMARK    4  A    between atoms: O_8  and  P_14 
REMARK    5  A    between atoms: N_9  and  C_15 
REMARK    6  A    between atoms: O_11  and  P_14 
REMARK    7  A    between atoms: C_12  and  C_13 
REMARK    8  A    between atoms: C_12  and  C_20 
REMARK    9  A    between atoms: C_15  and  C_22 
REMARK   10  A    between atoms: C_22  and  O_23 
ROOT
HETATM    1  N           1     -26.194  -7.110 -18.641  0.00  0.00    -0.343 N 
HETATM    2  H           1     -26.931  -7.718 -18.977  0.00  0.00     0.163 HD
HETATM    3  C           1     -25.010  -7.033 -19.323  0.00  0.00     0.251 C 
HETATM    4  O           1     -24.130  -6.308 -18.923  0.00  0.00    -0.271 OA
ENDROOT
BRANCH   1   5
HETATM    5  C           1     -26.393  -6.324 -17.440  0.00  0.00     0.210 C 
BRANCH   5   6
HETATM    6  C           1     -25.957  -7.125 -16.237  0.00  0.00     0.198 C 
HETATM    7  O           1     -26.793  -7.452 -15.367  0.00  0.00    -0.646 OA
HETATM    8  O           1     -24.760  -7.460 -16.111  0.00  0.00    -0.646 OA
ENDBRANCH   5   6
BRANCH   5   9
HETATM    9  C           1     -27.868  -5.969 -17.306  0.00  0.00     0.217 C 
BRANCH   9  10
HETATM   10  O           1     -28.582  -6.517 -18.381  0.00  0.00    -0.287 OA
BRANCH  10  11
HETATM   11  P           1     -29.747  -7.566 -17.997  0.00  0.00     0.406 P 
HETATM   12  O           1     -30.081  -8.390 -19.179  0.00  0.00    -0.624 OA
HETATM   13  O           1     -30.950  -6.825 -17.557  0.00  0.00    -0.624 OA
BRANCH  11  14
HETATM   14  O           1     -29.237  -8.522 -16.800  0.00  0.00    -0.300 OA
HETATM   15  H           1     -29.885  -9.203 -16.739  0.00  0.00     0.223 HD
ENDBRANCH  11  14
ENDBRANCH  10  11
ENDBRANCH   9  10
ENDBRANCH   5   9
ENDBRANCH   1   5
BRANCH   3  16
HETATM   16  C           1     -24.803  -7.851 -20.573  0.00  0.00     0.302 C 
BRANCH  16  17
HETATM   17  N           1     -26.133  -8.300 -21.102  0.00  0.00    -0.064 N 
HETATM   18  H           1     -26.461  -7.630 -21.835  0.00  0.00     0.275 HD
HETATM   19  H           1     -26.037  -9.253 -21.520  0.00  0.00     0.275 HD
HETATM   20  H           1     -26.826  -8.330 -20.322  0.00  0.00     0.275 HD
ENDBRANCH  16  17
BRANCH  16  21
HETATM   21  C           1     -24.099  -7.004 -21.625  0.00  0.00     0.153 C 
HETATM   22  C           1     -23.902  -7.827 -22.891  0.00  0.00     0.042 C 
BRANCH  21  23
HETATM   23  O           1     -24.880  -5.877 -21.918  0.00  0.00    -0.393 OA
HETATM   24  H           1     -24.843  -5.316 -21.163  0.00  0.00     0.210 HD
ENDBRANCH  21  23
ENDBRANCH  16  21
ENDBRANCH   3  16
TORSDOF 10
ENDMDL
MODEL 4
REMARK VINA RESULT:      -5.1      2.362      5.623
REMARK  10 active torsions:
REMARK  status: ('A' for Active; 'I' for Inactive)
REMARK    1  A    between atoms: N_3  and  C_12 
REMARK       I    between atoms: N_3  and  C_6 
REMARK    2  A    between atoms: C_6  and  C_15 
REMARK    3  A    between atoms: O_8  and  C_20 
REMARK    4  A    between atoms: O_8  and  P_14 
REMARK    5  A    between atoms: N_9  and  C_15 
REMARK    6  A    between atoms: O_11  and  P_14 
REMARK    7  A    between atoms: C_12  and  C_13 
REMARK    8  A    between atoms: C_12  and  C_20 
REMARK    9  A    between atoms: C_15  and  C_22 
REMARK   10  A    between atoms: C_22  and  O_23 
ROOT
HETATM    1  N           1     -26.316  -7.240 -19.658  0.00  0.00    -0.343 N 
HETATM    2  H           1     -26.451  -8.235 -19.520  0.00  0.00     0.163 HD
HETATM    3  C           1     -25.506  -6.795 -20.667  0.00  0.00     0.251 C 
HETATM    4  O           1     -25.344  -5.609 -20.832  0.00  0.00    -0.271 OA
ENDROOT
BRANCH   1   5
HETATM    5  C           1     -26.979  -6.291 -18.787  0.00  0.00     0.210 C 
BRANCH   5   6
HETATM    6  C           1     -26.250  -6.225 -17.467  0.00  0.00     0.198 C 
HETATM    7  O           1     -25.050  -6.570 -17.397  0.00  0.00    -0.646 OA
HETATM    8  O           1     -26.845  -5.824 -16.444  0.00  0.00    -0.646 OA
ENDBRANCH   5   6
BRANCH   5   9
HETATM    9  C           1     -28.416  -6.738 -18.551  0.00  0.00     0.217 C 
BRANCH   9  10
HETATM   10  O           1     -29.236  -5.613 -18.386  0.00  0.00    -0.287 OA
BRANCH  10  11
HETATM   11  P           1     -30.397  -5.739 -17.272  0.00  0.00     0.406 P 
HETATM   12  O           1     -29.785  -5.875 -15.932  0.00  0.00    -0.624 OA
HETATM   13  O           1     -31.226  -6.931 -17.558  0.00  0.00    -0.624 OA
BRANCH  11  14
HETATM   14  O           1     -31.324  -4.417 -17.308  0.00  0.00    -0.300 OA
HETATM   15  H           1     -32.084  -4.666 -17.806  0.00  0.00     0.223 HD
ENDBRANCH  11  14
ENDBRANCH  10  11
ENDBRANCH   9  10
ENDBRANCH   5   9
ENDBRANCH   1   5
BRANCH   3  16
HETATM   16  C           1     -24.815  -7.784 -21.574  0.00  0.00     0.302 C 
BRANCH  16  17
HETATM   17  N           1     -24.232  -7.059 -22.750  0.00  0.00    -0.064 N 
HETATM   18  H           1     -23.832  -6.146 -22.434  0.00  0.00     0.275 HD
HETATM   19  H           1     -23.475  -7.640 -23.176  0.00  0.00     0.275 HD
HETATM   20  H           1     -24.979  -6.886 -23.458  0.00  0.00     0.275 HD
ENDBRANCH  16  17
BRANCH  16  21
HETATM   21  C           1     -23.701  -8.486 -20.807  0.00  0.00     0.153 C 
HETATM   22  C           1     -22.454  -8.555 -21.677  0.00  0.00     0.042 C 
BRANCH  21  23
HETATM   23  O           1     -23.416  -7.769 -19.637  0.00  0.00    -0.393 OA
HETATM   24  H           1     -22.478  -7.744 -19.553  0.00  0.00     0.210 HD
ENDBRANCH  21  23
ENDBRANCH  16  21
ENDBRANCH   3  16
TORSDOF 10
ENDMDL
MODEL 5
REMARK VINA RESULT:      -5.1     11.970     13.784
REMARK  10 active torsions:
REMARK  status: ('A' for Active; 'I' for Inactive)
REMARK    1  A    between atoms: N_3  and  C_12 
REMARK       I    between atoms: N_3  and  C_6 
REMARK    2  A    between atoms: C_6  and  C_15 
REMARK    3  A    between atoms: O_8  and  C_20 
REMARK    4  A    between atoms: O_8  and  P_14 
REMARK    5  A    between atoms: N_9  and  C_15 
REMARK    6  A    between atoms: O_11  and  P_14 
REMARK    7  A    between atoms: C_12  and  C_13 
REMARK    8  A    between atoms: C_12  and  C_20 
REMARK    9  A    between atoms: C_15  and  C_22 
REMARK   10  A    between atoms: C_22  and  O_23 
ROOT
HETATM    1  N           1     -21.061  -5.441  -5.737  0.00  0.00    -0.343 N 
HETATM    2  H           1     -20.165  -5.045  -5.483  0.00  0.00     0.163 HD
HETATM    3  C           1     -21.845  -6.027  -4.780  0.00  0.00     0.251 C 
HETATM    4  O           1     -22.915  -6.500  -5.082  0.00  0.00    -0.271 OA
ENDROOT
BRANCH   1   5
HETATM    5  C           1     -21.514  -5.388  -7.113  0.00  0.00     0.210 C 
BRANCH   5   6
HETATM    6  C           1     -20.330  -5.540  -8.037  0.00  0.00     0.198 C 
HETATM    7  O           1     -20.271  -4.872  -9.092  0.00  0.00    -0.646 OA
HETATM    8  O           1     -19.410  -6.334  -7.748  0.00  0.00    -0.646 OA
ENDBRANCH   5   6
BRANCH   5   9
HETATM    9  C           1     -22.192  -4.050  -7.371  0.00  0.00     0.217 C 
BRANCH   9  10
HETATM   10  O           1     -23.508  -4.267  -7.804  0.00  0.00    -0.287 OA
BRANCH  10  11
HETATM   11  P           1     -23.792  -4.002  -9.371  0.00  0.00     0.406 P 
HETATM   12  O           1     -23.733  -5.283 -10.108  0.00  0.00    -0.624 OA
HETATM   13  O           1     -22.768  -3.077  -9.907  0.00  0.00    -0.624 OA
BRANCH  11  14
HETATM   14  O           1     -25.256  -3.345  -9.549  0.00  0.00    -0.300 OA
HETATM   15  H           1     -25.255  -2.589  -8.987  0.00  0.00     0.223 HD
ENDBRANCH  11  14
ENDBRANCH  10  11
ENDBRANCH   9  10
ENDBRANCH   5   9
ENDBRANCH   1   5
BRANCH   3  16
HETATM   16  C           1     -21.374  -6.082  -3.347  0.00  0.00     0.302 C 
BRANCH  16  17
HETATM   17  N           1     -22.545  -5.901  -2.429  0.00  0.00    -0.064 N 
HETATM   18  H           1     -22.230  -6.003  -1.437  0.00  0.00     0.275 HD
HETATM   19  H           1     -22.951  -4.948  -2.568  0.00  0.00     0.275 HD
HETATM   20  H           1     -23.269  -6.623  -2.640  0.00  0.00     0.275 HD
ENDBRANCH  16  17
BRANCH  16  21
HETATM   21  C           1     -20.722  -7.433  -3.078  0.00  0.00     0.153 C 
HETATM   22  C           1     -21.548  -8.198  -2.052  0.00  0.00     0.042 C 
BRANCH  21  23
HETATM   23  O           1     -20.660  -8.168  -4.269  0.00  0.00    -0.393 OA
HETATM   24  H           1     -19.854  -7.933  -4.694  0.00  0.00     0.210 HD
ENDBRANCH  21  23
ENDBRANCH  16  21
ENDBRANCH   3  16
TORSDOF 10
ENDMDL
MODEL 6
REMARK VINA RESULT:      -4.9     13.803     15.734
REMARK  10 active torsions:
REMARK  status: ('A' for Active; 'I' for Inactive)
REMARK    1  A    between atoms: N_3  and  C_12 
REMARK       I    between atoms: N_3  and  C_6 
REMARK    2  A    between atoms: C_6  and  C_15 
REMARK    3  A    between atoms: O_8  and  C_20 
REMARK    4  A    between atoms: O_8  and  P_14 
REMARK    5  A    between atoms: N_9  and  C_15 
REMARK    6  A    between atoms: O_11  and  P_14 
REMARK    7  A    between atoms: C_12  and  C_13 
REMARK    8  A    between atoms: C_12  and  C_20 
REMARK    9  A    between atoms: C_15  and  C_22 
REMARK   10  A    between atoms: C_22  and  O_23 
ROOT
HETATM    1  N           1     -21.650  -6.251  -5.105  0.00  0.00    -0.343 N 
HETATM    2  H           1     -22.517  -6.668  -5.423  0.00  0.00     0.163 HD
HETATM    3  C           1     -21.107  -5.198  -5.791  0.00  0.00     0.251 C 
HETATM    4  O           1     -20.074  -4.700  -5.412  0.00  0.00    -0.271 OA
ENDROOT
BRANCH   1   5
HETATM    5  C           1     -20.986  -6.770  -3.926  0.00  0.00     0.210 C 
BRANCH   5   6
HETATM    6  C           1     -20.648  -8.226  -4.139  0.00  0.00     0.198 C 
HETATM    7  O           1     -19.455  -8.581  -4.250  0.00  0.00    -0.646 OA
HETATM    8  O           1     -21.562  -9.075  -4.204  0.00  0.00    -0.646 OA
ENDBRANCH   5   6
BRANCH   5   9
HETATM    9  C           1     -21.909  -6.633  -2.723  0.00  0.00     0.217 C 
BRANCH   9  10
HETATM   10  O           1     -21.227  -7.021  -1.562  0.00  0.00    -0.287 OA
BRANCH  10  11
HETATM   11  P           1     -22.031  -8.001  -0.562  0.00  0.00     0.406 P 
HETATM   12  O           1     -23.267  -7.333  -0.102  0.00  0.00    -0.624 OA
HETATM   13  O           1     -21.179  -8.320   0.605  0.00  0.00    -0.624 OA
BRANCH  11  14
HETATM   14  O           1     -22.413  -9.365  -1.337  0.00  0.00    -0.300 OA
HETATM   15  H           1     -22.099 -10.058  -0.782  0.00  0.00     0.223 HD
ENDBRANCH  11  14
ENDBRANCH  10  11
ENDBRANCH   9  10
ENDBRANCH   5   9
ENDBRANCH   1   5
BRANCH   3  16
HETATM   16  C           1     -21.799  -4.658  -7.018  0.00  0.00     0.302 C 
BRANCH  16  17
HETATM   17  N           1     -21.662  -3.166  -7.053  0.00  0.00    -0.064 N 
HETATM   18  H           1     -22.085  -2.797  -7.936  0.00  0.00     0.275 HD
HETATM   19  H           1     -22.156  -2.751  -6.231  0.00  0.00     0.275 HD
HETATM   20  H           1     -20.650  -2.908  -7.018  0.00  0.00     0.275 HD
ENDBRANCH  16  17
BRANCH  16  21
HETATM   21  C           1     -21.162  -5.256  -8.266  0.00  0.00     0.153 C 
HETATM   22  C           1     -20.607  -4.137  -9.137  0.00  0.00     0.042 C 
BRANCH  21  23
HETATM   23  O           1     -20.121  -6.117  -7.892  0.00  0.00    -0.393 OA
HETATM   24  H           1     -19.653  -6.339  -8.679  0.00  0.00     0.210 HD
ENDBRANCH  21  23
ENDBRANCH  16  21
ENDBRANCH   3  16
TORSDOF 10
ENDMDL
MODEL 7
REMARK VINA RESULT:      -4.8     16.048     17.814
REMARK  10 active torsions:
REMARK  status: ('A' for Active; 'I' for Inactive)
REMARK    1  A    between atoms: N_3  and  C_12 
REMARK       I    between atoms: N_3  and  C_6 
REMARK    2  A    between atoms: C_6  and  C_15 
REMARK    3  A    between atoms: O_8  and  C_20 
REMARK    4  A    between atoms: O_8  and  P_14 
REMARK    5  A    between atoms: N_9  and  C_15 
REMARK    6  A    between atoms: O_11  and  P_14 
REMARK    7  A    between atoms: C_12  and  C_13 
REMARK    8  A    between atoms: C_12  and  C_20 
REMARK    9  A    between atoms: C_15  and  C_22 
REMARK   10  A    between atoms: C_22  and  O_23 
ROOT
HETATM    1  N           1     -21.931  -9.338  -1.707  0.00  0.00    -0.343 N 
HETATM    2  H           1     -22.562  -9.446  -2.492  0.00  0.00     0.163 HD
HETATM    3  C           1     -21.659 -10.408  -0.897  0.00  0.00     0.251 C 
HETATM    4  O           1     -20.907 -10.280   0.040  0.00  0.00    -0.271 OA
ENDROOT
BRANCH   1   5
HETATM    5  C           1     -21.318  -8.052  -1.441  0.00  0.00     0.210 C 
BRANCH   5   6
HETATM    6  C           1     -22.365  -7.092  -0.930  0.00  0.00     0.198 C 
HETATM    7  O           1     -23.191  -7.467  -0.070  0.00  0.00    -0.646 OA
HETATM    8  O           1     -22.405  -5.922  -1.368  0.00  0.00    -0.646 OA
ENDBRANCH   5   6
BRANCH   5   9
HETATM    9  C           1     -20.711  -7.505  -2.726  0.00  0.00     0.217 C 
BRANCH   9  10
HETATM   10  O           1     -21.553  -7.804  -3.806  0.00  0.00    -0.287 OA
BRANCH  10  11
HETATM   11  P           1     -21.675  -6.667  -4.946  0.00  0.00     0.406 P 
HETATM   12  O           1     -20.817  -5.516  -4.589  0.00  0.00    -0.624 OA
HETATM   13  O           1     -23.082  -6.221  -5.047  0.00  0.00    -0.624 OA
BRANCH  11  14
HETATM   14  O           1     -21.199  -7.273  -6.365  0.00  0.00    -0.300 OA
HETATM   15  H           1     -21.617  -8.115  -6.422  0.00  0.00     0.223 HD
ENDBRANCH  11  14
ENDBRANCH  10  11
ENDBRANCH   9  10
ENDBRANCH   5   9
ENDBRANCH   1   5
BRANCH   3  16
HETATM   16  C           1     -22.297 -11.747  -1.174  0.00  0.00     0.302 C 
BRANCH  16  17
HETATM   17  N           1     -21.377 -12.841  -0.724  0.00  0.00    -0.064 N 
HETATM   18  H           1     -20.390 -12.586  -0.960  0.00  0.00     0.275 HD
HETATM   19  H           1     -21.465 -12.967   0.309  0.00  0.00     0.275 HD
HETATM   20  H           1     -21.631 -13.731  -1.207  0.00  0.00     0.275 HD
ENDBRANCH  16  17
BRANCH  16  21
HETATM   21  C           1     -23.615 -11.848  -0.416  0.00  0.00     0.153 C 
HETATM   22  C           1     -23.431 -12.743   0.802  0.00  0.00     0.042 C 
BRANCH  21  23
HETATM   23  O           1     -24.015 -10.571  -0.001  0.00  0.00    -0.393 OA
HETATM   24  H           1     -23.232 -10.057   0.094  0.00  0.00     0.210 HD
ENDBRANCH  21  23
ENDBRANCH  16  21
ENDBRANCH   3  16
TORSDOF 10
ENDMDL
MODEL 8
REMARK VINA RESULT:      -4.7     13.571     15.627
REMARK  10 active torsions:
REMARK  status: ('A' for Active; 'I' for Inactive)
REMARK    1  A    between atoms: N_3  and  C_12 
REMARK       I    between atoms: N_3  and  C_6 
REMARK    2  A    between atoms: C_6  and  C_15 
REMARK    3  A    between atoms: O_8  and  C_20 
REMARK    4  A    between atoms: O_8  and  P_14 
REMARK    5  A    between atoms: N_9  and  C_15 
REMARK    6  A    between atoms: O_11  and  P_14 
REMARK    7  A    between atoms: C_12  and  C_13 
REMARK    8  A    between atoms: C_12  and  C_20 
REMARK    9  A    between atoms: C_15  and  C_22 
REMARK   10  A    between atoms: C_22  and  O_23 
ROOT
HETATM    1  N           1     -20.969  -7.018  -4.588  0.00  0.00    -0.343 N 
HETATM    2  H           1     -19.966  -6.967  -4.722  0.00  0.00     0.163 HD
HETATM    3  C           1     -21.790  -6.132  -5.232  0.00  0.00     0.251 C 
HETATM    4  O           1     -22.986  -6.192  -5.074  0.00  0.00    -0.271 OA
ENDROOT
BRANCH   1   5
HETATM    5  C           1     -21.534  -8.028  -3.716  0.00  0.00     0.210 C 
BRANCH   5   6
HETATM    6  C           1     -21.088  -7.774  -2.297  0.00  0.00     0.198 C 
HETATM    7  O           1     -20.022  -8.274  -1.877  0.00  0.00    -0.646 OA
HETATM    8  O           1     -21.785  -7.063  -1.542  0.00  0.00    -0.646 OA
ENDBRANCH   5   6
BRANCH   5   9
HETATM    9  C           1     -21.056  -9.405  -4.160  0.00  0.00     0.217 C 
BRANCH   9  10
HETATM   10  O           1     -20.321  -9.285  -5.348  0.00  0.00    -0.287 OA
BRANCH  10  11
HETATM   11  P           1     -18.781  -9.767  -5.280  0.00  0.00     0.406 P 
HETATM   12  O           1     -18.034  -9.199  -6.423  0.00  0.00    -0.624 OA
HETATM   13  O           1     -18.725 -11.245  -5.340  0.00  0.00    -0.624 OA
BRANCH  11  14
HETATM   14  O           1     -18.118  -9.258  -3.898  0.00  0.00    -0.300 OA
HETATM   15  H           1     -18.289  -9.946  -3.278  0.00  0.00     0.223 HD
ENDBRANCH  11  14
ENDBRANCH  10  11
ENDBRANCH   9  10
ENDBRANCH   5   9
ENDBRANCH   1   5
BRANCH   3  16
HETATM   16  C           1     -21.201  -5.080  -6.140  0.00  0.00     0.302 C 
BRANCH  16  17
HETATM   17  N           1     -20.031  -4.433  -5.463  0.00  0.00    -0.064 N 
HETATM   18  H           1     -19.782  -3.550  -5.964  0.00  0.00     0.275 HD
HETATM   19  H           1     -20.281  -4.212  -4.473  0.00  0.00     0.275 HD
HETATM   20  H           1     -19.215  -5.084  -5.479  0.00  0.00     0.275 HD
ENDBRANCH  16  17
BRANCH  16  21
HETATM   21  C           1     -20.740  -5.730  -7.439  0.00  0.00     0.153 C 
HETATM   22  C           1     -20.122  -4.672  -8.343  0.00  0.00     0.042 C 
BRANCH  21  23
HETATM   23  O           1     -19.786  -6.716  -7.155  0.00  0.00    -0.393 OA
HETATM   24  H           1     -20.157  -7.540  -7.422  0.00  0.00     0.210 HD
ENDBRANCH  21  23
ENDBRANCH  16  21
ENDBRANCH   3  16
TORSDOF 10
ENDMDL
MODEL 9
REMARK VINA RESULT:      -4.6     14.812     16.489
REMARK  10 active torsions:
REMARK  status: ('A' for Active; 'I' for Inactive)
REMARK    1  A    between atoms: N_3  and  C_12 
REMARK       I    between atoms: N_3  and  C_6 
REMARK    2  A    between atoms: C_6  and  C_15 
REMARK    3  A    between atoms: O_8  and  C_20 
REMARK    4  A    between atoms: O_8  and  P_14 
REMARK    5  A    between atoms: N_9  and  C_15 
REMARK    6  A    between atoms: O_11  and  P_14 
REMARK    7  A    between atoms: C_12  and  C_13 
REMARK    8  A    between atoms: C_12  and  C_20 
REMARK    9  A    between atoms: C_15  and  C_22 
REMARK   10  A    between atoms: C_22  and  O_23 
ROOT
HETATM    1  N           1     -20.821  -7.972  -3.256  0.00  0.00    -0.343 N 
HETATM    2  H           1     -20.475  -7.020  -3.229  0.00  0.00     0.163 HD
HETATM    3  C           1     -21.423  -8.510  -2.151  0.00  0.00     0.251 C 
HETATM    4  O           1     -21.836  -9.645  -2.181  0.00  0.00    -0.271 OA
ENDROOT
BRANCH   1   5
HETATM    5  C           1     -20.676  -8.762  -4.461  0.00  0.00     0.210 C 
BRANCH   5   6
HETATM    6  C           1     -19.210  -8.938  -4.775  0.00  0.00     0.198 C 
HETATM    7  O           1     -18.393  -9.138  -3.850  0.00  0.00    -0.646 OA
HETATM    8  O           1     -18.814  -8.884  -5.959  0.00  0.00    -0.646 OA
ENDBRANCH   5   6
BRANCH   5   9
HETATM    9  C           1     -21.361  -8.049  -5.620  0.00  0.00     0.217 C 
BRANCH   9  10
HETATM   10  O           1     -21.617  -6.717  -5.265  0.00  0.00    -0.287 OA
BRANCH  10  11
HETATM   11  P           1     -21.032  -5.592  -6.264  0.00  0.00     0.406 P 
HETATM   12  O           1     -20.289  -6.246  -7.364  0.00  0.00    -0.624 OA
HETATM   13  O           1     -20.121  -4.696  -5.518  0.00  0.00    -0.624 OA
BRANCH  11  14
HETATM   14  O           1     -22.253  -4.731  -6.877  0.00  0.00    -0.300 OA
HETATM   15  H           1     -22.855  -5.369  -7.218  0.00  0.00     0.223 HD
ENDBRANCH  11  14
ENDBRANCH  10  11
ENDBRANCH   9  10
ENDBRANCH   5   9
ENDBRANCH   1   5
BRANCH   3  16
HETATM   16  C           1     -21.574  -7.686  -0.896  0.00  0.00     0.302 C 
BRANCH  16  17
HETATM   17  N           1     -22.436  -6.493  -1.181  0.00  0.00    -0.064 N 
HETATM   18  H           1     -22.706  -6.034  -0.281  0.00  0.00     0.275 HD
HETATM   19  H           1     -21.906  -5.814  -1.772  0.00  0.00     0.275 HD
HETATM   20  H           1     -23.297  -6.799  -1.688  0.00  0.00     0.275 HD
ENDBRANCH  16  17
BRANCH  16  21
HETATM   21  C           1     -22.222  -8.532   0.193  0.00  0.00     0.153 C 
HETATM   22  C           1     -21.295  -8.603   1.399  0.00  0.00     0.042 C 
BRANCH  21  23
HETATM   23  O           1     -23.439  -7.951   0.573  0.00  0.00    -0.393 OA
HETATM   24  H           1     -24.071  -8.647   0.624  0.00  0.00     0.210 HD
ENDBRANCH  21  23
ENDBRANCH  16  21
ENDBRANCH   3  16
TORSDOF 10
ENDMDL
