MODEL 1
REMARK VINA RESULT:      -5.8      0.000      0.000
REMARK  9 active torsions:
REMARK  status: ('A' for Active; 'I' for Inactive)
REMARK    1  A    between atoms: N_6  and  C_10 
REMARK    2  A    between atoms: S_7  and  C_12 
REMARK    3  A    between atoms: C_8  and  C_9 
REMARK    4  A    between atoms: C_9  and  C_17 
REMARK    5  A    between atoms: C_9  and  N_14 
REMARK    6  A    between atoms: C_10  and  C_18 
REMARK    7  A    between atoms: C_10  and  C_11 
REMARK    8  A    between atoms: C_11  and  C_12 
REMARK    9  A    between atoms: O_13  and  C_17 
REMARK       I    between atoms: N_14  and  C_18 
ROOT
HETATM    1  H           1     -22.041  -5.757  -9.545  0.00  0.00     0.163 HD
HETATM    2  N           1     -22.097  -4.848  -9.103  0.00  0.00    -0.343 N 
HETATM    3  C           1     -21.720  -4.699  -7.796  0.00  0.00     0.249 C 
HETATM    4  O           1     -21.786  -3.614  -7.269  0.00  0.00    -0.271 OA
ENDROOT
BRANCH   3   5
HETATM    5  C           1     -21.222  -5.889  -7.013  0.00  0.00     0.275 C 
BRANCH   5   6
HETATM    6  N           1     -19.812  -6.198  -7.418  0.00  0.00    -0.066 N 
HETATM    7  H           1     -19.732  -6.159  -8.460  0.00  0.00     0.275 HD
HETATM    8  H           1     -19.165  -5.497  -6.993  0.00  0.00     0.275 HD
HETATM    9  H           1     -19.555  -7.155  -7.085  0.00  0.00     0.275 HD
ENDBRANCH   5   6
BRANCH   5  10
HETATM   10  C           1     -21.263  -5.572  -5.524  0.00  0.00     0.053 C 
BRANCH  10  11
HETATM   11  C           1     -22.195  -6.551  -4.822  0.00  0.00     0.076 C 
BRANCH  11  12
HETATM   12  S           1     -21.337  -7.292  -3.404  0.00  0.00    -0.173 SA
HETATM   13  C           1     -22.069  -6.213  -2.142  0.00  0.00     0.089 C 
ENDBRANCH  11  12
ENDBRANCH  10  11
ENDBRANCH   5  10
ENDBRANCH   3   5
BRANCH   2  14
HETATM   14  C           1     -22.575  -3.705  -9.856  0.00  0.00     0.214 C 
BRANCH  14  15
HETATM   15  C           1     -24.051  -3.868 -10.132  0.00  0.00     0.199 C 
HETATM   16  O           1     -24.605  -4.971  -9.936  0.00  0.00    -0.646 OA
HETATM   17  O           1     -24.718  -2.900 -10.555  0.00  0.00    -0.646 OA
ENDBRANCH  14  15
BRANCH  14  18
HETATM   18  C           1     -21.818  -3.613 -11.174  0.00  0.00     0.147 C 
HETATM   19  C           1     -20.424  -4.199 -11.000  0.00  0.00     0.042 C 
BRANCH  18  20
HETATM   20  O           1     -22.509  -4.332 -12.159  0.00  0.00    -0.393 OA
HETATM   21  H           1     -23.351  -3.923 -12.258  0.00  0.00     0.210 HD
ENDBRANCH  18  20
ENDBRANCH  14  18
ENDBRANCH   2  14
TORSDOF 9
ENDMDL
MODEL 2
REMARK VINA RESULT:      -5.2      3.374      6.311
REMARK  9 active torsions:
REMARK  status: ('A' for Active; 'I' for Inactive)
REMARK    1  A    between atoms: N_6  and  C_10 
REMARK    2  A    between atoms: S_7  and  C_12 
REMARK    3  A    between atoms: C_8  and  C_9 
REMARK    4  A    between atoms: C_9  and  C_17 
REMARK    5  A    between atoms: C_9  and  N_14 
REMARK    6  A    between atoms: C_10  and  C_18 
REMARK    7  A    between atoms: C_10  and  C_11 
REMARK    8  A    between atoms: C_11  and  C_12 
REMARK    9  A    between atoms: O_13  and  C_17 
REMARK       I    between atoms: N_14  and  C_18 
ROOT
HETATM    1  H           1     -22.155  -6.132  -8.528  0.00  0.00     0.163 HD
HETATM    2  N           1     -22.093  -5.142  -8.328  0.00  0.00    -0.343 N 
HETATM    3  C           1     -23.004  -4.277  -8.873  0.00  0.00     0.249 C 
HETATM    4  O           1     -22.931  -3.095  -8.635  0.00  0.00    -0.271 OA
ENDROOT
BRANCH   3   5
HETATM    5  C           1     -24.098  -4.800  -9.771  0.00  0.00     0.275 C 
BRANCH   5   6
HETATM    6  N           1     -25.277  -3.875  -9.711  0.00  0.00    -0.066 N 
HETATM    7  H           1     -25.577  -3.756  -8.717  0.00  0.00     0.275 HD
HETATM    8  H           1     -25.013  -2.946 -10.109  0.00  0.00     0.275 HD
HETATM    9  H           1     -26.065  -4.280 -10.266  0.00  0.00     0.275 HD
ENDBRANCH   5   6
BRANCH   5  10
HETATM   10  C           1     -23.587  -4.878 -11.204  0.00  0.00     0.053 C 
BRANCH  10  11
HETATM   11  C           1     -24.110  -3.686 -11.995  0.00  0.00     0.076 C 
BRANCH  11  12
HETATM   12  S           1     -22.714  -2.656 -12.531  0.00  0.00    -0.173 SA
HETATM   13  C           1     -23.077  -2.738 -14.307  0.00  0.00     0.089 C 
ENDBRANCH  11  12
ENDBRANCH  10  11
ENDBRANCH   5  10
ENDBRANCH   3   5
BRANCH   2  14
HETATM   14  C           1     -21.042  -4.641  -7.465  0.00  0.00     0.214 C 
BRANCH  14  15
HETATM   15  C           1     -19.763  -4.508  -8.257  0.00  0.00     0.199 C 
HETATM   16  O           1     -18.681  -4.303  -7.667  0.00  0.00    -0.646 OA
HETATM   17  O           1     -19.787  -4.603  -9.503  0.00  0.00    -0.646 OA
ENDBRANCH  14  15
BRANCH  14  18
HETATM   18  C           1     -20.827  -5.610  -6.311  0.00  0.00     0.147 C 
HETATM   19  C           1     -22.173  -5.981  -5.703  0.00  0.00     0.042 C 
BRANCH  18  20
HETATM   20  O           1     -20.194  -6.767  -6.786  0.00  0.00    -0.393 OA
HETATM   21  H           1     -19.359  -6.820  -6.353  0.00  0.00     0.210 HD
ENDBRANCH  18  20
ENDBRANCH  14  18
ENDBRANCH   2  14
TORSDOF 9
ENDMDL
MODEL 3
REMARK VINA RESULT:      -4.8      3.735      6.355
REMARK  9 active torsions:
REMARK  status: ('A' for Active; 'I' for Inactive)
REMARK    1  A    between atoms: N_6  and  C_10 
REMARK    2  A    between atoms: S_7  and  C_12 
REMARK    3  A    between atoms: C_8  and  C_9 
REMARK    4  A    between atoms: C_9  and  C_17 
REMARK    5  A    between atoms: C_9  and  N_14 
REMARK    6  A    between atoms: C_10  and  C_18 
REMARK    7  A    between atoms: C_10  and  C_11 
REMARK    8  A    between atoms: C_11  and  C_12 
REMARK    9  A    between atoms: O_13  and  C_17 
REMARK       I    between atoms: N_14  and  C_18 
ROOT
HETATM    1  H           1     -21.682  -6.428  -6.959  0.00  0.00     0.163 HD
HETATM    2  N           1     -20.993  -6.082  -6.303  0.00  0.00    -0.343 N 
HETATM    3  C           1     -20.359  -4.892  -6.542  0.00  0.00     0.249 C 
HETATM    4  O           1     -19.536  -4.480  -5.759  0.00  0.00    -0.271 OA
ENDROOT
BRANCH   3   5
HETATM    5  C           1     -20.688  -4.097  -7.780  0.00  0.00     0.275 C 
BRANCH   5   6
HETATM    6  N           1     -20.056  -4.747  -8.974  0.00  0.00    -0.066 N 
HETATM    7  H           1     -20.741  -4.766  -9.764  0.00  0.00     0.275 HD
HETATM    8  H           1     -19.210  -4.205  -9.260  0.00  0.00     0.275 HD
HETATM    9  H           1     -19.777  -5.725  -8.731  0.00  0.00     0.275 HD
ENDBRANCH   5   6
BRANCH   5  10
HETATM   10  C           1     -22.199  -4.050  -7.969  0.00  0.00     0.053 C 
BRANCH  10  11
HETATM   11  C           1     -22.523  -3.954  -9.453  0.00  0.00     0.076 C 
BRANCH  11  12
HETATM   12  S           1     -24.279  -3.541  -9.664  0.00  0.00    -0.173 SA
HETATM   13  C           1     -24.207  -3.275 -11.457  0.00  0.00     0.089 C 
ENDBRANCH  11  12
ENDBRANCH  10  11
ENDBRANCH   5  10
ENDBRANCH   3   5
BRANCH   2  14
HETATM   14  C           1     -20.678  -6.846  -5.112  0.00  0.00     0.214 C 
BRANCH  14  15
HETATM   15  C           1     -20.295  -8.253  -5.506  0.00  0.00     0.199 C 
HETATM   16  O           1     -19.100  -8.531  -5.747  0.00  0.00    -0.646 OA
HETATM   17  O           1     -21.171  -9.139  -5.591  0.00  0.00    -0.646 OA
ENDBRANCH  14  15
BRANCH  14  18
HETATM   18  C           1     -21.896  -6.888  -4.199  0.00  0.00     0.147 C 
HETATM   19  C           1     -21.557  -6.222  -2.872  0.00  0.00     0.042 C 
BRANCH  18  20
HETATM   20  O           1     -22.958  -6.206  -4.807  0.00  0.00    -0.393 OA
HETATM   21  H           1     -23.312  -6.780  -5.465  0.00  0.00     0.210 HD
ENDBRANCH  18  20
ENDBRANCH  14  18
ENDBRANCH   2  14
TORSDOF 9
ENDMDL
MODEL 4
REMARK VINA RESULT:      -4.8      3.663      6.797
REMARK  9 active torsions:
REMARK  status: ('A' for Active; 'I' for Inactive)
REMARK    1  A    between atoms: N_6  and  C_10 
REMARK    2  A    between atoms: S_7  and  C_12 
REMARK    3  A    between atoms: C_8  and  C_9 
REMARK    4  A    between atoms: C_9  and  C_17 
REMARK    5  A    between atoms: C_9  and  N_14 
REMARK    6  A    between atoms: C_10  and  C_18 
REMARK    7  A    between atoms: C_10  and  C_11 
REMARK    8  A    between atoms: C_11  and  C_12 
REMARK    9  A    between atoms: O_13  and  C_17 
REMARK       I    between atoms: N_14  and  C_18 
ROOT
HETATM    1  H           1     -19.789  -6.742  -4.754  0.00  0.00     0.163 HD
HETATM    2  N           1     -20.801  -6.713  -4.765  0.00  0.00    -0.343 N 
HETATM    3  C           1     -21.451  -5.870  -5.626  0.00  0.00     0.249 C 
HETATM    4  O           1     -22.659  -5.836  -5.639  0.00  0.00    -0.271 OA
ENDROOT
BRANCH   3   5
HETATM    5  C           1     -20.661  -4.986  -6.558  0.00  0.00     0.275 C 
BRANCH   5   6
HETATM    6  N           1     -20.077  -5.818  -7.660  0.00  0.00    -0.066 N 
HETATM    7  H           1     -20.821  -6.427  -8.068  0.00  0.00     0.275 HD
HETATM    8  H           1     -19.693  -5.191  -8.404  0.00  0.00     0.275 HD
HETATM    9  H           1     -19.309  -6.414  -7.277  0.00  0.00     0.275 HD
ENDBRANCH   5   6
BRANCH   5  10
HETATM   10  C           1     -21.579  -3.926  -7.154  0.00  0.00     0.053 C 
BRANCH  10  11
HETATM   11  C           1     -21.793  -4.214  -8.634  0.00  0.00     0.076 C 
BRANCH  11  12
HETATM   12  S           1     -23.558  -4.057  -9.032  0.00  0.00    -0.173 SA
HETATM   13  C           1     -23.457  -4.802 -10.683  0.00  0.00     0.089 C 
ENDBRANCH  11  12
ENDBRANCH  10  11
ENDBRANCH   5  10
ENDBRANCH   3   5
BRANCH   2  14
HETATM   14  C           1     -21.559  -7.564  -3.870  0.00  0.00     0.214 C 
BRANCH  14  15
HETATM   15  C           1     -21.602  -6.936  -2.497  0.00  0.00     0.199 C 
HETATM   16  O           1     -20.920  -7.420  -1.567  0.00  0.00    -0.646 OA
HETATM   17  O           1     -22.318  -5.933  -2.290  0.00  0.00    -0.646 OA
ENDBRANCH  14  15
BRANCH  14  18
HETATM   18  C           1     -20.894  -8.931  -3.783  0.00  0.00     0.147 C 
HETATM   19  C           1     -21.206  -9.727  -5.043  0.00  0.00     0.042 C 
BRANCH  18  20
HETATM   20  O           1     -19.508  -8.768  -3.664  0.00  0.00    -0.393 OA
HETATM   21  H           1     -19.349  -7.849  -3.533  0.00  0.00     0.210 HD
ENDBRANCH  18  20
ENDBRANCH  14  18
ENDBRANCH   2  14
TORSDOF 9
ENDMDL
MODEL 5
REMARK VINA RESULT:      -4.6      5.683      8.358
REMARK  9 active torsions:
REMARK  status: ('A' for Active; 'I' for Inactive)
REMARK    1  A    between atoms: N_6  and  C_10 
REMARK    2  A    between atoms: S_7  and  C_12 
REMARK    3  A    between atoms: C_8  and  C_9 
REMARK    4  A    between atoms: C_9  and  C_17 
REMARK    5  A    between atoms: C_9  and  N_14 
REMARK    6  A    between atoms: C_10  and  C_18 
REMARK    7  A    between atoms: C_10  and  C_11 
REMARK    8  A    between atoms: C_11  and  C_12 
REMARK    9  A    between atoms: O_13  and  C_17 
REMARK       I    between atoms: N_14  and  C_18 
ROOT
HETATM    1  H           1     -22.353  -8.118  -3.095  0.00  0.00     0.163 HD
HETATM    2  N           1     -21.471  -8.399  -2.687  0.00  0.00    -0.343 N 
HETATM    3  C           1     -20.376  -8.584  -3.487  0.00  0.00     0.249 C 
HETATM    4  O           1     -19.322  -8.920  -2.999  0.00  0.00    -0.271 OA
ENDROOT
BRANCH   3   5
HETATM    5  C           1     -20.483  -8.369  -4.976  0.00  0.00     0.275 C 
BRANCH   5   6
HETATM    6  N           1     -20.825  -9.666  -5.645  0.00  0.00    -0.066 N 
HETATM    7  H           1     -21.072  -9.488  -6.645  0.00  0.00     0.275 HD
HETATM    8  H           1     -20.003 -10.310  -5.599  0.00  0.00     0.275 HD
HETATM    9  H           1     -21.639 -10.105  -5.158  0.00  0.00     0.275 HD
ENDBRANCH   5   6
BRANCH   5  10
HETATM   10  C           1     -21.575  -7.347  -5.264  0.00  0.00     0.053 C 
BRANCH  10  11
HETATM   11  C           1     -20.972  -5.949  -5.279  0.00  0.00     0.076 C 
BRANCH  11  12
HETATM   12  S           1     -20.279  -5.606  -6.923  0.00  0.00    -0.173 SA
HETATM   13  C           1     -21.090  -3.999  -7.149  0.00  0.00     0.089 C 
ENDBRANCH  11  12
ENDBRANCH  10  11
ENDBRANCH   5  10
ENDBRANCH   3   5
BRANCH   2  14
HETATM   14  C           1     -21.368  -8.605  -1.256  0.00  0.00     0.214 C 
BRANCH  14  15
HETATM   15  C           1     -22.078  -9.884  -0.880  0.00  0.00     0.199 C 
HETATM   16  O           1     -22.957 -10.355  -1.634  0.00  0.00    -0.646 OA
HETATM   17  O           1     -21.787 -10.471   0.184  0.00  0.00    -0.646 OA
ENDBRANCH  14  15
BRANCH  14  18
HETATM   18  C           1     -22.011  -7.433  -0.526  0.00  0.00     0.147 C 
HETATM   19  C           1     -22.325  -6.326  -1.524  0.00  0.00     0.042 C 
BRANCH  18  20
HETATM   20  O           1     -23.196  -7.860   0.087  0.00  0.00    -0.393 OA
HETATM   21  H           1     -23.119  -7.658   1.004  0.00  0.00     0.210 HD
ENDBRANCH  18  20
ENDBRANCH  14  18
ENDBRANCH   2  14
TORSDOF 9
ENDMDL
MODEL 6
REMARK VINA RESULT:      -4.4      5.007      6.907
REMARK  9 active torsions:
REMARK  status: ('A' for Active; 'I' for Inactive)
REMARK    1  A    between atoms: N_6  and  C_10 
REMARK    2  A    between atoms: S_7  and  C_12 
REMARK    3  A    between atoms: C_8  and  C_9 
REMARK    4  A    between atoms: C_9  and  C_17 
REMARK    5  A    between atoms: C_9  and  N_14 
REMARK    6  A    between atoms: C_10  and  C_18 
REMARK    7  A    between atoms: C_10  and  C_11 
REMARK    8  A    between atoms: C_11  and  C_12 
REMARK    9  A    between atoms: O_13  and  C_17 
REMARK       I    between atoms: N_14  and  C_18 
ROOT
HETATM    1  H           1     -19.528  -7.794  -3.608  0.00  0.00     0.163 HD
HETATM    2  N           1     -20.299  -8.148  -4.161  0.00  0.00    -0.343 N 
HETATM    3  C           1     -20.097  -9.187  -5.029  0.00  0.00     0.249 C 
HETATM    4  O           1     -21.017  -9.608  -5.689  0.00  0.00    -0.271 OA
ENDROOT
BRANCH   3   5
HETATM    5  C           1     -18.728  -9.805  -5.162  0.00  0.00     0.275 C 
BRANCH   5   6
HETATM    6  N           1     -18.042  -9.246  -6.372  0.00  0.00    -0.066 N 
HETATM    7  H           1     -18.099  -8.202  -6.353  0.00  0.00     0.275 HD
HETATM    8  H           1     -17.039  -9.540  -6.372  0.00  0.00     0.275 HD
HETATM    9  H           1     -18.510  -9.605  -7.235  0.00  0.00     0.275 HD
ENDBRANCH   5   6
BRANCH   5  10
HETATM   10  C           1     -17.904  -9.488  -3.920  0.00  0.00     0.053 C 
BRANCH  10  11
HETATM   11  C           1     -16.487 -10.013  -4.103  0.00  0.00     0.076 C 
BRANCH  11  12
HETATM   12  S           1     -15.826 -10.542  -2.496  0.00  0.00    -0.173 SA
HETATM   13  C           1     -17.377 -11.238  -1.862  0.00  0.00     0.089 C 
ENDBRANCH  11  12
ENDBRANCH  10  11
ENDBRANCH   5  10
ENDBRANCH   3   5
BRANCH   2  14
HETATM   14  C           1     -21.615  -7.554  -4.032  0.00  0.00     0.214 C 
BRANCH  14  15
HETATM   15  C           1     -21.662  -6.264  -4.816  0.00  0.00     0.199 C 
HETATM   16  O           1     -22.730  -5.896  -5.351  0.00  0.00    -0.646 OA
HETATM   17  O           1     -20.633  -5.563  -4.928  0.00  0.00    -0.646 OA
ENDBRANCH  14  15
BRANCH  14  18
HETATM   18  C           1     -21.902  -7.268  -2.564  0.00  0.00     0.147 C 
HETATM   19  C           1     -20.690  -7.654  -1.726  0.00  0.00     0.042 C 
BRANCH  18  20
HETATM   20  O           1     -22.169  -5.902  -2.399  0.00  0.00    -0.393 OA
HETATM   21  H           1     -21.527  -5.433  -2.905  0.00  0.00     0.210 HD
ENDBRANCH  18  20
ENDBRANCH  14  18
ENDBRANCH   2  14
TORSDOF 9
ENDMDL
MODEL 7
REMARK VINA RESULT:      -4.2      6.506      8.188
REMARK  9 active torsions:
REMARK  status: ('A' for Active; 'I' for Inactive)
REMARK    1  A    between atoms: N_6  and  C_10 
REMARK    2  A    between atoms: S_7  and  C_12 
REMARK    3  A    between atoms: C_8  and  C_9 
REMARK    4  A    between atoms: C_9  and  C_17 
REMARK    5  A    between atoms: C_9  and  N_14 
REMARK    6  A    between atoms: C_10  and  C_18 
REMARK    7  A    between atoms: C_10  and  C_11 
REMARK    8  A    between atoms: C_11  and  C_12 
REMARK    9  A    between atoms: O_13  and  C_17 
REMARK       I    between atoms: N_14  and  C_18 
ROOT
HETATM    1  H           1     -21.511  -8.573  -3.889  0.00  0.00     0.163 HD
HETATM    2  N           1     -20.703  -8.491  -3.284  0.00  0.00    -0.343 N 
HETATM    3  C           1     -19.558  -9.183  -3.576  0.00  0.00     0.249 C 
HETATM    4  O           1     -18.594  -9.086  -2.853  0.00  0.00    -0.271 OA
ENDROOT
BRANCH   3   5
HETATM    5  C           1     -19.499 -10.065  -4.798  0.00  0.00     0.275 C 
BRANCH   5   6
HETATM    6  N           1     -20.673  -9.771  -5.683  0.00  0.00    -0.066 N 
HETATM    7  H           1     -20.989 -10.653  -6.147  0.00  0.00     0.275 HD
HETATM    8  H           1     -21.455  -9.382  -5.108  0.00  0.00     0.275 HD
HETATM    9  H           1     -20.395  -9.074  -6.410  0.00  0.00     0.275 HD
ENDBRANCH   5   6
BRANCH   5  10
HETATM   10  C           1     -18.209  -9.793  -5.560  0.00  0.00     0.053 C 
BRANCH  10  11
HETATM   11  C           1     -17.774 -11.056  -6.291  0.00  0.00     0.076 C 
BRANCH  11  12
HETATM   12  S           1     -15.999 -11.330  -6.022  0.00  0.00    -0.173 SA
HETATM   13  C           1     -15.743  -9.910  -4.922  0.00  0.00     0.089 C 
ENDBRANCH  11  12
ENDBRANCH  10  11
ENDBRANCH   5  10
ENDBRANCH   3   5
BRANCH   2  14
HETATM   14  C           1     -20.760  -7.643  -2.110  0.00  0.00     0.214 C 
BRANCH  14  15
HETATM   15  C           1     -21.504  -8.360  -1.008  0.00  0.00     0.199 C 
HETATM   16  O           1     -22.377  -9.208  -1.293  0.00  0.00    -0.646 OA
HETATM   17  O           1     -21.246  -8.105   0.188  0.00  0.00    -0.646 OA
ENDBRANCH  14  15
BRANCH  14  18
HETATM   18  C           1     -21.484  -6.349  -2.454  0.00  0.00     0.147 C 
HETATM   19  C           1     -21.976  -6.410  -3.894  0.00  0.00     0.042 C 
BRANCH  18  20
HETATM   20  O           1     -22.577  -6.183  -1.592  0.00  0.00    -0.393 OA
HETATM   21  H           1     -22.392  -5.431  -1.055  0.00  0.00     0.210 HD
ENDBRANCH  18  20
ENDBRANCH  14  18
ENDBRANCH   2  14
TORSDOF 9
ENDMDL
MODEL 8
REMARK VINA RESULT:      -4.1      6.245      7.338
REMARK  9 active torsions:
REMARK  status: ('A' for Active; 'I' for Inactive)
REMARK    1  A    between atoms: N_6  and  C_10 
REMARK    2  A    between atoms: S_7  and  C_12 
REMARK    3  A    between atoms: C_8  and  C_9 
REMARK    4  A    between atoms: C_9  and  C_17 
REMARK    5  A    between atoms: C_9  and  N_14 
REMARK    6  A    between atoms: C_10  and  C_18 
REMARK    7  A    between atoms: C_10  and  C_11 
REMARK    8  A    between atoms: C_11  and  C_12 
REMARK    9  A    between atoms: O_13  and  C_17 
REMARK       I    between atoms: N_14  and  C_18 
ROOT
HETATM    1  H           1     -20.041  -9.193  -2.617  0.00  0.00     0.163 HD
HETATM    2  N           1     -20.300  -8.665  -3.441  0.00  0.00    -0.343 N 
HETATM    3  C           1     -21.017  -7.506  -3.312  0.00  0.00     0.249 C 
HETATM    4  O           1     -21.326  -6.875  -4.296  0.00  0.00    -0.271 OA
ENDROOT
BRANCH   3   5
HETATM    5  C           1     -21.420  -7.015  -1.944  0.00  0.00     0.275 C 
BRANCH   5   6
HETATM    6  N           1     -22.415  -5.903  -2.085  0.00  0.00    -0.066 N 
HETATM    7  H           1     -22.394  -5.539  -3.065  0.00  0.00     0.275 HD
HETATM    8  H           1     -23.372  -6.260  -1.866  0.00  0.00     0.275 HD
HETATM    9  H           1     -22.172  -5.132  -1.422  0.00  0.00     0.275 HD
ENDBRANCH   5   6
BRANCH   5  10
HETATM   10  C           1     -22.048  -8.160  -1.158  0.00  0.00     0.053 C 
BRANCH  10  11
HETATM   11  C           1     -21.294  -8.350   0.151  0.00  0.00     0.076 C 
BRANCH  11  12
HETATM   12  S           1     -21.057 -10.124   0.460  0.00  0.00    -0.173 SA
HETATM   13  C           1     -22.153 -10.705  -0.863  0.00  0.00     0.089 C 
ENDBRANCH  11  12
ENDBRANCH  10  11
ENDBRANCH   5  10
ENDBRANCH   3   5
BRANCH   2  14
HETATM   14  C           1     -19.911  -9.136  -4.755  0.00  0.00     0.214 C 
BRANCH  14  15
HETATM   15  C           1     -20.746 -10.340  -5.124  0.00  0.00     0.199 C 
HETATM   16  O           1     -21.095 -11.152  -4.240  0.00  0.00    -0.646 OA
HETATM   17  O           1     -21.087 -10.523  -6.312  0.00  0.00    -0.646 OA
ENDBRANCH  14  15
BRANCH  14  18
HETATM   18  C           1     -18.439  -9.524  -4.741  0.00  0.00     0.147 C 
HETATM   19  C           1     -17.922  -9.499  -3.308  0.00  0.00     0.042 C 
BRANCH  18  20
HETATM   20  O           1     -18.291 -10.814  -5.269  0.00  0.00    -0.393 OA
HETATM   21  H           1     -18.124 -11.390  -4.543  0.00  0.00     0.210 HD
ENDBRANCH  18  20
ENDBRANCH  14  18
ENDBRANCH   2  14
TORSDOF 9
ENDMDL
MODEL 9
REMARK VINA RESULT:      -3.9      7.630      9.328
REMARK  9 active torsions:
REMARK  status: ('A' for Active; 'I' for Inactive)
REMARK    1  A    between atoms: N_6  and  C_10 
REMARK    2  A    between atoms: S_7  and  C_12 
REMARK    3  A    between atoms: C_8  and  C_9 
REMARK    4  A    between atoms: C_9  and  C_17 
REMARK    5  A    between atoms: C_9  and  N_14 
REMARK    6  A    between atoms: C_10  and  C_18 
REMARK    7  A    between atoms: C_10  and  C_11 
REMARK    8  A    between atoms: C_11  and  C_12 
REMARK    9  A    between atoms: O_13  and  C_17 
REMARK       I    between atoms: N_14  and  C_18 
ROOT
HETATM    1  H           1     -20.303  -9.481  -0.997  0.00  0.00     0.163 HD
HETATM    2  N           1     -21.252  -9.699  -1.275  0.00  0.00    -0.343 N 
HETATM    3  C           1     -21.539 -10.920  -1.824  0.00  0.00     0.249 C 
HETATM    4  O           1     -22.672 -11.181  -2.155  0.00  0.00    -0.271 OA
ENDROOT
BRANCH   3   5
HETATM    5  C           1     -20.444 -11.940  -2.014  0.00  0.00     0.275 C 
BRANCH   5   6
HETATM    6  N           1     -21.027 -13.200  -2.578  0.00  0.00    -0.066 N 
HETATM    7  H           1     -21.587 -13.685  -1.841  0.00  0.00     0.275 HD
HETATM    8  H           1     -21.644 -12.968  -3.388  0.00  0.00     0.275 HD
HETATM    9  H           1     -20.254 -13.828  -2.898  0.00  0.00     0.275 HD
ENDBRANCH   5   6
BRANCH   5  10
HETATM   10  C           1     -19.399 -11.389  -2.976  0.00  0.00     0.053 C 
BRANCH  10  11
HETATM   11  C           1     -18.136 -11.031  -2.204  0.00  0.00     0.076 C 
BRANCH  11  12
HETATM   12  S           1     -17.330  -9.607  -2.990  0.00  0.00    -0.173 SA
HETATM   13  C           1     -18.690  -9.208  -4.123  0.00  0.00     0.089 C 
ENDBRANCH  11  12
ENDBRANCH  10  11
ENDBRANCH   5  10
ENDBRANCH   3   5
BRANCH   2  14
HETATM   14  C           1     -22.304  -8.720  -1.091  0.00  0.00     0.214 C 
BRANCH  14  15
HETATM   15  C           1     -21.807  -7.362  -1.524  0.00  0.00     0.199 C 
HETATM   16  O           1     -20.630  -7.225  -1.923  0.00  0.00    -0.646 OA
HETATM   17  O           1     -22.572  -6.374  -1.485  0.00  0.00    -0.646 OA
ENDBRANCH  14  15
BRANCH  14  18
HETATM   18  C           1     -22.702  -8.671   0.378  0.00  0.00     0.147 C 
HETATM   19  C           1     -21.491  -8.285   1.218  0.00  0.00     0.042 C 
BRANCH  18  20
HETATM   20  O           1     -23.717  -7.721   0.555  0.00  0.00    -0.393 OA
HETATM   21  H           1     -24.463  -8.022   0.065  0.00  0.00     0.210 HD
ENDBRANCH  18  20
ENDBRANCH  14  18
ENDBRANCH   2  14
TORSDOF 9
ENDMDL
