MODEL 1
REMARK VINA RESULT:      -6.9      0.000      0.000
REMARK  10 active torsions:
REMARK  status: ('A' for Active; 'I' for Inactive)
REMARK    1  A    between atoms: C_4  and  C_7 
REMARK    2  A    between atoms: C_4  and  C_14 
REMARK       I    between atoms: C_6  and  N_13 
REMARK    3  A    between atoms: C_6  and  C_7 
REMARK    4  A    between atoms: C_7  and  N_20 
REMARK    5  A    between atoms: C_9  and  C_16 
REMARK    6  A    between atoms: O_12  and  P_17 
REMARK    7  A    between atoms: N_13  and  C_16 
REMARK    8  A    between atoms: C_16  and  C_18 
REMARK    9  A    between atoms: P_17  and  O_19 
REMARK   10  A    between atoms: C_18  and  O_19 
ROOT
HETATM    1  C           1     -21.477  -4.430  -8.263  0.00  0.00     0.249 C 
HETATM    2  N           1     -21.834  -4.646  -9.567  0.00  0.00    -0.343 N 
HETATM    3  H           1     -21.562  -5.504 -10.030  0.00  0.00     0.163 HD
HETATM    4  O           1     -21.800  -3.406  -7.709  0.00  0.00    -0.271 OA
ENDROOT
BRANCH   2   5
HETATM    5  C           1     -22.597  -3.644 -10.285  0.00  0.00     0.210 C 
BRANCH   5   6
HETATM    6  C           1     -24.069  -3.859 -10.033  0.00  0.00     0.198 C 
HETATM    7  O           1     -24.564  -5.000 -10.151  0.00  0.00    -0.646 OA
HETATM    8  O           1     -24.795  -2.894  -9.705  0.00  0.00    -0.646 OA
ENDBRANCH   5   6
BRANCH   5   9
HETATM    9  C           1     -22.314  -3.763 -11.776  0.00  0.00     0.217 C 
BRANCH   9  10
HETATM   10  O           1     -22.675  -2.571 -12.418  0.00  0.00    -0.287 OA
BRANCH  10  11
HETATM   11  P           1     -23.547  -2.727 -13.768  0.00  0.00     0.406 P 
HETATM   12  O           1     -22.637  -2.863 -14.929  0.00  0.00    -0.624 OA
HETATM   13  O           1     -24.401  -3.932 -13.667  0.00  0.00    -0.624 OA
BRANCH  11  14
HETATM   14  O           1     -24.478  -1.423 -13.962  0.00  0.00    -0.300 OA
HETATM   15  H           1     -23.949  -0.699 -13.672  0.00  0.00     0.223 HD
ENDBRANCH  11  14
ENDBRANCH  10  11
ENDBRANCH   9  10
ENDBRANCH   5   9
ENDBRANCH   2   5
BRANCH   1  16
HETATM   16  C           1     -20.682  -5.473  -7.515  0.00  0.00     0.278 C 
BRANCH  16  17
HETATM   17  C           1     -21.403  -5.832  -6.223  0.00  0.00     0.021 C 
HETATM   18  C           1     -21.443  -7.347  -6.068  0.00  0.00     0.012 C 
BRANCH  17  19
HETATM   19  C           1     -20.662  -5.222  -5.041  0.00  0.00     0.002 C 
HETATM   20  C           1     -21.100  -5.910  -3.756  0.00  0.00     0.005 C 
ENDBRANCH  17  19
ENDBRANCH  16  17
BRANCH  16  21
HETATM   21  N           1     -19.323  -4.927  -7.193  0.00  0.00    -0.066 N 
HETATM   22  H           1     -19.348  -4.453  -6.262  0.00  0.00     0.275 HD
HETATM   23  H           1     -19.042  -4.238  -7.926  0.00  0.00     0.275 HD
HETATM   24  H           1     -18.630  -5.709  -7.167  0.00  0.00     0.275 HD
ENDBRANCH  16  21
ENDBRANCH   1  16
TORSDOF 10
ENDMDL
MODEL 2
REMARK VINA RESULT:      -6.1      3.214      5.029
REMARK  10 active torsions:
REMARK  status: ('A' for Active; 'I' for Inactive)
REMARK    1  A    between atoms: C_4  and  C_7 
REMARK    2  A    between atoms: C_4  and  C_14 
REMARK       I    between atoms: C_6  and  N_13 
REMARK    3  A    between atoms: C_6  and  C_7 
REMARK    4  A    between atoms: C_7  and  N_20 
REMARK    5  A    between atoms: C_9  and  C_16 
REMARK    6  A    between atoms: O_12  and  P_17 
REMARK    7  A    between atoms: N_13  and  C_16 
REMARK    8  A    between atoms: C_16  and  C_18 
REMARK    9  A    between atoms: P_17  and  O_19 
REMARK   10  A    between atoms: C_18  and  O_19 
ROOT
HETATM    1  C           1     -21.580  -6.597  -4.286  0.00  0.00     0.249 C 
HETATM    2  N           1     -21.326  -5.490  -5.050  0.00  0.00    -0.343 N 
HETATM    3  H           1     -21.000  -4.638  -4.612  0.00  0.00     0.163 HD
HETATM    4  O           1     -21.971  -7.615  -4.807  0.00  0.00    -0.271 OA
ENDROOT
BRANCH   2   5
HETATM    5  C           1     -21.527  -5.537  -6.485  0.00  0.00     0.210 C 
BRANCH   5   6
HETATM    6  C           1     -20.193  -5.697  -7.173  0.00  0.00     0.198 C 
HETATM    7  O           1     -19.586  -6.788  -7.116  0.00  0.00    -0.646 OA
HETATM    8  O           1     -19.695  -4.737  -7.802  0.00  0.00    -0.646 OA
ENDBRANCH   5   6
BRANCH   5   9
HETATM    9  C           1     -22.187  -4.246  -6.948  0.00  0.00     0.217 C 
BRANCH   9  10
HETATM   10  O           1     -23.404  -4.541  -7.578  0.00  0.00    -0.287 OA
BRANCH  10  11
HETATM   11  P           1     -23.566  -4.008  -9.093  0.00  0.00     0.406 P 
HETATM   12  O           1     -22.302  -3.372  -9.529  0.00  0.00    -0.624 OA
HETATM   13  O           1     -23.879  -5.146  -9.986  0.00  0.00    -0.624 OA
BRANCH  11  14
HETATM   14  O           1     -24.764  -2.928  -9.159  0.00  0.00    -0.300 OA
HETATM   15  H           1     -24.558  -2.378  -9.895  0.00  0.00     0.223 HD
ENDBRANCH  11  14
ENDBRANCH  10  11
ENDBRANCH   9  10
ENDBRANCH   5   9
ENDBRANCH   2   5
BRANCH   1  16
HETATM   16  C           1     -21.372  -6.548  -2.792  0.00  0.00     0.278 C 
BRANCH  16  17
HETATM   17  C           1     -21.423  -7.960  -2.224  0.00  0.00     0.021 C 
HETATM   18  C           1     -20.004  -8.478  -2.022  0.00  0.00     0.012 C 
BRANCH  17  19
HETATM   19  C           1     -22.151  -7.944  -0.887  0.00  0.00     0.002 C 
HETATM   20  C           1     -21.726  -9.150  -0.062  0.00  0.00     0.005 C 
ENDBRANCH  17  19
ENDBRANCH  16  17
BRANCH  16  21
HETATM   21  N           1     -22.452  -5.718  -2.165  0.00  0.00    -0.066 N 
HETATM   22  H           1     -22.100  -5.303  -1.272  0.00  0.00     0.275 HD
HETATM   23  H           1     -23.282  -6.320  -1.964  0.00  0.00     0.275 HD
HETATM   24  H           1     -22.728  -4.952  -2.820  0.00  0.00     0.275 HD
ENDBRANCH  16  21
ENDBRANCH   1  16
TORSDOF 10
ENDMDL
MODEL 3
REMARK VINA RESULT:      -5.7      5.082      7.935
REMARK  10 active torsions:
REMARK  status: ('A' for Active; 'I' for Inactive)
REMARK    1  A    between atoms: C_4  and  C_7 
REMARK    2  A    between atoms: C_4  and  C_14 
REMARK       I    between atoms: C_6  and  N_13 
REMARK    3  A    between atoms: C_6  and  C_7 
REMARK    4  A    between atoms: C_7  and  N_20 
REMARK    5  A    between atoms: C_9  and  C_16 
REMARK    6  A    between atoms: O_12  and  P_17 
REMARK    7  A    between atoms: N_13  and  C_16 
REMARK    8  A    between atoms: C_16  and  C_18 
REMARK    9  A    between atoms: P_17  and  O_19 
REMARK   10  A    between atoms: C_18  and  O_19 
ROOT
HETATM    1  C           1     -21.831  -5.344  -6.172  0.00  0.00     0.249 C 
HETATM    2  N           1     -21.167  -6.290  -5.438  0.00  0.00    -0.343 N 
HETATM    3  H           1     -20.161  -6.369  -5.508  0.00  0.00     0.163 HD
HETATM    4  O           1     -23.033  -5.250  -6.090  0.00  0.00    -0.271 OA
ENDROOT
BRANCH   2   5
HETATM    5  C           1     -21.906  -7.180  -4.564  0.00  0.00     0.210 C 
BRANCH   5   6
HETATM    6  C           1     -21.647  -6.800  -3.126  0.00  0.00     0.198 C 
HETATM    7  O           1     -22.343  -5.919  -2.577  0.00  0.00    -0.646 OA
HETATM    8  O           1     -20.736  -7.368  -2.484  0.00  0.00    -0.646 OA
ENDBRANCH   5   6
BRANCH   5   9
HETATM    9  C           1     -21.454  -8.615  -4.800  0.00  0.00     0.217 C 
BRANCH   9  10
HETATM   10  O           1     -20.327  -8.620  -5.633  0.00  0.00    -0.287 OA
BRANCH  10  11
HETATM   11  P           1     -19.100  -9.557  -5.161  0.00  0.00     0.406 P 
HETATM   12  O           1     -19.579 -10.948  -4.994  0.00  0.00    -0.624 OA
HETATM   13  O           1     -18.031  -9.524  -6.185  0.00  0.00    -0.624 OA
BRANCH  11  14
HETATM   14  O           1     -18.517  -9.015  -3.757  0.00  0.00    -0.300 OA
HETATM   15  H           1     -18.748  -8.102  -3.732  0.00  0.00     0.223 HD
ENDBRANCH  11  14
ENDBRANCH  10  11
ENDBRANCH   9  10
ENDBRANCH   5   9
ENDBRANCH   2   5
BRANCH   1  16
HETATM   16  C           1     -21.063  -4.418  -7.083  0.00  0.00     0.278 C 
BRANCH  16  17
HETATM   17  C           1     -21.409  -4.728  -8.532  0.00  0.00     0.021 C 
HETATM   18  C           1     -22.409  -3.700  -9.047  0.00  0.00     0.012 C 
BRANCH  17  19
HETATM   19  C           1     -20.145  -4.674  -9.380  0.00  0.00     0.002 C 
HETATM   20  C           1     -20.507  -4.294 -10.809  0.00  0.00     0.005 C 
ENDBRANCH  17  19
ENDBRANCH  16  17
BRANCH  16  21
HETATM   21  N           1     -19.592  -4.615  -6.867  0.00  0.00    -0.066 N 
HETATM   22  H           1     -19.082  -4.445  -7.764  0.00  0.00     0.275 HD
HETATM   23  H           1     -19.414  -5.592  -6.546  0.00  0.00     0.275 HD
HETATM   24  H           1     -19.253  -3.942  -6.142  0.00  0.00     0.275 HD
ENDBRANCH  16  21
ENDBRANCH   1  16
TORSDOF 10
ENDMDL
MODEL 4
REMARK VINA RESULT:      -5.6      5.737      8.708
REMARK  10 active torsions:
REMARK  status: ('A' for Active; 'I' for Inactive)
REMARK    1  A    between atoms: C_4  and  C_7 
REMARK    2  A    between atoms: C_4  and  C_14 
REMARK       I    between atoms: C_6  and  N_13 
REMARK    3  A    between atoms: C_6  and  C_7 
REMARK    4  A    between atoms: C_7  and  N_20 
REMARK    5  A    between atoms: C_9  and  C_16 
REMARK    6  A    between atoms: O_12  and  P_17 
REMARK    7  A    between atoms: N_13  and  C_16 
REMARK    8  A    between atoms: C_16  and  C_18 
REMARK    9  A    between atoms: P_17  and  O_19 
REMARK   10  A    between atoms: C_18  and  O_19 
ROOT
HETATM    1  C           1     -21.200  -5.003  -6.264  0.00  0.00     0.249 C 
HETATM    2  N           1     -21.841  -5.956  -5.519  0.00  0.00    -0.343 N 
HETATM    3  H           1     -22.811  -6.174  -5.705  0.00  0.00     0.163 HD
HETATM    4  O           1     -20.041  -4.740  -6.042  0.00  0.00    -0.271 OA
ENDROOT
BRANCH   2   5
HETATM    5  C           1     -21.130  -6.649  -4.463  0.00  0.00     0.210 C 
BRANCH   5   6
HETATM    6  C           1     -20.834  -8.063  -4.901  0.00  0.00     0.198 C 
HETATM    7  O           1     -19.841  -8.299  -5.623  0.00  0.00    -0.646 OA
HETATM    8  O           1     -21.582  -8.999  -4.541  0.00  0.00    -0.646 OA
ENDBRANCH   5   6
BRANCH   5   9
HETATM    9  C           1     -21.990  -6.677  -3.206  0.00  0.00     0.217 C 
BRANCH   9  10
HETATM   10  O           1     -21.179  -6.921  -2.089  0.00  0.00    -0.287 OA
BRANCH  10  11
HETATM   11  P           1     -21.799  -7.899  -0.964  0.00  0.00     0.406 P 
HETATM   12  O           1     -20.781  -8.155   0.080  0.00  0.00    -0.624 OA
HETATM   13  O           1     -22.983  -7.257  -0.350  0.00  0.00    -0.624 OA
BRANCH  11  14
HETATM   14  O           1     -22.237  -9.295  -1.645  0.00  0.00    -0.300 OA
HETATM   15  H           1     -22.508  -9.067  -2.518  0.00  0.00     0.223 HD
ENDBRANCH  11  14
ENDBRANCH  10  11
ENDBRANCH   9  10
ENDBRANCH   5   9
ENDBRANCH   2   5
BRANCH   1  16
HETATM   16  C           1     -21.939  -4.280  -7.364  0.00  0.00     0.278 C 
BRANCH  16  17
HETATM   17  C           1     -21.577  -4.894  -8.709  0.00  0.00     0.021 C 
HETATM   18  C           1     -22.749  -4.740  -9.670  0.00  0.00     0.012 C 
BRANCH  17  19
HETATM   19  C           1     -20.357  -4.183  -9.280  0.00  0.00     0.002 C 
HETATM   20  C           1     -20.589  -3.880 -10.754  0.00  0.00     0.005 C 
ENDBRANCH  17  19
ENDBRANCH  16  17
BRANCH  16  21
HETATM   21  N           1     -21.552  -2.831  -7.355  0.00  0.00    -0.066 N 
HETATM   22  H           1     -20.631  -2.713  -7.834  0.00  0.00     0.275 HD
HETATM   23  H           1     -21.476  -2.496  -6.369  0.00  0.00     0.275 HD
HETATM   24  H           1     -22.280  -2.273  -7.857  0.00  0.00     0.275 HD
ENDBRANCH  16  21
ENDBRANCH   1  16
TORSDOF 10
ENDMDL
MODEL 5
REMARK VINA RESULT:      -5.6      5.631      8.054
REMARK  10 active torsions:
REMARK  status: ('A' for Active; 'I' for Inactive)
REMARK    1  A    between atoms: C_4  and  C_7 
REMARK    2  A    between atoms: C_4  and  C_14 
REMARK       I    between atoms: C_6  and  N_13 
REMARK    3  A    between atoms: C_6  and  C_7 
REMARK    4  A    between atoms: C_7  and  N_20 
REMARK    5  A    between atoms: C_9  and  C_16 
REMARK    6  A    between atoms: O_12  and  P_17 
REMARK    7  A    between atoms: N_13  and  C_16 
REMARK    8  A    between atoms: C_16  and  C_18 
REMARK    9  A    between atoms: P_17  and  O_19 
REMARK   10  A    between atoms: C_18  and  O_19 
ROOT
HETATM    1  C           1     -21.226  -8.735  -2.228  0.00  0.00     0.249 C 
HETATM    2  N           1     -20.748  -8.067  -3.324  0.00  0.00    -0.343 N 
HETATM    3  H           1     -20.481  -7.094  -3.245  0.00  0.00     0.163 HD
HETATM    4  O           1     -21.547  -9.896  -2.321  0.00  0.00    -0.271 OA
ENDROOT
BRANCH   2   5
HETATM    5  C           1     -20.628  -8.753  -4.595  0.00  0.00     0.210 C 
BRANCH   5   6
HETATM    6  C           1     -19.169  -8.882  -4.960  0.00  0.00     0.198 C 
HETATM    7  O           1     -18.324  -9.138  -4.076  0.00  0.00    -0.646 OA
HETATM    8  O           1     -18.806  -8.734  -6.147  0.00  0.00    -0.646 OA
ENDBRANCH   5   6
BRANCH   5   9
HETATM    9  C           1     -21.352  -7.956  -5.672  0.00  0.00     0.217 C 
BRANCH   9  10
HETATM   10  O           1     -21.467  -6.618  -5.268  0.00  0.00    -0.287 OA
BRANCH  10  11
HETATM   11  P           1     -20.843  -5.518  -6.270  0.00  0.00     0.406 P 
HETATM   12  O           1     -21.940  -4.790  -6.947  0.00  0.00    -0.624 OA
HETATM   13  O           1     -20.017  -4.561  -5.501  0.00  0.00    -0.624 OA
BRANCH  11  14
HETATM   14  O           1     -19.923  -6.255  -7.374  0.00  0.00    -0.300 OA
HETATM   15  H           1     -20.503  -6.436  -8.094  0.00  0.00     0.223 HD
ENDBRANCH  11  14
ENDBRANCH  10  11
ENDBRANCH   9  10
ENDBRANCH   5   9
ENDBRANCH   2   5
BRANCH   1  16
HETATM   16  C           1     -21.352  -8.021  -0.904  0.00  0.00     0.278 C 
BRANCH  16  17
HETATM   17  C           1     -21.775  -9.014   0.170  0.00  0.00     0.021 C 
HETATM   18  C           1     -21.074  -8.675   1.480  0.00  0.00     0.012 C 
BRANCH  17  19
HETATM   19  C           1     -23.283  -8.936   0.368  0.00  0.00     0.002 C 
HETATM   20  C           1     -23.908 -10.287   0.048  0.00  0.00     0.005 C 
ENDBRANCH  17  19
ENDBRANCH  16  17
BRANCH  16  21
HETATM   21  N           1     -22.383  -6.938  -1.018  0.00  0.00    -0.066 N 
HETATM   22  H           1     -23.118  -7.077  -0.287  0.00  0.00     0.275 HD
HETATM   23  H           1     -22.823  -6.973  -1.964  0.00  0.00     0.275 HD
HETATM   24  H           1     -21.927  -6.007  -0.880  0.00  0.00     0.275 HD
ENDBRANCH  16  21
ENDBRANCH   1  16
TORSDOF 10
ENDMDL
MODEL 6
REMARK VINA RESULT:      -5.6     10.537     12.463
REMARK  10 active torsions:
REMARK  status: ('A' for Active; 'I' for Inactive)
REMARK    1  A    between atoms: C_4  and  C_7 
REMARK    2  A    between atoms: C_4  and  C_14 
REMARK       I    between atoms: C_6  and  N_13 
REMARK    3  A    between atoms: C_6  and  C_7 
REMARK    4  A    between atoms: C_7  and  N_20 
REMARK    5  A    between atoms: C_9  and  C_16 
REMARK    6  A    between atoms: O_12  and  P_17 
REMARK    7  A    between atoms: N_13  and  C_16 
REMARK    8  A    between atoms: C_16  and  C_18 
REMARK    9  A    between atoms: P_17  and  O_19 
REMARK   10  A    between atoms: C_18  and  O_19 
ROOT
HETATM    1  C           1     -30.848  -6.541 -17.136  0.00  0.00     0.249 C 
HETATM    2  N           1     -31.337  -5.420 -16.522  0.00  0.00    -0.343 N 
HETATM    3  H           1     -30.810  -4.981 -15.778  0.00  0.00     0.163 HD
HETATM    4  O           1     -31.477  -7.067 -18.024  0.00  0.00    -0.271 OA
ENDROOT
BRANCH   2   5
HETATM    5  C           1     -32.610  -4.863 -16.935  0.00  0.00     0.210 C 
BRANCH   5   6
HETATM    6  C           1     -32.413  -3.435 -17.381  0.00  0.00     0.198 C 
HETATM    7  O           1     -33.403  -2.689 -17.545  0.00  0.00    -0.646 OA
HETATM    8  O           1     -31.260  -2.997 -17.586  0.00  0.00    -0.646 OA
ENDBRANCH   5   6
BRANCH   5   9
HETATM    9  C           1     -33.584  -4.901 -15.765  0.00  0.00     0.217 C 
BRANCH   9  10
HETATM   10  O           1     -33.094  -4.103 -14.722  0.00  0.00    -0.287 OA
BRANCH  10  11
HETATM   11  P           1     -33.981  -4.075 -13.374  0.00  0.00     0.406 P 
HETATM   12  O           1     -33.091  -4.181 -12.196  0.00  0.00    -0.624 OA
HETATM   13  O           1     -34.739  -2.805 -13.306  0.00  0.00    -0.624 OA
BRANCH  11  14
HETATM   14  O           1     -35.014  -5.317 -13.383  0.00  0.00    -0.300 OA
HETATM   15  H           1     -34.502  -6.062 -13.118  0.00  0.00     0.223 HD
ENDBRANCH  11  14
ENDBRANCH  10  11
ENDBRANCH   9  10
ENDBRANCH   5   9
ENDBRANCH   2   5
BRANCH   1  16
HETATM   16  C           1     -29.523  -7.121 -16.706  0.00  0.00     0.278 C 
BRANCH  16  17
HETATM   17  C           1     -28.398  -6.186 -17.127  0.00  0.00     0.021 C 
HETATM   18  C           1     -27.123  -6.553 -16.377  0.00  0.00     0.012 C 
BRANCH  17  19
HETATM   19  C           1     -28.159  -6.322 -18.625  0.00  0.00     0.002 C 
HETATM   20  C           1     -26.663  -6.321 -18.904  0.00  0.00     0.005 C 
ENDBRANCH  17  19
ENDBRANCH  16  17
BRANCH  16  21
HETATM   21  N           1     -29.330  -8.460 -17.354  0.00  0.00    -0.066 N 
HETATM   22  H           1     -29.474  -8.372 -18.386  0.00  0.00     0.275 HD
HETATM   23  H           1     -30.021  -9.139 -16.964  0.00  0.00     0.275 HD
HETATM   24  H           1     -28.360  -8.802 -17.166  0.00  0.00     0.275 HD
ENDBRANCH  16  21
ENDBRANCH   1  16
TORSDOF 10
ENDMDL
MODEL 7
REMARK VINA RESULT:      -5.5      6.954      8.997
REMARK  10 active torsions:
REMARK  status: ('A' for Active; 'I' for Inactive)
REMARK    1  A    between atoms: C_4  and  C_7 
REMARK    2  A    between atoms: C_4  and  C_14 
REMARK       I    between atoms: C_6  and  N_13 
REMARK    3  A    between atoms: C_6  and  C_7 
REMARK    4  A    between atoms: C_7  and  N_20 
REMARK    5  A    between atoms: C_9  and  C_16 
REMARK    6  A    between atoms: O_12  and  P_17 
REMARK    7  A    between atoms: N_13  and  C_16 
REMARK    8  A    between atoms: C_16  and  C_18 
REMARK    9  A    between atoms: P_17  and  O_19 
REMARK   10  A    between atoms: C_18  and  O_19 
ROOT
HETATM    1  C           1     -20.981  -9.420  -2.053  0.00  0.00     0.249 C 
HETATM    2  N           1     -21.685  -8.794  -3.045  0.00  0.00    -0.343 N 
HETATM    3  H           1     -22.639  -9.070  -3.240  0.00  0.00     0.163 HD
HETATM    4  O           1     -19.841  -9.092  -1.821  0.00  0.00    -0.271 OA
ENDROOT
BRANCH   2   5
HETATM    5  C           1     -21.063  -7.738  -3.820  0.00  0.00     0.210 C 
BRANCH   5   6
HETATM    6  C           1     -21.922  -6.498  -3.760  0.00  0.00     0.198 C 
HETATM    7  O           1     -22.336  -5.973  -4.816  0.00  0.00    -0.646 OA
HETATM    8  O           1     -22.220  -5.997  -2.654  0.00  0.00    -0.646 OA
ENDBRANCH   5   6
BRANCH   5   9
HETATM    9  C           1     -20.919  -8.187  -5.268  0.00  0.00     0.217 C 
BRANCH   9  10
HETATM   10  O           1     -19.562  -8.217  -5.616  0.00  0.00    -0.287 OA
BRANCH  10  11
HETATM   11  P           1     -18.778  -9.592  -5.295  0.00  0.00     0.406 P 
HETATM   12  O           1     -19.760 -10.675  -5.060  0.00  0.00    -0.624 OA
HETATM   13  O           1     -17.916  -9.949  -6.445  0.00  0.00    -0.624 OA
BRANCH  11  14
HETATM   14  O           1     -17.865  -9.396  -3.979  0.00  0.00    -0.300 OA
HETATM   15  H           1     -17.018  -9.141  -4.304  0.00  0.00     0.223 HD
ENDBRANCH  11  14
ENDBRANCH  10  11
ENDBRANCH   9  10
ENDBRANCH   5   9
ENDBRANCH   2   5
BRANCH   1  16
HETATM   16  C           1     -21.628 -10.520  -1.246  0.00  0.00     0.278 C 
BRANCH  16  17
HETATM   17  C           1     -22.917 -10.003  -0.624  0.00  0.00     0.021 C 
HETATM   18  C           1     -23.776 -11.181  -0.182  0.00  0.00     0.012 C 
BRANCH  17  19
HETATM   19  C           1     -22.586  -9.137   0.584  0.00  0.00     0.002 C 
HETATM   20  C           1     -23.086  -7.719   0.346  0.00  0.00     0.005 C 
ENDBRANCH  17  19
ENDBRANCH  16  17
BRANCH  16  21
HETATM   21  N           1     -20.690 -10.961  -0.162  0.00  0.00    -0.066 N 
HETATM   22  H           1     -20.932 -10.471   0.729  0.00  0.00     0.275 HD
HETATM   23  H           1     -19.709 -10.726  -0.433  0.00  0.00     0.275 HD
HETATM   24  H           1     -20.776 -11.994  -0.026  0.00  0.00     0.275 HD
ENDBRANCH  16  21
ENDBRANCH   1  16
TORSDOF 10
ENDMDL
MODEL 8
REMARK VINA RESULT:      -5.5      5.640      7.843
REMARK  10 active torsions:
REMARK  status: ('A' for Active; 'I' for Inactive)
REMARK    1  A    between atoms: C_4  and  C_7 
REMARK    2  A    between atoms: C_4  and  C_14 
REMARK       I    between atoms: C_6  and  N_13 
REMARK    3  A    between atoms: C_6  and  C_7 
REMARK    4  A    between atoms: C_7  and  N_20 
REMARK    5  A    between atoms: C_9  and  C_16 
REMARK    6  A    between atoms: O_12  and  P_17 
REMARK    7  A    between atoms: N_13  and  C_16 
REMARK    8  A    between atoms: C_16  and  C_18 
REMARK    9  A    between atoms: P_17  and  O_19 
REMARK   10  A    between atoms: C_18  and  O_19 
ROOT
HETATM    1  C           1     -21.121  -9.474  -2.302  0.00  0.00     0.249 C 
HETATM    2  N           1     -21.832  -8.658  -3.140  0.00  0.00    -0.343 N 
HETATM    3  H           1     -22.820  -8.821  -3.286  0.00  0.00     0.163 HD
HETATM    4  O           1     -19.941  -9.280  -2.128  0.00  0.00    -0.271 OA
ENDROOT
BRANCH   2   5
HETATM    5  C           1     -21.170  -7.562  -3.819  0.00  0.00     0.210 C 
BRANCH   5   6
HETATM    6  C           1     -21.507  -6.264  -3.126  0.00  0.00     0.198 C 
HETATM    7  O           1     -22.558  -6.167  -2.457  0.00  0.00    -0.646 OA
HETATM    8  O           1     -20.734  -5.286  -3.221  0.00  0.00    -0.646 OA
ENDBRANCH   5   6
BRANCH   5   9
HETATM    9  C           1     -21.642  -7.502  -5.266  0.00  0.00     0.217 C 
BRANCH   9  10
HETATM   10  O           1     -20.558  -7.192  -6.100  0.00  0.00    -0.287 OA
BRANCH  10  11
HETATM   11  P           1     -20.583  -5.728  -6.780  0.00  0.00     0.406 P 
HETATM   12  O           1     -20.082  -5.822  -8.170  0.00  0.00    -0.624 OA
HETATM   13  O           1     -21.971  -5.212  -6.791  0.00  0.00    -0.624 OA
BRANCH  11  14
HETATM   14  O           1     -19.643  -4.725  -5.934  0.00  0.00    -0.300 OA
HETATM   15  H           1     -20.134  -4.528  -5.154  0.00  0.00     0.223 HD
ENDBRANCH  11  14
ENDBRANCH  10  11
ENDBRANCH   9  10
ENDBRANCH   5   9
ENDBRANCH   2   5
BRANCH   1  16
HETATM   16  C           1     -21.810 -10.616  -1.595  0.00  0.00     0.278 C 
BRANCH  16  17
HETATM   17  C           1     -22.948 -10.073  -0.743  0.00  0.00     0.021 C 
HETATM   18  C           1     -23.770 -11.233  -0.194  0.00  0.00     0.012 C 
BRANCH  17  19
HETATM   19  C           1     -22.376  -9.266   0.415  0.00  0.00     0.002 C 
HETATM   20  C           1     -23.155  -7.966   0.562  0.00  0.00     0.005 C 
ENDBRANCH  17  19
ENDBRANCH  16  17
BRANCH  16  21
HETATM   21  N           1     -20.823 -11.327  -0.718  0.00  0.00    -0.066 N 
HETATM   22  H           1     -20.215 -10.625  -0.237  0.00  0.00     0.275 HD
HETATM   23  H           1     -20.231 -11.959  -1.301  0.00  0.00     0.275 HD
HETATM   24  H           1     -21.336 -11.891  -0.003  0.00  0.00     0.275 HD
ENDBRANCH  16  21
ENDBRANCH   1  16
TORSDOF 10
ENDMDL
MODEL 9
REMARK VINA RESULT:      -5.4      4.093      7.515
REMARK  10 active torsions:
REMARK  status: ('A' for Active; 'I' for Inactive)
REMARK    1  A    between atoms: C_4  and  C_7 
REMARK    2  A    between atoms: C_4  and  C_14 
REMARK       I    between atoms: C_6  and  N_13 
REMARK    3  A    between atoms: C_6  and  C_7 
REMARK    4  A    between atoms: C_7  and  N_20 
REMARK    5  A    between atoms: C_9  and  C_16 
REMARK    6  A    between atoms: O_12  and  P_17 
REMARK    7  A    between atoms: N_13  and  C_16 
REMARK    8  A    between atoms: C_16  and  C_18 
REMARK    9  A    between atoms: P_17  and  O_19 
REMARK   10  A    between atoms: C_18  and  O_19 
ROOT
HETATM    1  C           1     -22.379  -4.583  -8.760  0.00  0.00     0.249 C 
HETATM    2  N           1     -21.684  -5.456  -7.967  0.00  0.00    -0.343 N 
HETATM    3  H           1     -21.249  -6.273  -8.374  0.00  0.00     0.163 HD
HETATM    4  O           1     -22.900  -3.608  -8.274  0.00  0.00    -0.271 OA
ENDROOT
BRANCH   2   5
HETATM    5  C           1     -21.575  -5.210  -6.542  0.00  0.00     0.210 C 
BRANCH   5   6
HETATM    6  C           1     -20.175  -4.747  -6.218  0.00  0.00     0.198 C 
HETATM    7  O           1     -19.895  -4.363  -5.062  0.00  0.00    -0.646 OA
HETATM    8  O           1     -19.295  -4.747  -7.107  0.00  0.00    -0.646 OA
ENDBRANCH   5   6
BRANCH   5   9
HETATM    9  C           1     -21.873  -6.494  -5.781  0.00  0.00     0.217 C 
BRANCH   9  10
HETATM   10  O           1     -20.830  -7.410  -5.979  0.00  0.00    -0.287 OA
BRANCH  10  11
HETATM   11  P           1     -20.858  -8.729  -5.049  0.00  0.00     0.406 P 
HETATM   12  O           1     -19.562  -8.864  -4.348  0.00  0.00    -0.624 OA
HETATM   13  O           1     -21.947  -8.608  -4.053  0.00  0.00    -0.624 OA
BRANCH  11  14
HETATM   14  O           1     -21.113 -10.031  -5.969  0.00  0.00    -0.300 OA
HETATM   15  H           1     -21.613 -10.619  -5.428  0.00  0.00     0.223 HD
ENDBRANCH  11  14
ENDBRANCH  10  11
ENDBRANCH   9  10
ENDBRANCH   5   9
ENDBRANCH   2   5
BRANCH   1  16
HETATM   16  C           1     -22.494  -4.839 -10.244  0.00  0.00     0.278 C 
BRANCH  16  17
HETATM   17  C           1     -22.072  -3.592 -11.009  0.00  0.00     0.021 C 
HETATM   18  C           1     -20.552  -3.489 -11.014  0.00  0.00     0.012 C 
BRANCH  17  19
HETATM   19  C           1     -22.578  -3.680 -12.442  0.00  0.00     0.002 C 
HETATM   20  C           1     -23.283  -2.383 -12.813  0.00  0.00     0.005 C 
ENDBRANCH  17  19
ENDBRANCH  16  17
BRANCH  16  21
HETATM   21  N           1     -23.915  -5.177 -10.583  0.00  0.00    -0.066 N 
HETATM   22  H           1     -23.934  -5.998 -11.229  0.00  0.00     0.275 HD
HETATM   23  H           1     -24.366  -4.357 -11.048  0.00  0.00     0.275 HD
HETATM   24  H           1     -24.436  -5.410  -9.707  0.00  0.00     0.275 HD
ENDBRANCH  16  21
ENDBRANCH   1  16
TORSDOF 10
ENDMDL
