MODEL 1
REMARK VINA RESULT:      -5.9      0.000      0.000
REMARK  6 active torsions:
REMARK  status: ('A' for Active; 'I' for Inactive)
REMARK    1  A    between atoms: C_1  and  C_15 
REMARK    2  A    between atoms: C_1  and  C_11 
REMARK    3  A    between atoms: C_1  and  N_3 
REMARK       I    between atoms: N_3  and  C_12 
REMARK    4  A    between atoms: C_5  and  C_15 
REMARK    5  A    between atoms: N_8  and  C_9 
REMARK    6  A    between atoms: C_9  and  C_12 
ROOT
HETATM    1  N           1     -35.012  -0.682 -12.106  0.00  0.00    -0.345 N 
HETATM    2  O           1     -36.440  -0.688 -13.822  0.00  0.00    -0.272 OA
HETATM    3  C           1     -35.435  -0.236 -13.330  0.00  0.00     0.243 C 
HETATM    4  H           1     -34.170  -0.303 -11.692  0.00  0.00     0.163 HD
ENDROOT
BRANCH   1   5
HETATM    5  C           1     -35.771  -1.698 -11.403  0.00  0.00     0.189 C 
BRANCH   5   6
HETATM    6  C           1     -34.816  -2.608 -10.642  0.00  0.00     0.014 C 
HETATM    7  C           1     -35.203  -4.061 -10.882  0.00  0.00     0.012 C 
BRANCH   6   8
HETATM    8  C           1     -33.394  -2.374 -11.133  0.00  0.00     0.002 C 
HETATM    9  C           1     -32.811  -3.684 -11.649  0.00  0.00     0.005 C 
ENDBRANCH   6   8
ENDBRANCH   5   6
BRANCH   5  10
HETATM   10  C           1     -36.716  -1.035 -10.430  0.00  0.00     0.197 C 
HETATM   11  O           1     -37.938  -0.978 -10.686  0.00  0.00    -0.646 OA
HETATM   12  O           1     -36.276  -0.543  -9.368  0.00  0.00    -0.646 OA
ENDBRANCH   5  10
ENDBRANCH   1   5
BRANCH   3  13
HETATM   13  C           1     -34.645   0.821 -14.061  0.00  0.00     0.332 C 
BRANCH  13  14
HETATM   14  N           1     -35.551   1.565 -14.997  0.00  0.00    -0.071 N 
HETATM   15  H           1     -35.754   2.513 -14.607  0.00  0.00     0.274 HD
HETATM   16  H           1     -35.086   1.663 -15.927  0.00  0.00     0.274 HD
HETATM   17  H           1     -36.446   1.036 -15.108  0.00  0.00     0.274 HD
ENDBRANCH  13  14
ENDBRANCH   3  13
TORSDOF 6
ENDMDL
MODEL 2
REMARK VINA RESULT:      -5.4      3.303      4.075
REMARK  6 active torsions:
REMARK  status: ('A' for Active; 'I' for Inactive)
REMARK    1  A    between atoms: C_1  and  C_15 
REMARK    2  A    between atoms: C_1  and  C_11 
REMARK    3  A    between atoms: C_1  and  N_3 
REMARK       I    between atoms: N_3  and  C_12 
REMARK    4  A    between atoms: C_5  and  C_15 
REMARK    5  A    between atoms: N_8  and  C_9 
REMARK    6  A    between atoms: C_9  and  C_12 
ROOT
HETATM    1  N           1     -33.437  -3.960 -14.143  0.00  0.00    -0.345 N 
HETATM    2  O           1     -34.992  -4.926 -15.422  0.00  0.00    -0.272 OA
HETATM    3  C           1     -33.880  -4.462 -15.338  0.00  0.00     0.243 C 
HETATM    4  H           1     -32.506  -3.571 -14.072  0.00  0.00     0.163 HD
ENDROOT
BRANCH   1   5
HETATM    5  C           1     -34.302  -3.987 -12.980  0.00  0.00     0.189 C 
BRANCH   5   6
HETATM    6  C           1     -33.466  -4.239 -11.732  0.00  0.00     0.014 C 
HETATM    7  C           1     -32.961  -2.910 -11.185  0.00  0.00     0.012 C 
BRANCH   6   8
HETATM    8  C           1     -34.323  -4.929 -10.679  0.00  0.00     0.002 C 
HETATM    9  C           1     -34.112  -6.435 -10.759  0.00  0.00     0.005 C 
ENDBRANCH   6   8
ENDBRANCH   5   6
BRANCH   5  10
HETATM   10  C           1     -35.012  -2.662 -12.851  0.00  0.00     0.197 C 
HETATM   11  O           1     -35.835  -2.480 -11.929  0.00  0.00    -0.646 OA
HETATM   12  O           1     -34.776  -1.745 -13.668  0.00  0.00    -0.646 OA
ENDBRANCH   5  10
ENDBRANCH   1   5
BRANCH   3  13
HETATM   13  C           1     -32.979  -4.434 -16.548  0.00  0.00     0.332 C 
BRANCH  13  14
HETATM   14  N           1     -33.260  -3.199 -17.352  0.00  0.00    -0.071 N 
HETATM   15  H           1     -32.901  -2.360 -16.841  0.00  0.00     0.274 HD
HETATM   16  H           1     -32.785  -3.272 -18.279  0.00  0.00     0.274 HD
HETATM   17  H           1     -34.292  -3.104 -17.494  0.00  0.00     0.274 HD
ENDBRANCH  13  14
ENDBRANCH   3  13
TORSDOF 6
ENDMDL
MODEL 3
REMARK VINA RESULT:      -4.7     25.320     26.609
REMARK  6 active torsions:
REMARK  status: ('A' for Active; 'I' for Inactive)
REMARK    1  A    between atoms: C_1  and  C_15 
REMARK    2  A    between atoms: C_1  and  C_11 
REMARK    3  A    between atoms: C_1  and  N_3 
REMARK       I    between atoms: N_3  and  C_12 
REMARK    4  A    between atoms: C_5  and  C_15 
REMARK    5  A    between atoms: N_8  and  C_9 
REMARK    6  A    between atoms: C_9  and  C_12 
ROOT
HETATM    1  N           1     -11.471   6.648 -21.014  0.00  0.00    -0.345 N 
HETATM    2  O           1     -12.847   7.500 -19.477  0.00  0.00    -0.272 OA
HETATM    3  C           1     -12.339   7.608 -20.567  0.00  0.00     0.243 C 
HETATM    4  H           1     -11.044   6.738 -21.928  0.00  0.00     0.163 HD
ENDROOT
BRANCH   1   5
HETATM    5  C           1     -11.163   5.503 -20.180  0.00  0.00     0.189 C 
BRANCH   5   6
HETATM    6  C           1     -11.018   4.263 -21.054  0.00  0.00     0.014 C 
HETATM    7  C           1     -10.973   3.024 -20.170  0.00  0.00     0.012 C 
BRANCH   6   8
HETATM    8  C           1     -12.207   4.170 -22.000  0.00  0.00     0.002 C 
HETATM    9  C           1     -13.109   3.019 -21.572  0.00  0.00     0.005 C 
ENDBRANCH   6   8
ENDBRANCH   5   6
BRANCH   5  10
HETATM   10  C           1      -9.870   5.752 -19.443  0.00  0.00     0.197 C 
HETATM   11  O           1      -9.832   5.659 -18.198  0.00  0.00    -0.646 OA
HETATM   12  O           1      -8.835   6.052 -20.079  0.00  0.00    -0.646 OA
ENDBRANCH   5  10
ENDBRANCH   1   5
BRANCH   3  13
HETATM   13  C           1     -12.659   8.799 -21.435  0.00  0.00     0.332 C 
BRANCH  13  14
HETATM   14  N           1     -12.373  10.062 -20.678  0.00  0.00    -0.071 N 
HETATM   15  H           1     -12.363  10.871 -21.340  0.00  0.00     0.274 HD
HETATM   16  H           1     -13.113  10.211 -19.957  0.00  0.00     0.274 HD
HETATM   17  H           1     -11.440   9.984 -20.212  0.00  0.00     0.274 HD
ENDBRANCH  13  14
ENDBRANCH   3  13
TORSDOF 6
ENDMDL
MODEL 4
REMARK VINA RESULT:      -4.7     15.369     17.073
REMARK  6 active torsions:
REMARK  status: ('A' for Active; 'I' for Inactive)
REMARK    1  A    between atoms: C_1  and  C_15 
REMARK    2  A    between atoms: C_1  and  C_11 
REMARK    3  A    between atoms: C_1  and  N_3 
REMARK       I    between atoms: N_3  and  C_12 
REMARK    4  A    between atoms: C_5  and  C_15 
REMARK    5  A    between atoms: N_8  and  C_9 
REMARK    6  A    between atoms: C_9  and  C_12 
ROOT
HETATM    1  N           1     -21.790  -6.511  -5.369  0.00  0.00    -0.345 N 
HETATM    2  O           1     -20.322  -4.958  -6.016  0.00  0.00    -0.272 OA
HETATM    3  C           1     -21.451  -5.382  -6.067  0.00  0.00     0.243 C 
HETATM    4  H           1     -22.736  -6.867  -5.411  0.00  0.00     0.163 HD
ENDROOT
BRANCH   1   5
HETATM    5  C           1     -20.793  -7.195  -4.569  0.00  0.00     0.189 C 
BRANCH   5   6
HETATM    6  C           1     -21.404  -7.597  -3.233  0.00  0.00     0.014 C 
HETATM    7  C           1     -20.343  -8.269  -2.372  0.00  0.00     0.012 C 
BRANCH   6   8
HETATM    8  C           1     -21.926  -6.357  -2.520  0.00  0.00     0.002 C 
HETATM    9  C           1     -22.322  -6.717  -1.095  0.00  0.00     0.005 C 
ENDBRANCH   6   8
ENDBRANCH   5   6
BRANCH   5  10
HETATM   10  C           1     -20.324  -8.430  -5.299  0.00  0.00     0.197 C 
HETATM   11  O           1     -21.139  -9.330  -5.593  0.00  0.00    -0.646 OA
HETATM   12  O           1     -19.119  -8.551  -5.611  0.00  0.00    -0.646 OA
ENDBRANCH   5  10
ENDBRANCH   1   5
BRANCH   3  13
HETATM   13  C           1     -22.488  -4.670  -6.899  0.00  0.00     0.332 C 
BRANCH  13  14
HETATM   14  N           1     -21.906  -3.401  -7.447  0.00  0.00    -0.071 N 
HETATM   15  H           1     -21.439  -3.597  -8.362  0.00  0.00     0.274 HD
HETATM   16  H           1     -22.667  -2.700  -7.588  0.00  0.00     0.274 HD
HETATM   17  H           1     -21.202  -3.022  -6.772  0.00  0.00     0.274 HD
ENDBRANCH  13  14
ENDBRANCH   3  13
TORSDOF 6
ENDMDL
MODEL 5
REMARK VINA RESULT:      -4.6     17.497     18.973
REMARK  6 active torsions:
REMARK  status: ('A' for Active; 'I' for Inactive)
REMARK    1  A    between atoms: C_1  and  C_15 
REMARK    2  A    between atoms: C_1  and  C_11 
REMARK    3  A    between atoms: C_1  and  N_3 
REMARK       I    between atoms: N_3  and  C_12 
REMARK    4  A    between atoms: C_5  and  C_15 
REMARK    5  A    between atoms: N_8  and  C_9 
REMARK    6  A    between atoms: C_9  and  C_12 
ROOT
HETATM    1  N           1     -21.632  -8.525  -1.441  0.00  0.00    -0.345 N 
HETATM    2  O           1     -22.699  -6.651  -0.864  0.00  0.00    -0.272 OA
HETATM    3  C           1     -21.936  -7.202  -1.621  0.00  0.00     0.243 C 
HETATM    4  H           1     -20.993  -8.988  -2.075  0.00  0.00     0.163 HD
ENDROOT
BRANCH   1   5
HETATM    5  C           1     -22.227  -9.264  -0.345  0.00  0.00     0.189 C 
BRANCH   5   6
HETATM    6  C           1     -22.632 -10.650  -0.827  0.00  0.00     0.014 C 
HETATM    7  C           1     -24.021 -10.985  -0.299  0.00  0.00     0.012 C 
BRANCH   6   8
HETATM    8  C           1     -22.649 -10.671  -2.350  0.00  0.00     0.002 C 
HETATM    9  C           1     -22.599 -12.113  -2.840  0.00  0.00     0.005 C 
ENDBRANCH   6   8
ENDBRANCH   5   6
BRANCH   5  10
HETATM   10  C           1     -21.223  -9.394   0.775  0.00  0.00     0.197 C 
HETATM   11  O           1     -20.574 -10.453   0.913  0.00  0.00    -0.646 OA
HETATM   12  O           1     -21.041  -8.442   1.565  0.00  0.00    -0.646 OA
ENDBRANCH   5  10
ENDBRANCH   1   5
BRANCH   3  13
HETATM   13  C           1     -21.318  -6.434  -2.762  0.00  0.00     0.332 C 
BRANCH  13  14
HETATM   14  N           1     -22.329  -6.267  -3.859  0.00  0.00    -0.071 N 
HETATM   15  H           1     -23.235  -5.942  -3.451  0.00  0.00     0.274 HD
HETATM   16  H           1     -21.983  -5.561  -4.546  0.00  0.00     0.274 HD
HETATM   17  H           1     -22.474  -7.183  -4.341  0.00  0.00     0.274 HD
ENDBRANCH  13  14
ENDBRANCH   3  13
TORSDOF 6
ENDMDL
MODEL 6
REMARK VINA RESULT:      -4.5     24.185     25.523
REMARK  6 active torsions:
REMARK  status: ('A' for Active; 'I' for Inactive)
REMARK    1  A    between atoms: C_1  and  C_15 
REMARK    2  A    between atoms: C_1  and  C_11 
REMARK    3  A    between atoms: C_1  and  N_3 
REMARK       I    between atoms: N_3  and  C_12 
REMARK    4  A    between atoms: C_5  and  C_15 
REMARK    5  A    between atoms: N_8  and  C_9 
REMARK    6  A    between atoms: C_9  and  C_12 
ROOT
HETATM    1  N           1     -13.060   5.614 -21.348  0.00  0.00    -0.345 N 
HETATM    2  O           1     -14.798   5.154 -20.024  0.00  0.00    -0.272 OA
HETATM    3  C           1     -14.356   5.221 -21.146  0.00  0.00     0.243 C 
HETATM    4  H           1     -12.689   5.671 -22.289  0.00  0.00     0.163 HD
ENDROOT
BRANCH   1   5
HETATM    5  C           1     -12.218   5.948 -20.216  0.00  0.00     0.189 C 
BRANCH   5   6
HETATM    6  C           1     -10.799   5.461 -20.478  0.00  0.00     0.014 C 
HETATM    7  C           1     -10.066   5.303 -19.153  0.00  0.00     0.012 C 
BRANCH   6   8
HETATM    8  C           1     -10.849   4.118 -21.194  0.00  0.00     0.002 C 
HETATM    9  C           1     -10.930   2.996 -20.166  0.00  0.00     0.005 C 
ENDBRANCH   6   8
ENDBRANCH   5   6
BRANCH   5  10
HETATM   10  C           1     -12.208   7.445 -20.023  0.00  0.00     0.197 C 
HETATM   11  O           1     -12.998   7.976 -19.213  0.00  0.00    -0.646 OA
HETATM   12  O           1     -11.409   8.154 -20.673  0.00  0.00    -0.646 OA
ENDBRANCH   5  10
ENDBRANCH   1   5
BRANCH   3  13
HETATM   13  C           1     -15.231   4.873 -22.325  0.00  0.00     0.332 C 
BRANCH  13  14
HETATM   14  N           1     -14.797   3.556 -22.899  0.00  0.00    -0.071 N 
HETATM   15  H           1     -14.665   3.653 -23.932  0.00  0.00     0.274 HD
HETATM   16  H           1     -13.897   3.264 -22.458  0.00  0.00     0.274 HD
HETATM   17  H           1     -15.531   2.836 -22.709  0.00  0.00     0.274 HD
ENDBRANCH  13  14
ENDBRANCH   3  13
TORSDOF 6
ENDMDL
MODEL 7
REMARK VINA RESULT:      -4.3     17.404     19.199
REMARK  6 active torsions:
REMARK  status: ('A' for Active; 'I' for Inactive)
REMARK    1  A    between atoms: C_1  and  C_15 
REMARK    2  A    between atoms: C_1  and  C_11 
REMARK    3  A    between atoms: C_1  and  N_3 
REMARK       I    between atoms: N_3  and  C_12 
REMARK    4  A    between atoms: C_5  and  C_15 
REMARK    5  A    between atoms: N_8  and  C_9 
REMARK    6  A    between atoms: C_9  and  C_12 
ROOT
HETATM    1  N           1     -21.592  -9.098  -2.211  0.00  0.00    -0.345 N 
HETATM    2  O           1     -20.814  -7.005  -2.229  0.00  0.00    -0.272 OA
HETATM    3  C           1     -21.355  -7.901  -2.832  0.00  0.00     0.243 C 
HETATM    4  H           1     -22.045  -9.849  -2.715  0.00  0.00     0.163 HD
ENDROOT
BRANCH   1   5
HETATM    5  C           1     -21.197  -9.289  -0.829  0.00  0.00     0.189 C 
BRANCH   5   6
HETATM    6  C           1     -22.432  -9.555   0.021  0.00  0.00     0.014 C 
HETATM    7  C           1     -23.090  -8.231   0.386  0.00  0.00     0.012 C 
BRANCH   6   8
HETATM    8  C           1     -23.415 -10.410  -0.768  0.00  0.00     0.002 C 
HETATM    9  C           1     -23.773 -11.651   0.039  0.00  0.00     0.005 C 
ENDBRANCH   6   8
ENDBRANCH   5   6
BRANCH   5  10
HETATM   10  C           1     -20.258 -10.467  -0.734  0.00  0.00     0.197 C 
HETATM   11  O           1     -19.634 -10.853  -1.746  0.00  0.00    -0.646 OA
HETATM   12  O           1     -20.104 -11.057   0.358  0.00  0.00    -0.646 OA
ENDBRANCH   5  10
ENDBRANCH   1   5
BRANCH   3  13
HETATM   13  C           1     -21.767  -7.703  -4.269  0.00  0.00     0.332 C 
BRANCH  13  14
HETATM   14  N           1     -22.324  -6.321  -4.444  0.00  0.00    -0.071 N 
HETATM   15  H           1     -22.868  -6.274  -5.336  0.00  0.00     0.274 HD
HETATM   16  H           1     -22.952  -6.094  -3.641  0.00  0.00     0.274 HD
HETATM   17  H           1     -21.539  -5.631  -4.480  0.00  0.00     0.274 HD
ENDBRANCH  13  14
ENDBRANCH   3  13
TORSDOF 6
ENDMDL
MODEL 8
REMARK VINA RESULT:      -4.3     17.686     19.044
REMARK  6 active torsions:
REMARK  status: ('A' for Active; 'I' for Inactive)
REMARK    1  A    between atoms: C_1  and  C_15 
REMARK    2  A    between atoms: C_1  and  C_11 
REMARK    3  A    between atoms: C_1  and  N_3 
REMARK       I    between atoms: N_3  and  C_12 
REMARK    4  A    between atoms: C_5  and  C_15 
REMARK    5  A    between atoms: N_8  and  C_9 
REMARK    6  A    between atoms: C_9  and  C_12 
ROOT
HETATM    1  N           1     -22.017  -8.514  -1.796  0.00  0.00    -0.345 N 
HETATM    2  O           1     -20.250  -8.529  -3.160  0.00  0.00    -0.272 OA
HETATM    3  C           1     -21.167  -7.906  -2.681  0.00  0.00     0.243 C 
HETATM    4  H           1     -22.786  -7.992  -1.394  0.00  0.00     0.163 HD
ENDROOT
BRANCH   1   5
HETATM    5  C           1     -21.816  -9.903  -1.434  0.00  0.00     0.189 C 
BRANCH   5   6
HETATM    6  C           1     -21.965 -10.061   0.074  0.00  0.00     0.014 C 
HETATM    7  C           1     -20.840 -10.940   0.604  0.00  0.00     0.012 C 
BRANCH   6   8
HETATM    8  C           1     -21.894  -8.691   0.736  0.00  0.00     0.002 C 
HETATM    9  C           1     -20.775  -8.683   1.769  0.00  0.00     0.005 C 
ENDBRANCH   6   8
ENDBRANCH   5   6
BRANCH   5  10
HETATM   10  C           1     -22.846 -10.758  -2.132  0.00  0.00     0.197 C 
HETATM   11  O           1     -23.840 -11.180  -1.504  0.00  0.00    -0.646 OA
HETATM   12  O           1     -22.704 -11.044  -3.342  0.00  0.00    -0.646 OA
ENDBRANCH   5  10
ENDBRANCH   1   5
BRANCH   3  13
HETATM   13  C           1     -21.376  -6.461  -3.057  0.00  0.00     0.332 C 
BRANCH  13  14
HETATM   14  N           1     -22.337  -5.827  -2.094  0.00  0.00    -0.071 N 
HETATM   15  H           1     -21.848  -5.633  -1.190  0.00  0.00     0.274 HD
HETATM   16  H           1     -22.693  -4.931  -2.496  0.00  0.00     0.274 HD
HETATM   17  H           1     -23.138  -6.477  -1.923  0.00  0.00     0.274 HD
ENDBRANCH  13  14
ENDBRANCH   3  13
TORSDOF 6
ENDMDL
MODEL 9
REMARK VINA RESULT:      -4.3      3.296      4.135
REMARK  6 active torsions:
REMARK  status: ('A' for Active; 'I' for Inactive)
REMARK    1  A    between atoms: C_1  and  C_15 
REMARK    2  A    between atoms: C_1  and  C_11 
REMARK    3  A    between atoms: C_1  and  N_3 
REMARK       I    between atoms: N_3  and  C_12 
REMARK    4  A    between atoms: C_5  and  C_15 
REMARK    5  A    between atoms: N_8  and  C_9 
REMARK    6  A    between atoms: C_9  and  C_12 
ROOT
HETATM    1  N           1     -33.599  -3.915 -14.069  0.00  0.00    -0.345 N 
HETATM    2  O           1     -34.997  -4.810 -15.561  0.00  0.00    -0.272 OA
HETATM    3  C           1     -33.874  -4.454 -15.297  0.00  0.00     0.243 C 
HETATM    4  H           1     -32.658  -3.616 -13.846  0.00  0.00     0.163 HD
ENDROOT
BRANCH   1   5
HETATM    5  C           1     -34.655  -3.773 -13.086  0.00  0.00     0.189 C 
BRANCH   5   6
HETATM    6  C           1     -34.098  -4.058 -11.697  0.00  0.00     0.014 C 
HETATM    7  C           1     -33.782  -5.543 -11.574  0.00  0.00     0.012 C 
BRANCH   6   8
HETATM    8  C           1     -32.825  -3.250 -11.487  0.00  0.00     0.002 C 
HETATM    9  C           1     -33.101  -2.111 -10.513  0.00  0.00     0.005 C 
ENDBRANCH   6   8
ENDBRANCH   5   6
BRANCH   5  10
HETATM   10  C           1     -35.197  -2.365 -13.131  0.00  0.00     0.197 C 
HETATM   11  O           1     -34.846  -1.589 -14.046  0.00  0.00    -0.646 OA
HETATM   12  O           1     -35.996  -1.975 -12.252  0.00  0.00    -0.646 OA
ENDBRANCH   5  10
ENDBRANCH   1   5
BRANCH   3  13
HETATM   13  C           1     -32.774  -4.602 -16.319  0.00  0.00     0.332 C 
BRANCH  13  14
HETATM   14  N           1     -31.454  -4.737 -15.619  0.00  0.00    -0.071 N 
HETATM   15  H           1     -31.295  -5.739 -15.366  0.00  0.00     0.274 HD
HETATM   16  H           1     -30.690  -4.411 -16.250  0.00  0.00     0.274 HD
HETATM   17  H           1     -31.461  -4.157 -14.749  0.00  0.00     0.274 HD
ENDBRANCH  13  14
ENDBRANCH   3  13
TORSDOF 6
ENDMDL
