MODEL 1
REMARK VINA RESULT:      -6.8      0.000      0.000
REMARK  7 active torsions:
REMARK  status: ('A' for Active; 'I' for Inactive)
REMARK    1  A    between atoms: C_2  and  C_11 
REMARK    2  A    between atoms: C_3  and  C_10 
REMARK       I    between atoms: C_5  and  N_7 
REMARK    3  A    between atoms: C_5  and  C_6 
REMARK    4  A    between atoms: C_6  and  C_10 
REMARK    5  A    between atoms: C_6  and  N_9 
REMARK    6  A    between atoms: N_7  and  C_11 
REMARK    7  A    between atoms: C_11  and  C_15 
ROOT
HETATM    1  C           1     -21.609  -4.686  -7.681  0.00  0.00     0.249 C 
HETATM    2  N           1     -22.106  -4.899  -8.938  0.00  0.00    -0.344 N 
HETATM    3  O           1     -21.596  -3.571  -7.216  0.00  0.00    -0.271 OA
HETATM    4  H           1     -22.116  -5.834  -9.326  0.00  0.00     0.163 HD
ENDROOT
BRANCH   1   5
HETATM    5  C           1     -21.077  -5.845  -6.873  0.00  0.00     0.275 C 
BRANCH   5   6
HETATM    6  C           1     -20.961  -5.435  -5.411  0.00  0.00     0.046 C 
BRANCH   6   7
HETATM    7  C           1     -21.827  -6.351  -4.555  0.00  0.00    -0.020 C 
HETATM    8  C           1     -21.604  -7.798  -4.973  0.00  0.00     0.009 C 
HETATM    9  C           1     -21.448  -6.182  -3.090  0.00  0.00     0.009 C 
ENDBRANCH   6   7
ENDBRANCH   5   6
BRANCH   5  10
HETATM   10  N           1     -19.726  -6.236  -7.391  0.00  0.00    -0.066 N 
HETATM   11  H           1     -19.049  -5.458  -7.220  0.00  0.00     0.275 HD
HETATM   12  H           1     -19.786  -6.425  -8.416  0.00  0.00     0.275 HD
HETATM   13  H           1     -19.398  -7.097  -6.896  0.00  0.00     0.275 HD
ENDBRANCH   5  10
ENDBRANCH   1   5
BRANCH   2  14
HETATM   14  C           1     -22.617  -3.786  -9.714  0.00  0.00     0.189 C 
BRANCH  14  15
HETATM   15  C           1     -24.124  -3.848  -9.748  0.00  0.00     0.197 C 
HETATM   16  O           1     -24.799  -2.832  -9.471  0.00  0.00    -0.646 OA
HETATM   17  O           1     -24.699  -4.916 -10.052  0.00  0.00    -0.646 OA
ENDBRANCH  14  15
BRANCH  14  18
HETATM   18  C           1     -22.072  -3.865 -11.134  0.00  0.00     0.010 C 
HETATM   19  C           1     -20.551  -3.887 -11.093  0.00  0.00     0.012 C 
HETATM   20  C           1     -22.542  -2.652 -11.926  0.00  0.00     0.012 C 
ENDBRANCH  14  18
ENDBRANCH   2  14
TORSDOF 7
ENDMDL
MODEL 2
REMARK VINA RESULT:      -5.6      2.633      6.568
REMARK  7 active torsions:
REMARK  status: ('A' for Active; 'I' for Inactive)
REMARK    1  A    between atoms: C_2  and  C_11 
REMARK    2  A    between atoms: C_3  and  C_10 
REMARK       I    between atoms: C_5  and  N_7 
REMARK    3  A    between atoms: C_5  and  C_6 
REMARK    4  A    between atoms: C_6  and  C_10 
REMARK    5  A    between atoms: C_6  and  N_9 
REMARK    6  A    between atoms: N_7  and  C_11 
REMARK    7  A    between atoms: C_11  and  C_15 
ROOT
HETATM    1  C           1     -21.112  -5.292  -6.216  0.00  0.00     0.249 C 
HETATM    2  N           1     -21.601  -6.320  -5.458  0.00  0.00    -0.344 N 
HETATM    3  O           1     -19.935  -5.023  -6.184  0.00  0.00    -0.271 OA
HETATM    4  H           1     -22.588  -6.544  -5.485  0.00  0.00     0.163 HD
ENDROOT
BRANCH   1   5
HETATM    5  C           1     -22.044  -4.492  -7.094  0.00  0.00     0.275 C 
BRANCH   5   6
HETATM    6  C           1     -22.025  -5.060  -8.507  0.00  0.00     0.046 C 
BRANCH   6   7
HETATM    7  C           1     -21.638  -3.963  -9.491  0.00  0.00    -0.020 C 
HETATM    8  C           1     -20.387  -4.379 -10.251  0.00  0.00     0.009 C 
HETATM    9  C           1     -22.779  -3.740 -10.475  0.00  0.00     0.009 C 
ENDBRANCH   6   7
ENDBRANCH   5   6
BRANCH   5  10
HETATM   10  N           1     -21.597  -3.061  -7.125  0.00  0.00    -0.066 N 
HETATM   11  H           1     -20.590  -3.017  -7.402  0.00  0.00     0.275 HD
HETATM   12  H           1     -21.716  -2.638  -6.177  0.00  0.00     0.275 HD
HETATM   13  H           1     -22.172  -2.531  -7.818  0.00  0.00     0.275 HD
ENDBRANCH   5  10
ENDBRANCH   1   5
BRANCH   2  14
HETATM   14  C           1     -20.706  -7.089  -4.614  0.00  0.00     0.189 C 
BRANCH  14  15
HETATM   15  C           1     -20.300  -8.351  -5.333  0.00  0.00     0.197 C 
HETATM   16  O           1     -21.166  -9.191  -5.661  0.00  0.00    -0.646 OA
HETATM   17  O           1     -19.096  -8.558  -5.600  0.00  0.00    -0.646 OA
ENDBRANCH  14  15
BRANCH  14  18
HETATM   18  C           1     -21.417  -7.448  -3.315  0.00  0.00     0.010 C 
HETATM   19  C           1     -21.892  -6.175  -2.629  0.00  0.00     0.012 C 
HETATM   20  C           1     -20.453  -8.190  -2.399  0.00  0.00     0.012 C 
ENDBRANCH  14  18
ENDBRANCH   2  14
TORSDOF 7
ENDMDL
MODEL 3
REMARK VINA RESULT:      -5.6      2.771      6.568
REMARK  7 active torsions:
REMARK  status: ('A' for Active; 'I' for Inactive)
REMARK    1  A    between atoms: C_2  and  C_11 
REMARK    2  A    between atoms: C_3  and  C_10 
REMARK       I    between atoms: C_5  and  N_7 
REMARK    3  A    between atoms: C_5  and  C_6 
REMARK    4  A    between atoms: C_6  and  C_10 
REMARK    5  A    between atoms: C_6  and  N_9 
REMARK    6  A    between atoms: N_7  and  C_11 
REMARK    7  A    between atoms: C_11  and  C_15 
ROOT
HETATM    1  C           1     -21.703  -5.751  -5.557  0.00  0.00     0.249 C 
HETATM    2  N           1     -20.932  -6.511  -4.721  0.00  0.00    -0.344 N 
HETATM    3  O           1     -22.905  -5.872  -5.549  0.00  0.00    -0.271 OA
HETATM    4  H           1     -19.925  -6.409  -4.729  0.00  0.00     0.163 HD
ENDROOT
BRANCH   1   5
HETATM    5  C           1     -21.052  -4.760  -6.492  0.00  0.00     0.275 C 
BRANCH   5   6
HETATM    6  C           1     -21.268  -5.203  -7.933  0.00  0.00     0.046 C 
BRANCH   6   7
HETATM    7  C           1     -21.767  -4.024  -8.759  0.00  0.00    -0.020 C 
HETATM    8  C           1     -21.160  -4.086 -10.153  0.00  0.00     0.009 C 
HETATM    9  C           1     -23.285  -4.086  -8.863  0.00  0.00     0.009 C 
ENDBRANCH   6   7
ENDBRANCH   5   6
BRANCH   5  10
HETATM   10  N           1     -19.582  -4.694  -6.205  0.00  0.00    -0.066 N 
HETATM   11  H           1     -19.432  -4.618  -5.173  0.00  0.00     0.275 HD
HETATM   12  H           1     -19.171  -3.858  -6.678  0.00  0.00     0.275 HD
HETATM   13  H           1     -19.118  -5.560  -6.562  0.00  0.00     0.275 HD
ENDBRANCH   5  10
ENDBRANCH   1   5
BRANCH   2  14
HETATM   14  C           1     -21.557  -7.463  -3.823  0.00  0.00     0.189 C 
BRANCH  14  15
HETATM   15  C           1     -21.603  -6.884  -2.431  0.00  0.00     0.197 C 
HETATM   16  O           1     -22.323  -5.892  -2.189  0.00  0.00    -0.646 OA
HETATM   17  O           1     -20.920  -7.398  -1.518  0.00  0.00    -0.646 OA
ENDBRANCH  14  15
BRANCH  14  18
HETATM   18  C           1     -20.750  -8.755  -3.811  0.00  0.00     0.010 C 
HETATM   19  C           1     -19.632  -8.664  -4.841  0.00  0.00     0.012 C 
HETATM   20  C           1     -21.662  -9.926  -4.153  0.00  0.00     0.012 C 
ENDBRANCH  14  18
ENDBRANCH   2  14
TORSDOF 7
ENDMDL
MODEL 4
REMARK VINA RESULT:      -5.5      5.142      8.324
REMARK  7 active torsions:
REMARK  status: ('A' for Active; 'I' for Inactive)
REMARK    1  A    between atoms: C_2  and  C_11 
REMARK    2  A    between atoms: C_3  and  C_10 
REMARK       I    between atoms: C_5  and  N_7 
REMARK    3  A    between atoms: C_5  and  C_6 
REMARK    4  A    between atoms: C_6  and  C_10 
REMARK    5  A    between atoms: C_6  and  N_9 
REMARK    6  A    between atoms: N_7  and  C_11 
REMARK    7  A    between atoms: C_11  and  C_15 
ROOT
HETATM    1  C           1     -20.247  -8.625  -3.420  0.00  0.00     0.249 C 
HETATM    2  N           1     -21.437  -8.618  -2.745  0.00  0.00    -0.344 N 
HETATM    3  O           1     -19.231  -8.945  -2.852  0.00  0.00    -0.271 OA
HETATM    4  H           1     -22.289  -8.350  -3.222  0.00  0.00     0.163 HD
ENDROOT
BRANCH   1   5
HETATM    5  C           1     -20.204  -8.232  -4.877  0.00  0.00     0.275 C 
BRANCH   5   6
HETATM    6  C           1     -21.019  -6.963  -5.086  0.00  0.00     0.046 C 
BRANCH   6   7
HETATM    7  C           1     -20.280  -6.035  -6.041  0.00  0.00    -0.020 C 
HETATM    8  C           1     -21.070  -5.902  -7.335  0.00  0.00     0.009 C 
HETATM    9  C           1     -20.126  -4.663  -5.398  0.00  0.00     0.009 C 
ENDBRANCH   6   7
ENDBRANCH   5   6
BRANCH   5  10
HETATM   10  N           1     -20.781  -9.337  -5.710  0.00  0.00    -0.066 N 
HETATM   11  H           1     -20.366  -9.304  -6.669  0.00  0.00     0.275 HD
HETATM   12  H           1     -21.817  -9.221  -5.776  0.00  0.00     0.275 HD
HETATM   13  H           1     -20.561 -10.258  -5.267  0.00  0.00     0.275 HD
ENDBRANCH   5  10
ENDBRANCH   1   5
BRANCH   2  14
HETATM   14  C           1     -21.479  -8.995  -1.345  0.00  0.00     0.189 C 
BRANCH  14  15
HETATM   15  C           1     -22.006 -10.403  -1.220  0.00  0.00     0.197 C 
HETATM   16  O           1     -21.216 -11.353  -1.029  0.00  0.00    -0.646 OA
HETATM   17  O           1     -23.234 -10.621  -1.307  0.00  0.00    -0.646 OA
ENDBRANCH  14  15
BRANCH  14  18
HETATM   18  C           1     -22.393  -8.040  -0.589  0.00  0.00     0.010 C 
HETATM   19  C           1     -22.271  -6.644  -1.184  0.00  0.00     0.012 C 
HETATM   20  C           1     -21.988  -8.004   0.878  0.00  0.00     0.012 C 
ENDBRANCH  14  18
ENDBRANCH   2  14
TORSDOF 7
ENDMDL
MODEL 5
REMARK VINA RESULT:      -5.4     10.688     13.024
REMARK  7 active torsions:
REMARK  status: ('A' for Active; 'I' for Inactive)
REMARK    1  A    between atoms: C_2  and  C_11 
REMARK    2  A    between atoms: C_3  and  C_10 
REMARK       I    between atoms: C_5  and  N_7 
REMARK    3  A    between atoms: C_5  and  C_6 
REMARK    4  A    between atoms: C_6  and  C_10 
REMARK    5  A    between atoms: C_6  and  N_9 
REMARK    6  A    between atoms: N_7  and  C_11 
REMARK    7  A    between atoms: C_11  and  C_15 
ROOT
HETATM    1  C           1     -27.748  -6.488 -18.954  0.00  0.00     0.249 C 
HETATM    2  N           1     -28.270  -7.062 -17.827  0.00  0.00    -0.344 N 
HETATM    3  O           1     -28.019  -5.345 -19.232  0.00  0.00    -0.271 OA
HETATM    4  H           1     -28.042  -8.021 -17.595  0.00  0.00     0.163 HD
ENDROOT
BRANCH   1   5
HETATM    5  C           1     -26.834  -7.286 -19.853  0.00  0.00     0.275 C 
BRANCH   5   6
HETATM    6  C           1     -26.133  -6.348 -20.826  0.00  0.00     0.046 C 
BRANCH   6   7
HETATM    7  C           1     -24.649  -6.688 -20.882  0.00  0.00    -0.020 C 
HETATM    8  C           1     -24.213  -7.284 -19.551  0.00  0.00     0.009 C 
HETATM    9  C           1     -24.403  -7.699 -21.995  0.00  0.00     0.009 C 
ENDBRANCH   6   7
ENDBRANCH   5   6
BRANCH   5  10
HETATM   10  N           1     -27.639  -8.292 -20.620  0.00  0.00    -0.066 N 
HETATM   11  H           1     -28.656  -8.075 -20.515  0.00  0.00     0.275 HD
HETATM   12  H           1     -27.447  -9.249 -20.248  0.00  0.00     0.275 HD
HETATM   13  H           1     -27.376  -8.251 -21.630  0.00  0.00     0.275 HD
ENDBRANCH   5  10
ENDBRANCH   1   5
BRANCH   2  14
HETATM   14  C           1     -29.148  -6.296 -16.963  0.00  0.00     0.189 C 
BRANCH  14  15
HETATM   15  C           1     -28.691  -6.435 -15.532  0.00  0.00     0.197 C 
HETATM   16  O           1     -28.995  -5.562 -14.691  0.00  0.00    -0.646 OA
HETATM   17  O           1     -28.007  -7.423 -15.188  0.00  0.00    -0.646 OA
ENDBRANCH  14  15
BRANCH  14  18
HETATM   18  C           1     -30.572  -6.820 -17.096  0.00  0.00     0.010 C 
HETATM   19  C           1     -30.697  -7.631 -18.378  0.00  0.00     0.012 C 
HETATM   20  C           1     -31.542  -5.646 -17.141  0.00  0.00     0.012 C 
ENDBRANCH  14  18
ENDBRANCH   2  14
TORSDOF 7
ENDMDL
MODEL 6
REMARK VINA RESULT:      -5.3      6.007      8.070
REMARK  7 active torsions:
REMARK  status: ('A' for Active; 'I' for Inactive)
REMARK    1  A    between atoms: C_2  and  C_11 
REMARK    2  A    between atoms: C_3  and  C_10 
REMARK       I    between atoms: C_5  and  N_7 
REMARK    3  A    between atoms: C_5  and  C_6 
REMARK    4  A    between atoms: C_6  and  C_10 
REMARK    5  A    between atoms: C_6  and  N_9 
REMARK    6  A    between atoms: N_7  and  C_11 
REMARK    7  A    between atoms: C_11  and  C_15 
ROOT
HETATM    1  C           1     -21.682  -8.628  -0.772  0.00  0.00     0.249 C 
HETATM    2  N           1     -21.870  -8.467  -2.118  0.00  0.00    -0.344 N 
HETATM    3  O           1     -20.713  -8.149  -0.235  0.00  0.00    -0.271 OA
HETATM    4  H           1     -22.683  -8.870  -2.567  0.00  0.00     0.163 HD
ENDROOT
BRANCH   1   5
HETATM    5  C           1     -22.688  -9.406   0.043  0.00  0.00     0.275 C 
BRANCH   5   6
HETATM    6  C           1     -23.340 -10.467  -0.833  0.00  0.00     0.046 C 
BRANCH   6   7
HETATM    7  C           1     -23.546 -11.740  -0.022  0.00  0.00    -0.020 C 
HETATM    8  C           1     -24.003 -12.862  -0.943  0.00  0.00     0.009 C 
HETATM    9  C           1     -22.234 -12.134   0.644  0.00  0.00     0.009 C 
ENDBRANCH   6   7
ENDBRANCH   5   6
BRANCH   5  10
HETATM   10  N           1     -23.740  -8.472   0.562  0.00  0.00    -0.066 N 
HETATM   11  H           1     -24.440  -8.284  -0.191  0.00  0.00     0.275 HD
HETATM   12  H           1     -23.294  -7.573   0.854  0.00  0.00     0.275 HD
HETATM   13  H           1     -24.218  -8.907   1.383  0.00  0.00     0.275 HD
ENDBRANCH   5  10
ENDBRANCH   1   5
BRANCH   2  14
HETATM   14  C           1     -20.904  -7.721  -2.901  0.00  0.00     0.189 C 
BRANCH  14  15
HETATM   15  C           1     -21.512  -6.408  -3.330  0.00  0.00     0.197 C 
HETATM   16  O           1     -21.108  -5.840  -4.367  0.00  0.00    -0.646 OA
HETATM   17  O           1     -22.422  -5.889  -2.646  0.00  0.00    -0.646 OA
ENDBRANCH  14  15
BRANCH  14  18
HETATM   18  C           1     -20.516  -8.529  -4.132  0.00  0.00     0.010 C 
HETATM   19  C           1     -21.504  -9.671  -4.322  0.00  0.00     0.012 C 
HETATM   20  C           1     -19.114  -9.095  -3.946  0.00  0.00     0.012 C 
ENDBRANCH  14  18
ENDBRANCH   2  14
TORSDOF 7
ENDMDL
MODEL 7
REMARK VINA RESULT:      -5.2      6.135      9.373
REMARK  7 active torsions:
REMARK  status: ('A' for Active; 'I' for Inactive)
REMARK    1  A    between atoms: C_2  and  C_11 
REMARK    2  A    between atoms: C_3  and  C_10 
REMARK       I    between atoms: C_5  and  N_7 
REMARK    3  A    between atoms: C_5  and  C_6 
REMARK    4  A    between atoms: C_6  and  C_10 
REMARK    5  A    between atoms: C_6  and  N_9 
REMARK    6  A    between atoms: N_7  and  C_11 
REMARK    7  A    between atoms: C_11  and  C_15 
ROOT
HETATM    1  C           1     -22.298  -7.704  -1.088  0.00  0.00     0.249 C 
HETATM    2  N           1     -22.001  -9.008  -1.377  0.00  0.00    -0.344 N 
HETATM    3  O           1     -22.583  -7.384   0.041  0.00  0.00    -0.271 OA
HETATM    4  H           1     -21.762  -9.275  -2.323  0.00  0.00     0.163 HD
ENDROOT
BRANCH   1   5
HETATM    5  C           1     -22.269  -6.663  -2.182  0.00  0.00     0.275 C 
BRANCH   5   6
HETATM    6  C           1     -21.135  -6.974  -3.150  0.00  0.00     0.046 C 
BRANCH   6   7
HETATM    7  C           1     -21.587  -6.681  -4.574  0.00  0.00    -0.020 C 
HETATM    8  C           1     -20.766  -5.532  -5.143  0.00  0.00     0.009 C 
HETATM    9  C           1     -21.387  -7.921  -5.435  0.00  0.00     0.009 C 
ENDBRANCH   6   7
ENDBRANCH   5   6
BRANCH   5  10
HETATM   10  N           1     -22.052  -5.309  -1.578  0.00  0.00    -0.066 N 
HETATM   11  H           1     -21.059  -5.222  -1.264  0.00  0.00     0.275 HD
HETATM   12  H           1     -22.688  -5.187  -0.757  0.00  0.00     0.275 HD
HETATM   13  H           1     -22.258  -4.572  -2.290  0.00  0.00     0.275 HD
ENDBRANCH   5  10
ENDBRANCH   1   5
BRANCH   2  14
HETATM   14  C           1     -22.028 -10.007  -0.326  0.00  0.00     0.189 C 
BRANCH  14  15
HETATM   15  C           1     -20.619 -10.440  -0.007  0.00  0.00     0.197 C 
HETATM   16  O           1     -20.255 -10.561   1.182  0.00  0.00    -0.646 OA
HETATM   17  O           1     -19.813 -10.677  -0.934  0.00  0.00    -0.646 OA
ENDBRANCH  14  15
BRANCH  14  18
HETATM   18  C           1     -22.837 -11.211  -0.792  0.00  0.00     0.010 C 
HETATM   19  C           1     -23.005 -11.154  -2.304  0.00  0.00     0.012 C 
HETATM   20  C           1     -24.208 -11.189  -0.128  0.00  0.00     0.012 C 
ENDBRANCH  14  18
ENDBRANCH   2  14
TORSDOF 7
ENDMDL
MODEL 8
REMARK VINA RESULT:      -5.1      7.261      8.896
REMARK  7 active torsions:
REMARK  status: ('A' for Active; 'I' for Inactive)
REMARK    1  A    between atoms: C_2  and  C_11 
REMARK    2  A    between atoms: C_3  and  C_10 
REMARK       I    between atoms: C_5  and  N_7 
REMARK    3  A    between atoms: C_5  and  C_6 
REMARK    4  A    between atoms: C_6  and  C_10 
REMARK    5  A    between atoms: C_6  and  N_9 
REMARK    6  A    between atoms: N_7  and  C_11 
REMARK    7  A    between atoms: C_11  and  C_15 
ROOT
HETATM    1  C           1     -20.064  -9.779  -2.586  0.00  0.00     0.249 C 
HETATM    2  N           1     -20.464  -8.941  -1.580  0.00  0.00    -0.344 N 
HETATM    3  O           1     -20.846 -10.113  -3.442  0.00  0.00    -0.271 OA
HETATM    4  H           1     -19.807  -8.662  -0.863  0.00  0.00     0.163 HD
ENDROOT
BRANCH   1   5
HETATM    5  C           1     -18.642 -10.286  -2.624  0.00  0.00     0.275 C 
BRANCH   5   6
HETATM    6  C           1     -18.025  -9.967  -3.979  0.00  0.00     0.046 C 
BRANCH   6   7
HETATM    7  C           1     -16.528 -10.248  -3.935  0.00  0.00    -0.020 C 
HETATM    8  C           1     -15.897  -9.852  -5.262  0.00  0.00     0.009 C 
HETATM    9  C           1     -15.894  -9.440  -2.811  0.00  0.00     0.009 C 
ENDBRANCH   6   7
ENDBRANCH   5   6
BRANCH   5  10
HETATM   10  N           1     -18.635 -11.770  -2.408  0.00  0.00    -0.066 N 
HETATM   11  H           1     -19.618 -12.122  -2.379  0.00  0.00     0.275 HD
HETATM   12  H           1     -18.160 -11.989  -1.504  0.00  0.00     0.275 HD
HETATM   13  H           1     -18.122 -12.233  -3.192  0.00  0.00     0.275 HD
ENDBRANCH   5  10
ENDBRANCH   1   5
BRANCH   2  14
HETATM   14  C           1     -21.830  -8.454  -1.543  0.00  0.00     0.189 C 
BRANCH  14  15
HETATM   15  C           1     -21.843  -6.976  -1.844  0.00  0.00     0.197 C 
HETATM   16  O           1     -21.173  -6.524  -2.797  0.00  0.00    -0.646 OA
HETATM   17  O           1     -22.526  -6.201  -1.138  0.00  0.00    -0.646 OA
ENDBRANCH  14  15
BRANCH  14  18
HETATM   18  C           1     -22.418  -8.698  -0.159  0.00  0.00     0.010 C 
HETATM   19  C           1     -21.290  -8.845   0.852  0.00  0.00     0.012 C 
HETATM   20  C           1     -23.250  -9.974  -0.181  0.00  0.00     0.012 C 
ENDBRANCH  14  18
ENDBRANCH   2  14
TORSDOF 7
ENDMDL
MODEL 9
REMARK VINA RESULT:      -5.0      5.701      8.145
REMARK  7 active torsions:
REMARK  status: ('A' for Active; 'I' for Inactive)
REMARK    1  A    between atoms: C_2  and  C_11 
REMARK    2  A    between atoms: C_3  and  C_10 
REMARK       I    between atoms: C_5  and  N_7 
REMARK    3  A    between atoms: C_5  and  C_6 
REMARK    4  A    between atoms: C_6  and  C_10 
REMARK    5  A    between atoms: C_6  and  N_9 
REMARK    6  A    between atoms: N_7  and  C_11 
REMARK    7  A    between atoms: C_11  and  C_15 
ROOT
HETATM    1  C           1     -22.097  -9.892  -1.984  0.00  0.00     0.249 C 
HETATM    2  N           1     -21.430  -8.747  -2.326  0.00  0.00    -0.344 N 
HETATM    3  O           1     -22.575 -10.593  -2.843  0.00  0.00    -0.271 OA
HETATM    4  H           1     -21.030  -8.160  -1.605  0.00  0.00     0.163 HD
ENDROOT
BRANCH   1   5
HETATM    5  C           1     -22.238 -10.278  -0.531  0.00  0.00     0.275 C 
BRANCH   5   6
HETATM    6  C           1     -23.665 -10.734  -0.262  0.00  0.00     0.046 C 
BRANCH   6   7
HETATM    7  C           1     -23.655 -12.176   0.230  0.00  0.00    -0.020 C 
HETATM    8  C           1     -23.982 -13.110  -0.926  0.00  0.00     0.009 C 
HETATM    9  C           1     -22.275 -12.513   0.779  0.00  0.00     0.009 C 
ENDBRANCH   6   7
ENDBRANCH   5   6
BRANCH   5  10
HETATM   10  N           1     -21.920  -9.095   0.333  0.00  0.00    -0.066 N 
HETATM   11  H           1     -22.387  -8.244  -0.056  0.00  0.00     0.275 HD
HETATM   12  H           1     -20.886  -8.945   0.354  0.00  0.00     0.275 HD
HETATM   13  H           1     -22.267  -9.269   1.304  0.00  0.00     0.275 HD
ENDBRANCH   5  10
ENDBRANCH   1   5
BRANCH   2  14
HETATM   14  C           1     -21.295  -8.376  -3.722  0.00  0.00     0.189 C 
BRANCH  14  15
HETATM   15  C           1     -19.968  -8.867  -4.246  0.00  0.00     0.197 C 
HETATM   16  O           1     -19.854  -9.205  -5.444  0.00  0.00    -0.646 OA
HETATM   17  O           1     -18.981  -8.937  -3.481  0.00  0.00    -0.646 OA
ENDBRANCH  14  15
BRANCH  14  18
HETATM   18  C           1     -21.365  -6.860  -3.852  0.00  0.00     0.010 C 
HETATM   19  C           1     -21.804  -6.257  -2.525  0.00  0.00     0.012 C 
HETATM   20  C           1     -22.369  -6.490  -4.936  0.00  0.00     0.012 C 
ENDBRANCH  14  18
ENDBRANCH   2  14
TORSDOF 7
ENDMDL
