MODEL 1
REMARK VINA RESULT:      -6.8      0.000      0.000
REMARK  9 active torsions:
REMARK  status: ('A' for Active; 'I' for Inactive)
REMARK    1  A    between atoms: C_2  and  C_7 
REMARK    2  A    between atoms: C_2  and  C_3 
REMARK    3  A    between atoms: C_2  and  N_23 
REMARK    4  A    between atoms: C_3  and  C_4 
REMARK       I    between atoms: C_4  and  N_8 
REMARK    5  A    between atoms: N_6  and  C_9 
REMARK       I    between atoms: N_6  and  C_7 
REMARK    6  A    between atoms: C_9  and  C_10 
REMARK    7  A    between atoms: C_9  and  C_15 
REMARK    8  A    between atoms: C_10  and  C_11 
REMARK    9  A    between atoms: C_11  and  C_13 
ROOT
HETATM    1  N           1     -34.961  -1.673 -13.195  0.00  0.00    -0.345 N 
HETATM    2  C           1     -34.311  -2.516 -12.334  0.00  0.00     0.249 C 
HETATM    3  H           1     -35.337  -2.030 -14.065  0.00  0.00     0.163 HD
HETATM    4  O           1     -33.863  -2.091 -11.297  0.00  0.00    -0.271 OA
ENDROOT
BRANCH   2   5
HETATM    5  C           1     -34.155  -3.977 -12.681  0.00  0.00     0.283 C 
BRANCH   5   6
HETATM    6  C           1     -33.190  -4.630 -11.702  0.00  0.00     0.145 C 
BRANCH   6   7
HETATM    7  C           1     -33.914  -5.693 -10.912  0.00  0.00     0.217 C 
HETATM    8  O           1     -34.952  -5.429 -10.355  0.00  0.00    -0.274 OA
HETATM    9  N           1     -33.394  -6.956 -10.827  0.00  0.00    -0.370 N 
HETATM   10  H           1     -33.879  -7.669 -10.297  0.00  0.00     0.159 HD
HETATM   11  H           1     -32.523  -7.178 -11.293  0.00  0.00     0.159 HD
ENDBRANCH   6   7
ENDBRANCH   5   6
BRANCH   5  12
HETATM   12  N           1     -33.617  -4.104 -14.075  0.00  0.00    -0.066 N 
HETATM   13  H           1     -34.375  -3.895 -14.761  0.00  0.00     0.275 HD
HETATM   14  H           1     -33.268  -5.078 -14.225  0.00  0.00     0.275 HD
HETATM   15  H           1     -32.830  -3.429 -14.207  0.00  0.00     0.275 HD
ENDBRANCH   5  12
ENDBRANCH   2   5
BRANCH   1  16
HETATM   16  C           1     -35.111  -0.270 -12.862  0.00  0.00     0.186 C 
BRANCH  16  17
HETATM   17  C           1     -35.216   0.547 -14.144  0.00  0.00     0.046 C 
BRANCH  17  18
HETATM   18  C           1     -35.325  -0.394 -15.338  0.00  0.00     0.116 C 
BRANCH  18  19
HETATM   19  C           1     -36.588  -0.090 -16.104  0.00  0.00     0.172 C 
HETATM   20  O           1     -37.280   0.906 -15.799  0.00  0.00    -0.648 OA
HETATM   21  O           1     -36.943  -0.833 -17.045  0.00  0.00    -0.648 OA
ENDBRANCH  18  19
ENDBRANCH  17  18
ENDBRANCH  16  17
BRANCH  16  22
HETATM   22  C           1     -36.362  -0.080 -12.041  0.00  0.00     0.196 C 
HETATM   23  O           1     -37.472  -0.418 -12.505  0.00  0.00    -0.646 OA
HETATM   24  O           1     -36.288   0.416 -10.896  0.00  0.00    -0.646 OA
ENDBRANCH  16  22
ENDBRANCH   1  16
TORSDOF 9
ENDMDL
MODEL 2
REMARK VINA RESULT:      -6.7     11.793     13.657
REMARK  9 active torsions:
REMARK  status: ('A' for Active; 'I' for Inactive)
REMARK    1  A    between atoms: C_2  and  C_7 
REMARK    2  A    between atoms: C_2  and  C_3 
REMARK    3  A    between atoms: C_2  and  N_23 
REMARK    4  A    between atoms: C_3  and  C_4 
REMARK       I    between atoms: C_4  and  N_8 
REMARK    5  A    between atoms: N_6  and  C_9 
REMARK       I    between atoms: N_6  and  C_7 
REMARK    6  A    between atoms: C_9  and  C_10 
REMARK    7  A    between atoms: C_9  and  C_15 
REMARK    8  A    between atoms: C_10  and  C_11 
REMARK    9  A    between atoms: C_11  and  C_13 
ROOT
HETATM    1  N           1     -22.277  -4.854  -9.190  0.00  0.00    -0.345 N 
HETATM    2  C           1     -21.748  -4.542  -7.966  0.00  0.00     0.249 C 
HETATM    3  H           1     -22.254  -5.810  -9.523  0.00  0.00     0.163 HD
HETATM    4  O           1     -21.776  -3.403  -7.569  0.00  0.00    -0.271 OA
ENDROOT
BRANCH   2   5
HETATM    5  C           1     -21.130  -5.624  -7.114  0.00  0.00     0.283 C 
BRANCH   5   6
HETATM    6  C           1     -20.916  -5.096  -5.702  0.00  0.00     0.145 C 
BRANCH   6   7
HETATM    7  C           1     -21.049  -6.229  -4.715  0.00  0.00     0.217 C 
HETATM    8  O           1     -20.415  -7.245  -4.872  0.00  0.00    -0.274 OA
HETATM    9  N           1     -21.889  -6.108  -3.641  0.00  0.00    -0.370 N 
HETATM   10  H           1     -21.979  -6.867  -2.979  0.00  0.00     0.159 HD
HETATM   11  H           1     -22.422  -5.256  -3.509  0.00  0.00     0.159 HD
ENDBRANCH   6   7
ENDBRANCH   5   6
BRANCH   5  12
HETATM   12  N           1     -19.811  -6.029  -7.701  0.00  0.00    -0.066 N 
HETATM   13  H           1     -19.889  -6.063  -8.742  0.00  0.00     0.275 HD
HETATM   14  H           1     -19.545  -6.974  -7.341  0.00  0.00     0.275 HD
HETATM   15  H           1     -19.080  -5.334  -7.429  0.00  0.00     0.275 HD
ENDBRANCH   5  12
ENDBRANCH   2   5
BRANCH   1  16
HETATM   16  C           1     -22.872  -3.815 -10.009  0.00  0.00     0.186 C 
BRANCH  16  17
HETATM   17  C           1     -22.566  -4.089 -11.476  0.00  0.00     0.046 C 
BRANCH  17  18
HETATM   18  C           1     -22.682  -2.794 -12.270  0.00  0.00     0.116 C 
BRANCH  18  19
HETATM   19  C           1     -23.747  -2.945 -13.327  0.00  0.00     0.172 C 
HETATM   20  O           1     -24.955  -2.936 -13.002  0.00  0.00    -0.648 OA
HETATM   21  O           1     -23.424  -3.078 -14.527  0.00  0.00    -0.648 OA
ENDBRANCH  18  19
ENDBRANCH  17  18
ENDBRANCH  16  17
BRANCH  16  22
HETATM   22  C           1     -24.365  -3.804  -9.799  0.00  0.00     0.196 C 
HETATM   23  O           1     -25.014  -4.870  -9.864  0.00  0.00    -0.646 OA
HETATM   24  O           1     -24.954  -2.727  -9.561  0.00  0.00    -0.646 OA
ENDBRANCH  16  22
ENDBRANCH   1  16
TORSDOF 9
ENDMDL
MODEL 3
REMARK VINA RESULT:      -6.6      1.880      3.697
REMARK  9 active torsions:
REMARK  status: ('A' for Active; 'I' for Inactive)
REMARK    1  A    between atoms: C_2  and  C_7 
REMARK    2  A    between atoms: C_2  and  C_3 
REMARK    3  A    between atoms: C_2  and  N_23 
REMARK    4  A    between atoms: C_3  and  C_4 
REMARK       I    between atoms: C_4  and  N_8 
REMARK    5  A    between atoms: N_6  and  C_9 
REMARK       I    between atoms: N_6  and  C_7 
REMARK    6  A    between atoms: C_9  and  C_10 
REMARK    7  A    between atoms: C_9  and  C_15 
REMARK    8  A    between atoms: C_10  and  C_11 
REMARK    9  A    between atoms: C_11  and  C_13 
ROOT
HETATM    1  N           1     -35.080  -1.057 -12.238  0.00  0.00    -0.345 N 
HETATM    2  C           1     -34.504  -2.299 -12.270  0.00  0.00     0.249 C 
HETATM    3  H           1     -34.886  -0.430 -11.467  0.00  0.00     0.163 HD
HETATM    4  O           1     -34.734  -3.047 -13.190  0.00  0.00    -0.271 OA
ENDROOT
BRANCH   2   5
HETATM    5  C           1     -33.582  -2.733 -11.157  0.00  0.00     0.283 C 
BRANCH   5   6
HETATM    6  C           1     -34.049  -4.074 -10.605  0.00  0.00     0.145 C 
BRANCH   6   7
HETATM    7  C           1     -33.256  -5.186 -11.247  0.00  0.00     0.217 C 
HETATM    8  O           1     -33.476  -6.335 -10.948  0.00  0.00    -0.274 OA
HETATM    9  N           1     -32.286  -4.893 -12.167  0.00  0.00    -0.370 N 
HETATM   10  H           1     -31.755  -5.639 -12.598  0.00  0.00     0.159 HD
HETATM   11  H           1     -32.101  -3.929 -12.418  0.00  0.00     0.159 HD
ENDBRANCH   6   7
ENDBRANCH   5   6
BRANCH   5  12
HETATM   12  N           1     -33.604  -1.708 -10.062  0.00  0.00    -0.066 N 
HETATM   13  H           1     -32.736  -1.792  -9.489  0.00  0.00     0.275 HD
HETATM   14  H           1     -34.440  -1.865  -9.455  0.00  0.00     0.275 HD
HETATM   15  H           1     -33.653  -0.752 -10.482  0.00  0.00     0.275 HD
ENDBRANCH   5  12
ENDBRANCH   2   5
BRANCH   1  16
HETATM   16  C           1     -35.965  -0.640 -13.308  0.00  0.00     0.186 C 
BRANCH  16  17
HETATM   17  C           1     -37.144   0.125 -12.720  0.00  0.00     0.046 C 
BRANCH  17  18
HETATM   18  C           1     -37.598  -0.551 -11.432  0.00  0.00     0.116 C 
BRANCH  18  19
HETATM   19  C           1     -37.222   0.310 -10.252  0.00  0.00     0.172 C 
HETATM   20  O           1     -36.191   0.051  -9.593  0.00  0.00    -0.648 OA
HETATM   21  O           1     -37.940   1.282  -9.933  0.00  0.00    -0.648 OA
ENDBRANCH  18  19
ENDBRANCH  17  18
ENDBRANCH  16  17
BRANCH  16  22
HETATM   22  C           1     -35.212   0.251 -14.263  0.00  0.00     0.196 C 
HETATM   23  O           1     -34.874   1.402 -13.912  0.00  0.00    -0.646 OA
HETATM   24  O           1     -34.927  -0.161 -15.409  0.00  0.00    -0.646 OA
ENDBRANCH  16  22
ENDBRANCH   1  16
TORSDOF 9
ENDMDL
MODEL 4
REMARK VINA RESULT:      -6.2     12.211     14.341
REMARK  9 active torsions:
REMARK  status: ('A' for Active; 'I' for Inactive)
REMARK    1  A    between atoms: C_2  and  C_7 
REMARK    2  A    between atoms: C_2  and  C_3 
REMARK    3  A    between atoms: C_2  and  N_23 
REMARK    4  A    between atoms: C_3  and  C_4 
REMARK       I    between atoms: C_4  and  N_8 
REMARK    5  A    between atoms: N_6  and  C_9 
REMARK       I    between atoms: N_6  and  C_7 
REMARK    6  A    between atoms: C_9  and  C_10 
REMARK    7  A    between atoms: C_9  and  C_15 
REMARK    8  A    between atoms: C_10  and  C_11 
REMARK    9  A    between atoms: C_11  and  C_13 
ROOT
HETATM    1  N           1     -21.877  -4.055  -9.254  0.00  0.00    -0.345 N 
HETATM    2  C           1     -20.986  -4.516  -8.323  0.00  0.00     0.249 C 
HETATM    3  H           1     -22.665  -3.489  -8.963  0.00  0.00     0.163 HD
HETATM    4  O           1     -20.046  -5.190  -8.669  0.00  0.00    -0.271 OA
ENDROOT
BRANCH   2   5
HETATM    5  C           1     -21.178  -4.181  -6.863  0.00  0.00     0.283 C 
BRANCH   5   6
HETATM    6  C           1     -20.023  -4.757  -6.055  0.00  0.00     0.145 C 
BRANCH   6   7
HETATM    7  C           1     -20.422  -6.099  -5.492  0.00  0.00     0.217 C 
HETATM    8  O           1     -21.011  -6.162  -4.439  0.00  0.00    -0.274 OA
HETATM    9  N           1     -20.116  -7.246  -6.174  0.00  0.00    -0.370 N 
HETATM   10  H           1     -20.383  -8.146  -5.796  0.00  0.00     0.159 HD
HETATM   11  H           1     -19.621  -7.194  -7.056  0.00  0.00     0.159 HD
ENDBRANCH   6   7
ENDBRANCH   5   6
BRANCH   5  12
HETATM   12  N           1     -22.470  -4.772  -6.381  0.00  0.00    -0.066 N 
HETATM   13  H           1     -22.525  -5.773  -6.674  0.00  0.00     0.275 HD
HETATM   14  H           1     -23.270  -4.243  -6.796  0.00  0.00     0.275 HD
HETATM   15  H           1     -22.513  -4.711  -5.339  0.00  0.00     0.275 HD
ENDBRANCH   5  12
ENDBRANCH   2   5
BRANCH   1  16
HETATM   16  C           1     -21.693  -4.376 -10.656  0.00  0.00     0.186 C 
BRANCH  16  17
HETATM   17  C           1     -23.008  -4.878 -11.238  0.00  0.00     0.046 C 
BRANCH  17  18
HETATM   18  C           1     -24.109  -4.749 -10.192  0.00  0.00     0.116 C 
BRANCH  18  19
HETATM   19  C           1     -24.870  -3.467 -10.418  0.00  0.00     0.172 C 
HETATM   20  O           1     -25.131  -3.092 -11.582  0.00  0.00    -0.648 OA
HETATM   21  O           1     -25.240  -2.779  -9.442  0.00  0.00    -0.648 OA
ENDBRANCH  18  19
ENDBRANCH  17  18
ENDBRANCH  16  17
BRANCH  16  22
HETATM   22  C           1     -21.253  -3.140 -11.400  0.00  0.00     0.196 C 
HETATM   23  O           1     -22.032  -2.582 -12.203  0.00  0.00    -0.646 OA
HETATM   24  O           1     -20.107  -2.675 -11.215  0.00  0.00    -0.646 OA
ENDBRANCH  16  22
ENDBRANCH   1  16
TORSDOF 9
ENDMDL
MODEL 5
REMARK VINA RESULT:      -6.2      2.016      6.363
REMARK  9 active torsions:
REMARK  status: ('A' for Active; 'I' for Inactive)
REMARK    1  A    between atoms: C_2  and  C_7 
REMARK    2  A    between atoms: C_2  and  C_3 
REMARK    3  A    between atoms: C_2  and  N_23 
REMARK    4  A    between atoms: C_3  and  C_4 
REMARK       I    between atoms: C_4  and  N_8 
REMARK    5  A    between atoms: N_6  and  C_9 
REMARK       I    between atoms: N_6  and  C_7 
REMARK    6  A    between atoms: C_9  and  C_10 
REMARK    7  A    between atoms: C_9  and  C_15 
REMARK    8  A    between atoms: C_10  and  C_11 
REMARK    9  A    between atoms: C_11  and  C_13 
ROOT
HETATM    1  N           1     -35.166  -1.815 -12.532  0.00  0.00    -0.345 N 
HETATM    2  C           1     -35.662  -0.550 -12.366  0.00  0.00     0.249 C 
HETATM    3  H           1     -34.937  -2.150 -13.460  0.00  0.00     0.163 HD
HETATM    4  O           1     -35.935  -0.149 -11.260  0.00  0.00    -0.271 OA
ENDROOT
BRANCH   2   5
HETATM    5  C           1     -35.869   0.344 -13.565  0.00  0.00     0.283 C 
BRANCH   5   6
HETATM    6  C           1     -37.178  -0.023 -14.251  0.00  0.00     0.145 C 
BRANCH   6   7
HETATM    7  C           1     -37.057   0.229 -15.734  0.00  0.00     0.217 C 
HETATM    8  O           1     -36.748   1.325 -16.138  0.00  0.00    -0.274 OA
HETATM    9  N           1     -37.299  -0.783 -16.623  0.00  0.00    -0.370 N 
HETATM   10  H           1     -37.219  -0.615 -17.617  0.00  0.00     0.159 HD
HETATM   11  H           1     -37.560  -1.702 -16.285  0.00  0.00     0.159 HD
ENDBRANCH   6   7
ENDBRANCH   5   6
BRANCH   5  12
HETATM   12  N           1     -34.732   0.160 -14.526  0.00  0.00    -0.066 N 
HETATM   13  H           1     -35.101  -0.188 -15.439  0.00  0.00     0.275 HD
HETATM   14  H           1     -34.055  -0.534 -14.135  0.00  0.00     0.275 HD
HETATM   15  H           1     -34.248   1.075 -14.672  0.00  0.00     0.275 HD
ENDBRANCH   5  12
ENDBRANCH   2   5
BRANCH   1  16
HETATM   16  C           1     -34.966  -2.673 -11.381  0.00  0.00     0.186 C 
BRANCH  16  17
HETATM   17  C           1     -35.057  -4.131 -11.814  0.00  0.00     0.046 C 
BRANCH  17  18
HETATM   18  C           1     -35.314  -5.007 -10.594  0.00  0.00     0.116 C 
BRANCH  18  19
HETATM   19  C           1     -34.401  -6.207 -10.635  0.00  0.00     0.172 C 
HETATM   20  O           1     -33.241  -6.094 -11.088  0.00  0.00    -0.648 OA
HETATM   21  O           1     -34.803  -7.314 -10.217  0.00  0.00    -0.648 OA
ENDBRANCH  18  19
ENDBRANCH  17  18
ENDBRANCH  16  17
BRANCH  16  22
HETATM   22  C           1     -33.606  -2.408 -10.787  0.00  0.00     0.196 C 
HETATM   23  O           1     -32.591  -2.945 -11.281  0.00  0.00    -0.646 OA
HETATM   24  O           1     -33.493  -1.651  -9.798  0.00  0.00    -0.646 OA
ENDBRANCH  16  22
ENDBRANCH   1  16
TORSDOF 9
ENDMDL
MODEL 6
REMARK VINA RESULT:      -6.1     12.229     15.311
REMARK  9 active torsions:
REMARK  status: ('A' for Active; 'I' for Inactive)
REMARK    1  A    between atoms: C_2  and  C_7 
REMARK    2  A    between atoms: C_2  and  C_3 
REMARK    3  A    between atoms: C_2  and  N_23 
REMARK    4  A    between atoms: C_3  and  C_4 
REMARK       I    between atoms: C_4  and  N_8 
REMARK    5  A    between atoms: N_6  and  C_9 
REMARK       I    between atoms: N_6  and  C_7 
REMARK    6  A    between atoms: C_9  and  C_10 
REMARK    7  A    between atoms: C_9  and  C_15 
REMARK    8  A    between atoms: C_10  and  C_11 
REMARK    9  A    between atoms: C_11  and  C_13 
ROOT
HETATM    1  N           1     -22.249  -5.218  -8.675  0.00  0.00    -0.345 N 
HETATM    2  C           1     -23.147  -4.266  -9.077  0.00  0.00     0.249 C 
HETATM    3  H           1     -22.324  -6.164  -9.027  0.00  0.00     0.163 HD
HETATM    4  O           1     -23.058  -3.137  -8.659  0.00  0.00    -0.271 OA
ENDROOT
BRANCH   2   5
HETATM    5  C           1     -24.248  -4.627 -10.044  0.00  0.00     0.283 C 
BRANCH   5   6
HETATM    6  C           1     -23.697  -4.627 -11.464  0.00  0.00     0.145 C 
BRANCH   6   7
HETATM    7  C           1     -24.035  -3.320 -12.136  0.00  0.00     0.217 C 
HETATM    8  O           1     -25.099  -3.183 -12.691  0.00  0.00    -0.274 OA
HETATM    9  N           1     -23.136  -2.287 -12.119  0.00  0.00    -0.370 N 
HETATM   10  H           1     -23.363  -1.410 -12.569  0.00  0.00     0.159 HD
HETATM   11  H           1     -22.243  -2.402 -11.654  0.00  0.00     0.159 HD
ENDBRANCH   6   7
ENDBRANCH   5   6
BRANCH   5  12
HETATM   12  N           1     -25.355  -3.620  -9.938  0.00  0.00    -0.066 N 
HETATM   13  H           1     -25.062  -2.730 -10.399  0.00  0.00     0.275 HD
HETATM   14  H           1     -25.565  -3.439  -8.930  0.00  0.00     0.275 HD
HETATM   15  H           1     -26.210  -3.992 -10.411  0.00  0.00     0.275 HD
ENDBRANCH   5  12
ENDBRANCH   2   5
BRANCH   1  16
HETATM   16  C           1     -21.191  -4.871  -7.747  0.00  0.00     0.186 C 
BRANCH  16  17
HETATM   17  C           1     -20.980  -6.018  -6.767  0.00  0.00     0.046 C 
BRANCH  17  18
HETATM   18  C           1     -20.883  -5.464  -5.351  0.00  0.00     0.116 C 
BRANCH  18  19
HETATM   19  C           1     -21.439  -6.472  -4.376  0.00  0.00     0.172 C 
HETATM   20  O           1     -22.296  -6.121  -3.536  0.00  0.00    -0.648 OA
HETATM   21  O           1     -21.045  -7.658  -4.409  0.00  0.00    -0.648 OA
ENDBRANCH  18  19
ENDBRANCH  17  18
ENDBRANCH  16  17
BRANCH  16  22
HETATM   22  C           1     -19.915  -4.621  -8.511  0.00  0.00     0.196 C 
HETATM   23  O           1     -19.863  -4.857  -9.738  0.00  0.00    -0.646 OA
HETATM   24  O           1     -18.907  -4.179  -7.917  0.00  0.00    -0.646 OA
ENDBRANCH  16  22
ENDBRANCH   1  16
TORSDOF 9
ENDMDL
MODEL 7
REMARK VINA RESULT:      -6.0     12.268     15.136
REMARK  9 active torsions:
REMARK  status: ('A' for Active; 'I' for Inactive)
REMARK    1  A    between atoms: C_2  and  C_7 
REMARK    2  A    between atoms: C_2  and  C_3 
REMARK    3  A    between atoms: C_2  and  N_23 
REMARK    4  A    between atoms: C_3  and  C_4 
REMARK       I    between atoms: C_4  and  N_8 
REMARK    5  A    between atoms: N_6  and  C_9 
REMARK       I    between atoms: N_6  and  C_7 
REMARK    6  A    between atoms: C_9  and  C_10 
REMARK    7  A    between atoms: C_9  and  C_15 
REMARK    8  A    between atoms: C_10  and  C_11 
REMARK    9  A    between atoms: C_11  and  C_13 
ROOT
HETATM    1  N           1     -21.498  -4.005  -9.754  0.00  0.00    -0.345 N 
HETATM    2  C           1     -22.593  -3.917 -10.572  0.00  0.00     0.249 C 
HETATM    3  H           1     -20.657  -3.488  -9.977  0.00  0.00     0.163 HD
HETATM    4  O           1     -23.597  -4.533 -10.306  0.00  0.00    -0.271 OA
ENDROOT
BRANCH   2   5
HETATM    5  C           1     -22.546  -3.048 -11.805  0.00  0.00     0.283 C 
BRANCH   5   6
HETATM    6  C           1     -23.942  -2.942 -12.404  0.00  0.00     0.145 C 
BRANCH   6   7
HETATM    7  C           1     -23.841  -2.496 -13.842  0.00  0.00     0.217 C 
HETATM    8  O           1     -23.651  -3.309 -14.715  0.00  0.00    -0.274 OA
HETATM    9  N           1     -23.963  -1.170 -14.158  0.00  0.00    -0.370 N 
HETATM   10  H           1     -23.895  -0.870 -15.122  0.00  0.00     0.159 HD
HETATM   11  H           1     -24.121  -0.487 -13.426  0.00  0.00     0.159 HD
ENDBRANCH   6   7
ENDBRANCH   5   6
BRANCH   5  12
HETATM   12  N           1     -21.615  -3.658 -12.810  0.00  0.00    -0.066 N 
HETATM   13  H           1     -22.005  -4.570 -13.137  0.00  0.00     0.275 HD
HETATM   14  H           1     -20.681  -3.816 -12.368  0.00  0.00     0.275 HD
HETATM   15  H           1     -21.511  -3.012 -13.625  0.00  0.00     0.275 HD
ENDBRANCH   5  12
ENDBRANCH   2   5
BRANCH   1  16
HETATM   16  C           1     -21.543  -4.839  -8.569  0.00  0.00     0.186 C 
BRANCH  16  17
HETATM   17  C           1     -20.130  -5.274  -8.202  0.00  0.00     0.046 C 
BRANCH  17  18
HETATM   18  C           1     -19.908  -5.070  -6.708  0.00  0.00     0.116 C 
BRANCH  18  19
HETATM   19  C           1     -20.170  -6.364  -5.979  0.00  0.00     0.172 C 
HETATM   20  O           1     -20.884  -6.369  -4.952  0.00  0.00    -0.648 OA
HETATM   21  O           1     -19.673  -7.431  -6.400  0.00  0.00    -0.648 OA
ENDBRANCH  18  19
ENDBRANCH  17  18
ENDBRANCH  16  17
BRANCH  16  22
HETATM   22  C           1     -22.143  -4.058  -7.428  0.00  0.00     0.196 C 
HETATM   23  O           1     -23.125  -4.515  -6.803  0.00  0.00    -0.646 OA
HETATM   24  O           1     -21.659  -2.950  -7.106  0.00  0.00    -0.646 OA
ENDBRANCH  16  22
ENDBRANCH   1  16
TORSDOF 9
ENDMDL
MODEL 8
REMARK VINA RESULT:      -5.9      3.449      6.005
REMARK  9 active torsions:
REMARK  status: ('A' for Active; 'I' for Inactive)
REMARK    1  A    between atoms: C_2  and  C_7 
REMARK    2  A    between atoms: C_2  and  C_3 
REMARK    3  A    between atoms: C_2  and  N_23 
REMARK    4  A    between atoms: C_3  and  C_4 
REMARK       I    between atoms: C_4  and  N_8 
REMARK    5  A    between atoms: N_6  and  C_9 
REMARK       I    between atoms: N_6  and  C_7 
REMARK    6  A    between atoms: C_9  and  C_10 
REMARK    7  A    between atoms: C_9  and  C_15 
REMARK    8  A    between atoms: C_10  and  C_11 
REMARK    9  A    between atoms: C_11  and  C_13 
ROOT
HETATM    1  N           1     -33.360  -3.994 -14.179  0.00  0.00    -0.345 N 
HETATM    2  C           1     -33.902  -4.473 -15.342  0.00  0.00     0.249 C 
HETATM    3  H           1     -32.422  -3.613 -14.178  0.00  0.00     0.163 HD
HETATM    4  O           1     -35.020  -4.927 -15.344  0.00  0.00    -0.271 OA
ENDROOT
BRANCH   2   5
HETATM    5  C           1     -33.101  -4.434 -16.621  0.00  0.00     0.283 C 
BRANCH   5   6
HETATM    6  C           1     -31.620  -4.579 -16.296  0.00  0.00     0.145 C 
BRANCH   6   7
HETATM    7  C           1     -31.054  -5.761 -17.042  0.00  0.00     0.217 C 
HETATM    8  O           1     -29.913  -5.737 -17.439  0.00  0.00    -0.274 OA
HETATM    9  N           1     -31.833  -6.863 -17.271  0.00  0.00    -0.370 N 
HETATM   10  H           1     -31.454  -7.657 -17.772  0.00  0.00     0.159 HD
HETATM   11  H           1     -32.790  -6.885 -16.940  0.00  0.00     0.159 HD
ENDBRANCH   6   7
ENDBRANCH   5   6
BRANCH   5  12
HETATM   12  N           1     -33.334  -3.125 -17.316  0.00  0.00    -0.066 N 
HETATM   13  H           1     -33.155  -3.238 -18.338  0.00  0.00     0.275 HD
HETATM   14  H           1     -32.687  -2.403 -16.925  0.00  0.00     0.275 HD
HETATM   15  H           1     -34.324  -2.824 -17.167  0.00  0.00     0.275 HD
ENDBRANCH   5  12
ENDBRANCH   2   5
BRANCH   1  16
HETATM   16  C           1     -34.129  -4.031 -12.951  0.00  0.00     0.186 C 
BRANCH  16  17
HETATM   17  C           1     -33.268  -4.600 -11.830  0.00  0.00     0.046 C 
BRANCH  17  18
HETATM   18  C           1     -34.143  -4.902 -10.621  0.00  0.00     0.116 C 
BRANCH  18  19
HETATM   19  C           1     -34.619  -6.331 -10.688  0.00  0.00     0.172 C 
HETATM   20  O           1     -35.009  -6.809 -11.776  0.00  0.00    -0.648 OA
HETATM   21  O           1     -34.625  -7.039  -9.658  0.00  0.00    -0.648 OA
ENDBRANCH  18  19
ENDBRANCH  17  18
ENDBRANCH  16  17
BRANCH  16  22
HETATM   22  C           1     -34.567  -2.634 -12.591  0.00  0.00     0.196 C 
HETATM   23  O           1     -33.937  -1.984 -11.728  0.00  0.00    -0.646 OA
HETATM   24  O           1     -35.560  -2.125 -13.154  0.00  0.00    -0.646 OA
ENDBRANCH  16  22
ENDBRANCH   1  16
TORSDOF 9
ENDMDL
MODEL 9
REMARK VINA RESULT:      -5.8     14.375     17.343
REMARK  9 active torsions:
REMARK  status: ('A' for Active; 'I' for Inactive)
REMARK    1  A    between atoms: C_2  and  C_7 
REMARK    2  A    between atoms: C_2  and  C_3 
REMARK    3  A    between atoms: C_2  and  N_23 
REMARK    4  A    between atoms: C_3  and  C_4 
REMARK       I    between atoms: C_4  and  N_8 
REMARK    5  A    between atoms: N_6  and  C_9 
REMARK       I    between atoms: N_6  and  C_7 
REMARK    6  A    between atoms: C_9  and  C_10 
REMARK    7  A    between atoms: C_9  and  C_15 
REMARK    8  A    between atoms: C_10  and  C_11 
REMARK    9  A    between atoms: C_11  and  C_13 
ROOT
HETATM    1  N           1     -21.429  -6.364  -6.399  0.00  0.00    -0.345 N 
HETATM    2  C           1     -21.060  -5.177  -6.973  0.00  0.00     0.249 C 
HETATM    3  H           1     -22.080  -6.975  -6.875  0.00  0.00     0.163 HD
HETATM    4  O           1     -20.282  -4.448  -6.406  0.00  0.00    -0.271 OA
ENDROOT
BRANCH   2   5
HETATM    5  C           1     -21.625  -4.780  -8.315  0.00  0.00     0.283 C 
BRANCH   5   6
HETATM    6  C           1     -20.489  -4.375  -9.244  0.00  0.00     0.145 C 
BRANCH   6   7
HETATM    7  C           1     -21.034  -4.126 -10.629  0.00  0.00     0.217 C 
HETATM    8  O           1     -22.115  -4.567 -10.941  0.00  0.00    -0.274 OA
HETATM    9  N           1     -20.305  -3.402 -11.532  0.00  0.00    -0.370 N 
HETATM   10  H           1     -20.670  -3.235 -12.461  0.00  0.00     0.159 HD
HETATM   11  H           1     -19.398  -3.033 -11.271  0.00  0.00     0.159 HD
ENDBRANCH   6   7
ENDBRANCH   5   6
BRANCH   5  12
HETATM   12  N           1     -22.564  -3.623  -8.138  0.00  0.00    -0.066 N 
HETATM   13  H           1     -23.533  -3.981  -7.987  0.00  0.00     0.275 HD
HETATM   14  H           1     -22.542  -3.024  -8.995  0.00  0.00     0.275 HD
HETATM   15  H           1     -22.268  -3.058  -7.311  0.00  0.00     0.275 HD
ENDBRANCH   5  12
ENDBRANCH   2   5
BRANCH   1  16
HETATM   16  C           1     -20.886  -6.746  -5.110  0.00  0.00     0.186 C 
BRANCH  16  17
HETATM   17  C           1     -22.003  -6.767  -4.075  0.00  0.00     0.046 C 
BRANCH  17  18
HETATM   18  C           1     -21.516  -6.112  -2.788  0.00  0.00     0.116 C 
BRANCH  18  19
HETATM   19  C           1     -21.805  -7.021  -1.620  0.00  0.00     0.172 C 
HETATM   20  O           1     -21.158  -8.081  -1.478  0.00  0.00    -0.648 OA
HETATM   21  O           1     -22.690  -6.714  -0.792  0.00  0.00    -0.648 OA
ENDBRANCH  18  19
ENDBRANCH  17  18
ENDBRANCH  16  17
BRANCH  16  22
HETATM   22  C           1     -20.268  -8.118  -5.212  0.00  0.00     0.196 C 
HETATM   23  O           1     -19.252  -8.296  -5.919  0.00  0.00    -0.646 OA
HETATM   24  O           1     -20.773  -9.079  -4.592  0.00  0.00    -0.646 OA
ENDBRANCH  16  22
ENDBRANCH   1  16
TORSDOF 9
ENDMDL
