MODEL 1
REMARK VINA RESULT:      -5.3      0.000      0.000
REMARK  8 active torsions:
REMARK  status: ('A' for Active; 'I' for Inactive)
REMARK    1  A    between atoms: N_1  and  C_6 
REMARK    2  A    between atoms: C_5  and  C_6 
REMARK    3  A    between atoms: C_5  and  O_12 
REMARK    4  A    between atoms: C_6  and  C_8 
REMARK    5  A    between atoms: O_7  and  C_14 
REMARK       I    between atoms: C_8  and  N_11 
REMARK    6  A    between atoms: N_11  and  C_17 
REMARK    7  A    between atoms: C_14  and  C_17 
REMARK    8  A    between atoms: C_17  and  C_18 
ROOT
HETATM    1  C           1     -22.787  -4.025 -10.888  0.00  0.00     0.251 C 
HETATM    2  N           1     -21.757  -3.874  -9.998  0.00  0.00    -0.343 N 
HETATM    3  H           1     -21.091  -3.122 -10.118  0.00  0.00     0.163 HD
HETATM    4  O           1     -23.583  -4.922 -10.744  0.00  0.00    -0.271 OA
ENDROOT
BRANCH   1   5
HETATM    5  C           1     -22.928  -3.069 -12.047  0.00  0.00     0.297 C 
BRANCH   5   6
HETATM    6  N           1     -21.899  -3.394 -13.089  0.00  0.00    -0.064 N 
HETATM    7  H           1     -20.977  -3.564 -12.627  0.00  0.00     0.275 HD
HETATM    8  H           1     -22.190  -4.251 -13.611  0.00  0.00     0.275 HD
HETATM    9  H           1     -21.813  -2.592 -13.755  0.00  0.00     0.275 HD
ENDBRANCH   5   6
BRANCH   5  10
HETATM   10  C           1     -24.319  -3.205 -12.649  0.00  0.00     0.206 C 
BRANCH  10  11
HETATM   11  O           1     -24.297  -4.165 -13.671  0.00  0.00    -0.398 OA
HETATM   12  H           1     -23.506  -4.023 -14.163  0.00  0.00     0.209 HD
ENDBRANCH  10  11
ENDBRANCH   5  10
ENDBRANCH   1   5
BRANCH   2  13
HETATM   13  C           1     -21.621  -4.792  -8.884  0.00  0.00     0.209 C 
BRANCH  13  14
HETATM   14  C           1     -20.151  -5.141  -8.690  0.00  0.00     0.200 C 
BRANCH  14  15
HETATM   15  O           1     -20.020  -6.034  -7.617  0.00  0.00    -0.398 OA
HETATM   16  H           1     -20.651  -6.719  -7.753  0.00  0.00     0.209 HD
ENDBRANCH  14  15
ENDBRANCH  13  14
BRANCH  13  17
HETATM   17  C           1     -22.153  -4.141  -7.630  0.00  0.00     0.198 C 
HETATM   18  O           1     -21.435  -3.347  -6.985  0.00  0.00    -0.646 OA
HETATM   19  O           1     -23.311  -4.397  -7.237  0.00  0.00    -0.646 OA
ENDBRANCH  13  17
ENDBRANCH   2  13
TORSDOF 8
ENDMDL
MODEL 2
REMARK VINA RESULT:      -5.2      1.955      4.834
REMARK  8 active torsions:
REMARK  status: ('A' for Active; 'I' for Inactive)
REMARK    1  A    between atoms: N_1  and  C_6 
REMARK    2  A    between atoms: C_5  and  C_6 
REMARK    3  A    between atoms: C_5  and  O_12 
REMARK    4  A    between atoms: C_6  and  C_8 
REMARK    5  A    between atoms: O_7  and  C_14 
REMARK       I    between atoms: C_8  and  N_11 
REMARK    6  A    between atoms: N_11  and  C_17 
REMARK    7  A    between atoms: C_14  and  C_17 
REMARK    8  A    between atoms: C_17  and  C_18 
ROOT
HETATM    1  C           1     -21.555  -4.513  -9.059  0.00  0.00     0.251 C 
HETATM    2  N           1     -22.826  -4.358  -9.543  0.00  0.00    -0.343 N 
HETATM    3  H           1     -23.610  -4.758  -9.044  0.00  0.00     0.163 HD
HETATM    4  O           1     -20.619  -4.035  -9.654  0.00  0.00    -0.271 OA
ENDROOT
BRANCH   1   5
HETATM    5  C           1     -21.323  -5.282  -7.781  0.00  0.00     0.297 C 
BRANCH   5   6
HETATM    6  N           1     -20.007  -5.998  -7.861  0.00  0.00    -0.064 N 
HETATM    7  H           1     -20.126  -6.982  -7.531  0.00  0.00     0.275 HD
HETATM    8  H           1     -19.672  -6.000  -8.850  0.00  0.00     0.275 HD
HETATM    9  H           1     -19.309  -5.509  -7.256  0.00  0.00     0.275 HD
ENDBRANCH   5   6
BRANCH   5  10
HETATM   10  C           1     -21.305  -4.316  -6.605  0.00  0.00     0.206 C 
BRANCH  10  11
HETATM   11  O           1     -21.664  -3.035  -7.045  0.00  0.00    -0.398 OA
HETATM   12  H           1     -22.561  -3.084  -7.329  0.00  0.00     0.209 HD
ENDBRANCH  10  11
ENDBRANCH   5  10
ENDBRANCH   1   5
BRANCH   2  13
HETATM   13  C           1     -23.050  -3.619 -10.771  0.00  0.00     0.209 C 
BRANCH  13  14
HETATM   14  C           1     -22.624  -4.470 -11.960  0.00  0.00     0.200 C 
BRANCH  14  15
HETATM   15  O           1     -21.586  -3.826 -12.649  0.00  0.00    -0.398 OA
HETATM   16  H           1     -20.905  -4.464 -12.774  0.00  0.00     0.209 HD
ENDBRANCH  14  15
ENDBRANCH  13  14
BRANCH  13  17
HETATM   17  C           1     -24.516  -3.280 -10.892  0.00  0.00     0.198 C 
HETATM   18  O           1     -25.009  -3.036 -12.015  0.00  0.00    -0.646 OA
HETATM   19  O           1     -25.236  -3.243  -9.872  0.00  0.00    -0.646 OA
ENDBRANCH  13  17
ENDBRANCH   2  13
TORSDOF 8
ENDMDL
MODEL 3
REMARK VINA RESULT:      -5.0      2.022      5.192
REMARK  8 active torsions:
REMARK  status: ('A' for Active; 'I' for Inactive)
REMARK    1  A    between atoms: N_1  and  C_6 
REMARK    2  A    between atoms: C_5  and  C_6 
REMARK    3  A    between atoms: C_5  and  O_12 
REMARK    4  A    between atoms: C_6  and  C_8 
REMARK    5  A    between atoms: O_7  and  C_14 
REMARK       I    between atoms: C_8  and  N_11 
REMARK    6  A    between atoms: N_11  and  C_17 
REMARK    7  A    between atoms: C_14  and  C_17 
REMARK    8  A    between atoms: C_17  and  C_18 
ROOT
HETATM    1  C           1     -21.690  -4.616  -7.868  0.00  0.00     0.251 C 
HETATM    2  N           1     -22.174  -4.823  -9.132  0.00  0.00    -0.343 N 
HETATM    3  H           1     -22.238  -5.763  -9.502  0.00  0.00     0.163 HD
HETATM    4  O           1     -21.615  -3.494  -7.426  0.00  0.00    -0.271 OA
ENDROOT
BRANCH   1   5
HETATM    5  C           1     -21.251  -5.789  -7.027  0.00  0.00     0.297 C 
BRANCH   5   6
HETATM    6  N           1     -19.877  -6.219  -7.449  0.00  0.00    -0.064 N 
HETATM    7  H           1     -19.865  -6.384  -8.481  0.00  0.00     0.275 HD
HETATM    8  H           1     -19.189  -5.471  -7.208  0.00  0.00     0.275 HD
HETATM    9  H           1     -19.621  -7.103  -6.952  0.00  0.00     0.275 HD
ENDBRANCH   5   6
BRANCH   5  10
HETATM   10  C           1     -21.227  -5.381  -5.561  0.00  0.00     0.206 C 
BRANCH  10  11
HETATM   11  O           1     -20.099  -4.585  -5.314  0.00  0.00    -0.398 OA
HETATM   12  H           1     -19.578  -4.597  -6.100  0.00  0.00     0.209 HD
ENDBRANCH  10  11
ENDBRANCH   5  10
ENDBRANCH   1   5
BRANCH   2  13
HETATM   13  C           1     -22.596  -3.696  -9.941  0.00  0.00     0.209 C 
BRANCH  13  14
HETATM   14  C           1     -21.775  -3.654 -11.223  0.00  0.00     0.200 C 
BRANCH  14  15
HETATM   15  O           1     -22.381  -4.463 -12.194  0.00  0.00    -0.398 OA
HETATM   16  H           1     -22.123  -5.349 -12.012  0.00  0.00     0.209 HD
ENDBRANCH  14  15
ENDBRANCH  13  14
BRANCH  13  17
HETATM   17  C           1     -24.058  -3.844 -10.284  0.00  0.00     0.198 C 
HETATM   18  O           1     -24.644  -2.945 -10.925  0.00  0.00    -0.646 OA
HETATM   19  O           1     -24.684  -4.865  -9.927  0.00  0.00    -0.646 OA
ENDBRANCH  13  17
ENDBRANCH   2  13
TORSDOF 8
ENDMDL
MODEL 4
REMARK VINA RESULT:      -5.0      1.983      4.962
REMARK  8 active torsions:
REMARK  status: ('A' for Active; 'I' for Inactive)
REMARK    1  A    between atoms: N_1  and  C_6 
REMARK    2  A    between atoms: C_5  and  C_6 
REMARK    3  A    between atoms: C_5  and  O_12 
REMARK    4  A    between atoms: C_6  and  C_8 
REMARK    5  A    between atoms: O_7  and  C_14 
REMARK       I    between atoms: C_8  and  N_11 
REMARK    6  A    between atoms: N_11  and  C_17 
REMARK    7  A    between atoms: C_14  and  C_17 
REMARK    8  A    between atoms: C_17  and  C_18 
ROOT
HETATM    1  C           1     -20.915  -4.253  -9.134  0.00  0.00     0.251 C 
HETATM    2  N           1     -22.244  -4.080  -9.411  0.00  0.00    -0.343 N 
HETATM    3  H           1     -22.868  -3.724  -8.698  0.00  0.00     0.163 HD
HETATM    4  O           1     -20.170  -4.676  -9.986  0.00  0.00    -0.271 OA
ENDROOT
BRANCH   1   5
HETATM    5  C           1     -20.380  -3.914  -7.764  0.00  0.00     0.297 C 
BRANCH   5   6
HETATM    6  N           1     -21.458  -3.256  -6.956  0.00  0.00    -0.064 N 
HETATM    7  H           1     -21.836  -3.938  -6.260  0.00  0.00     0.275 HD
HETATM    8  H           1     -21.062  -2.430  -6.453  0.00  0.00     0.275 HD
HETATM    9  H           1     -22.227  -2.943  -7.590  0.00  0.00     0.275 HD
ENDBRANCH   5   6
BRANCH   5  10
HETATM   10  C           1     -19.929  -5.189  -7.066  0.00  0.00     0.206 C 
BRANCH  10  11
HETATM   11  O           1     -20.746  -6.256  -7.466  0.00  0.00    -0.398 OA
HETATM   12  H           1     -21.636  -5.998  -7.294  0.00  0.00     0.209 HD
ENDBRANCH  10  11
ENDBRANCH   5  10
ENDBRANCH   1   5
BRANCH   2  13
HETATM   13  C           1     -22.760  -4.405 -10.727  0.00  0.00     0.209 C 
BRANCH  13  14
HETATM   14  C           1     -24.027  -5.237 -10.585  0.00  0.00     0.200 C 
BRANCH  14  15
HETATM   15  O           1     -24.895  -4.618  -9.675  0.00  0.00    -0.398 OA
HETATM   16  H           1     -24.965  -5.191  -8.931  0.00  0.00     0.209 HD
ENDBRANCH  14  15
ENDBRANCH  13  14
BRANCH  13  17
HETATM   17  C           1     -23.074  -3.130 -11.472  0.00  0.00     0.198 C 
HETATM   18  O           1     -24.264  -2.783 -11.639  0.00  0.00    -0.646 OA
HETATM   19  O           1     -22.148  -2.424 -11.921  0.00  0.00    -0.646 OA
ENDBRANCH  13  17
ENDBRANCH   2  13
TORSDOF 8
ENDMDL
MODEL 5
REMARK VINA RESULT:      -4.9      1.756      2.594
REMARK  8 active torsions:
REMARK  status: ('A' for Active; 'I' for Inactive)
REMARK    1  A    between atoms: N_1  and  C_6 
REMARK    2  A    between atoms: C_5  and  C_6 
REMARK    3  A    between atoms: C_5  and  O_12 
REMARK    4  A    between atoms: C_6  and  C_8 
REMARK    5  A    between atoms: O_7  and  C_14 
REMARK       I    between atoms: C_8  and  N_11 
REMARK    6  A    between atoms: N_11  and  C_17 
REMARK    7  A    between atoms: C_14  and  C_17 
REMARK    8  A    between atoms: C_17  and  C_18 
ROOT
HETATM    1  C           1     -22.576  -3.324 -11.410  0.00  0.00     0.251 C 
HETATM    2  N           1     -22.642  -4.031 -10.238  0.00  0.00    -0.343 N 
HETATM    3  H           1     -23.351  -4.743 -10.116  0.00  0.00     0.163 HD
HETATM    4  O           1     -21.729  -2.475 -11.556  0.00  0.00    -0.271 OA
ENDROOT
BRANCH   1   5
HETATM    5  C           1     -23.561  -3.607 -12.518  0.00  0.00     0.297 C 
BRANCH   5   6
HETATM    6  N           1     -24.944  -3.253 -12.059  0.00  0.00    -0.064 N 
HETATM    7  H           1     -24.941  -2.288 -11.657  0.00  0.00     0.275 HD
HETATM    8  H           1     -25.600  -3.290 -12.871  0.00  0.00     0.275 HD
HETATM    9  H           1     -25.253  -3.934 -11.328  0.00  0.00     0.275 HD
ENDBRANCH   5   6
BRANCH   5  10
HETATM   10  C           1     -23.202  -2.772 -13.740  0.00  0.00     0.206 C 
BRANCH  10  11
HETATM   11  O           1     -23.541  -3.476 -14.904  0.00  0.00    -0.398 OA
HETATM   12  H           1     -23.771  -4.351 -14.638  0.00  0.00     0.209 HD
ENDBRANCH  10  11
ENDBRANCH   5  10
ENDBRANCH   1   5
BRANCH   2  13
HETATM   13  C           1     -21.697  -3.759  -9.173  0.00  0.00     0.209 C 
BRANCH  13  14
HETATM   14  C           1     -22.398  -3.882  -7.828  0.00  0.00     0.200 C 
BRANCH  14  15
HETATM   15  O           1     -23.772  -4.071  -8.031  0.00  0.00    -0.398 OA
HETATM   16  H           1     -24.176  -4.077  -7.181  0.00  0.00     0.209 HD
ENDBRANCH  14  15
ENDBRANCH  13  14
BRANCH  13  17
HETATM   17  C           1     -20.563  -4.753  -9.243  0.00  0.00     0.198 C 
HETATM   18  O           1     -19.923  -4.897 -10.308  0.00  0.00    -0.646 OA
HETATM   19  O           1     -20.265  -5.433  -8.239  0.00  0.00    -0.646 OA
ENDBRANCH  13  17
ENDBRANCH   2  13
TORSDOF 8
ENDMDL
MODEL 6
REMARK VINA RESULT:      -4.8      1.765      2.157
REMARK  8 active torsions:
REMARK  status: ('A' for Active; 'I' for Inactive)
REMARK    1  A    between atoms: N_1  and  C_6 
REMARK    2  A    between atoms: C_5  and  C_6 
REMARK    3  A    between atoms: C_5  and  O_12 
REMARK    4  A    between atoms: C_6  and  C_8 
REMARK    5  A    between atoms: O_7  and  C_14 
REMARK       I    between atoms: C_8  and  N_11 
REMARK    6  A    between atoms: N_11  and  C_17 
REMARK    7  A    between atoms: C_14  and  C_17 
REMARK    8  A    between atoms: C_17  and  C_18 
ROOT
HETATM    1  C           1     -22.488  -4.008 -10.338  0.00  0.00     0.251 C 
HETATM    2  N           1     -22.138  -4.051  -9.015  0.00  0.00    -0.343 N 
HETATM    3  H           1     -22.662  -3.514  -8.335  0.00  0.00     0.163 HD
HETATM    4  O           1     -21.864  -4.650 -11.149  0.00  0.00    -0.271 OA
ENDROOT
BRANCH   1   5
HETATM    5  C           1     -23.654  -3.160 -10.783  0.00  0.00     0.297 C 
BRANCH   5   6
HETATM    6  N           1     -24.092  -3.590 -12.151  0.00  0.00    -0.064 N 
HETATM    7  H           1     -25.058  -3.237 -12.335  0.00  0.00     0.275 HD
HETATM    8  H           1     -23.437  -3.198 -12.865  0.00  0.00     0.275 HD
HETATM    9  H           1     -24.085  -4.634 -12.207  0.00  0.00     0.275 HD
ENDBRANCH   5   6
BRANCH   5  10
HETATM   10  C           1     -24.808  -3.331  -9.804  0.00  0.00     0.206 C 
BRANCH  10  11
HETATM   11  O           1     -25.062  -4.697  -9.613  0.00  0.00    -0.398 OA
HETATM   12  H           1     -25.966  -4.842  -9.835  0.00  0.00     0.209 HD
ENDBRANCH  10  11
ENDBRANCH   5  10
ENDBRANCH   1   5
BRANCH   2  13
HETATM   13  C           1     -21.018  -4.866  -8.587  0.00  0.00     0.209 C 
BRANCH  13  14
HETATM   14  C           1     -19.799  -3.980  -8.369  0.00  0.00     0.200 C 
BRANCH  14  15
HETATM   15  O           1     -19.067  -4.451  -7.270  0.00  0.00    -0.398 OA
HETATM   16  H           1     -19.526  -5.204  -6.939  0.00  0.00     0.209 HD
ENDBRANCH  14  15
ENDBRANCH  13  14
BRANCH  13  17
HETATM   17  C           1     -21.370  -5.565  -7.296  0.00  0.00     0.198 C 
HETATM   18  O           1     -20.911  -6.703  -7.058  0.00  0.00    -0.646 OA
HETATM   19  O           1     -22.120  -5.007  -6.468  0.00  0.00    -0.646 OA
ENDBRANCH  13  17
ENDBRANCH   2  13
TORSDOF 8
ENDMDL
MODEL 7
REMARK VINA RESULT:      -4.8      2.031      2.682
REMARK  8 active torsions:
REMARK  status: ('A' for Active; 'I' for Inactive)
REMARK    1  A    between atoms: N_1  and  C_6 
REMARK    2  A    between atoms: C_5  and  C_6 
REMARK    3  A    between atoms: C_5  and  O_12 
REMARK    4  A    between atoms: C_6  and  C_8 
REMARK    5  A    between atoms: O_7  and  C_14 
REMARK       I    between atoms: C_8  and  N_11 
REMARK    6  A    between atoms: N_11  and  C_17 
REMARK    7  A    between atoms: C_14  and  C_17 
REMARK    8  A    between atoms: C_17  and  C_18 
ROOT
HETATM    1  C           1     -22.426  -4.108  -9.974  0.00  0.00     0.251 C 
HETATM    2  N           1     -21.567  -4.593  -9.025  0.00  0.00    -0.343 N 
HETATM    3  H           1     -20.855  -5.265  -9.282  0.00  0.00     0.163 HD
HETATM    4  O           1     -23.275  -3.305  -9.667  0.00  0.00    -0.271 OA
ENDROOT
BRANCH   1   5
HETATM    5  C           1     -22.311  -4.576 -11.405  0.00  0.00     0.297 C 
BRANCH   5   6
HETATM    6  N           1     -23.665  -4.978 -11.908  0.00  0.00    -0.064 N 
HETATM    7  H           1     -23.959  -4.329 -12.673  0.00  0.00     0.275 HD
HETATM    8  H           1     -23.623  -5.955 -12.278  0.00  0.00     0.275 HD
HETATM    9  H           1     -24.356  -4.930 -11.125  0.00  0.00     0.275 HD
ENDBRANCH   5   6
BRANCH   5  10
HETATM   10  C           1     -21.765  -3.445 -12.266  0.00  0.00     0.206 C 
BRANCH  10  11
HETATM   11  O           1     -20.765  -2.760 -11.561  0.00  0.00    -0.398 OA
HETATM   12  H           1     -20.301  -2.231 -12.188  0.00  0.00     0.209 HD
ENDBRANCH  10  11
ENDBRANCH   5  10
ENDBRANCH   1   5
BRANCH   2  13
HETATM   13  C           1     -21.676  -4.144  -7.650  0.00  0.00     0.209 C 
BRANCH  13  14
HETATM   14  C           1     -22.702  -4.998  -6.917  0.00  0.00     0.200 C 
BRANCH  14  15
HETATM   15  O           1     -23.931  -4.324  -6.879  0.00  0.00    -0.398 OA
HETATM   16  H           1     -24.602  -4.972  -7.005  0.00  0.00     0.209 HD
ENDBRANCH  14  15
ENDBRANCH  13  14
BRANCH  13  17
HETATM   17  C           1     -20.334  -4.275  -6.972  0.00  0.00     0.198 C 
HETATM   18  O           1     -19.285  -4.220  -7.648  0.00  0.00    -0.646 OA
HETATM   19  O           1     -20.273  -4.438  -5.735  0.00  0.00    -0.646 OA
ENDBRANCH  13  17
ENDBRANCH   2  13
TORSDOF 8
ENDMDL
MODEL 8
REMARK VINA RESULT:      -4.4      2.110      2.742
REMARK  8 active torsions:
REMARK  status: ('A' for Active; 'I' for Inactive)
REMARK    1  A    between atoms: N_1  and  C_6 
REMARK    2  A    between atoms: C_5  and  C_6 
REMARK    3  A    between atoms: C_5  and  O_12 
REMARK    4  A    between atoms: C_6  and  C_8 
REMARK    5  A    between atoms: O_7  and  C_14 
REMARK       I    between atoms: C_8  and  N_11 
REMARK    6  A    between atoms: N_11  and  C_17 
REMARK    7  A    between atoms: C_14  and  C_17 
REMARK    8  A    between atoms: C_17  and  C_18 
ROOT
HETATM    1  C           1     -22.917  -4.079  -9.489  0.00  0.00     0.251 C 
HETATM    2  N           1     -22.562  -4.805  -8.383  0.00  0.00    -0.343 N 
HETATM    3  H           1     -23.149  -5.566  -8.068  0.00  0.00     0.163 HD
HETATM    4  O           1     -22.215  -3.171  -9.866  0.00  0.00    -0.271 OA
ENDROOT
BRANCH   1   5
HETATM    5  C           1     -24.184  -4.414 -10.236  0.00  0.00     0.297 C 
BRANCH   5   6
HETATM    6  N           1     -25.325  -3.627  -9.664  0.00  0.00    -0.064 N 
HETATM    7  H           1     -25.014  -3.152  -8.786  0.00  0.00     0.275 HD
HETATM    8  H           1     -25.635  -2.909 -10.357  0.00  0.00     0.275 HD
HETATM    9  H           1     -26.119  -4.272  -9.449  0.00  0.00     0.275 HD
ENDBRANCH   5   6
BRANCH   5  10
HETATM   10  C           1     -24.013  -4.062 -11.708  0.00  0.00     0.206 C 
BRANCH  10  11
HETATM   11  O           1     -22.904  -4.746 -12.227  0.00  0.00    -0.398 OA
HETATM   12  H           1     -22.152  -4.196 -12.085  0.00  0.00     0.209 HD
ENDBRANCH  10  11
ENDBRANCH   5  10
ENDBRANCH   1   5
BRANCH   2  13
HETATM   13  C           1     -21.344  -4.483  -7.664  0.00  0.00     0.209 C 
BRANCH  13  14
HETATM   14  C           1     -21.544  -4.756  -6.179  0.00  0.00     0.200 C 
BRANCH  14  15
HETATM   15  O           1     -20.351  -4.496  -5.491  0.00  0.00    -0.398 OA
HETATM   16  H           1     -20.284  -3.561  -5.403  0.00  0.00     0.209 HD
ENDBRANCH  14  15
ENDBRANCH  13  14
BRANCH  13  17
HETATM   17  C           1     -20.213  -5.335  -8.186  0.00  0.00     0.198 C 
HETATM   18  O           1     -19.648  -5.034  -9.259  0.00  0.00    -0.646 OA
HETATM   19  O           1     -19.842  -6.342  -7.545  0.00  0.00    -0.646 OA
ENDBRANCH  13  17
ENDBRANCH   2  13
TORSDOF 8
ENDMDL
MODEL 9
REMARK VINA RESULT:      -4.4      4.234      6.920
REMARK  8 active torsions:
REMARK  status: ('A' for Active; 'I' for Inactive)
REMARK    1  A    between atoms: N_1  and  C_6 
REMARK    2  A    between atoms: C_5  and  C_6 
REMARK    3  A    between atoms: C_5  and  O_12 
REMARK    4  A    between atoms: C_6  and  C_8 
REMARK    5  A    between atoms: O_7  and  C_14 
REMARK       I    between atoms: C_8  and  N_11 
REMARK    6  A    between atoms: N_11  and  C_17 
REMARK    7  A    between atoms: C_14  and  C_17 
REMARK    8  A    between atoms: C_17  and  C_18 
ROOT
HETATM    1  C           1     -21.475  -7.182  -5.099  0.00  0.00     0.251 C 
HETATM    2  N           1     -21.595  -5.881  -5.508  0.00  0.00    -0.343 N 
HETATM    3  H           1     -21.742  -5.148  -4.826  0.00  0.00     0.163 HD
HETATM    4  O           1     -21.298  -8.058  -5.913  0.00  0.00    -0.271 OA
ENDROOT
BRANCH   1   5
HETATM    5  C           1     -21.562  -7.523  -3.631  0.00  0.00     0.297 C 
BRANCH   5   6
HETATM    6  N           1     -20.470  -8.488  -3.277  0.00  0.00    -0.064 N 
HETATM    7  H           1     -20.185  -9.019  -4.130  0.00  0.00     0.275 HD
HETATM    8  H           1     -19.649  -7.962  -2.903  0.00  0.00     0.275 HD
HETATM    9  H           1     -20.818  -9.155  -2.551  0.00  0.00     0.275 HD
ENDBRANCH   5   6
BRANCH   5  10
HETATM   10  C           1     -21.404  -6.253  -2.806  0.00  0.00     0.206 C 
BRANCH  10  11
HETATM   11  O           1     -22.661  -5.833  -2.347  0.00  0.00    -0.398 OA
HETATM   12  H           1     -22.509  -5.281  -1.599  0.00  0.00     0.209 HD
ENDBRANCH  10  11
ENDBRANCH   5  10
ENDBRANCH   1   5
BRANCH   2  13
HETATM   13  C           1     -21.511  -5.553  -6.918  0.00  0.00     0.209 C 
BRANCH  13  14
HETATM   14  C           1     -22.588  -4.534  -7.267  0.00  0.00     0.200 C 
BRANCH  14  15
HETATM   15  O           1     -22.001  -3.273  -7.439  0.00  0.00    -0.398 OA
HETATM   16  H           1     -21.137  -3.418  -7.784  0.00  0.00     0.209 HD
ENDBRANCH  14  15
ENDBRANCH  13  14
BRANCH  13  17
HETATM   17  C           1     -20.151  -4.972  -7.218  0.00  0.00     0.198 C 
HETATM   18  O           1     -19.428  -4.561  -6.284  0.00  0.00    -0.646 OA
HETATM   19  O           1     -19.748  -4.902  -8.398  0.00  0.00    -0.646 OA
ENDBRANCH  13  17
ENDBRANCH   2  13
TORSDOF 8
ENDMDL
