MODEL 1
REMARK VINA RESULT:      -5.5      0.000      0.000
REMARK  8 active torsions:
REMARK  status: ('A' for Active; 'I' for Inactive)
REMARK    1  A    between atoms: C_2  and  C_4 
REMARK    2  A    between atoms: C_4  and  C_5 
REMARK    3  A    between atoms: C_5  and  C_6 
REMARK    4  A    between atoms: C_5  and  N_9 
REMARK       I    between atoms: N_9  and  C_10 
REMARK    5  A    between atoms: C_10  and  C_11 
REMARK    6  A    between atoms: C_11  and  C_12 
REMARK    7  A    between atoms: C_11  and  N_14 
REMARK    8  A    between atoms: C_12  and  Se_13 
ROOT
HETATM    1  N           1     -22.266  -4.842  -8.830  0.00  0.00    -0.344 N 
HETATM    2  C           1     -21.657  -4.562  -7.635  0.00  0.00     0.249 C 
HETATM    3  O           1     -21.548  -3.417  -7.267  0.00  0.00    -0.271 OA
HETATM    4  H           1     -22.357  -5.801  -9.140  0.00  0.00     0.163 HD
ENDROOT
BRANCH   1   5
HETATM    5  C           1     -22.778  -3.762  -9.653  0.00  0.00     0.195 C 
BRANCH   5   6
HETATM    6  C           1     -22.230  -3.900 -11.067  0.00  0.00     0.149 C 
BRANCH   6   7
HETATM    7  C           1     -20.731  -3.739 -11.044  0.00  0.00     0.175 C 
HETATM    8  O           1     -20.219  -2.623 -11.278  0.00  0.00    -0.648 OA
HETATM    9  O           1     -20.001  -4.722 -10.792  0.00  0.00    -0.648 OA
ENDBRANCH   6   7
ENDBRANCH   5   6
BRANCH   5  10
HETATM   10  C           1     -24.285  -3.829  -9.686  0.00  0.00     0.197 C 
HETATM   11  O           1     -24.960  -2.791  -9.522  0.00  0.00    -0.646 OA
HETATM   12  O           1     -24.857  -4.924  -9.879  0.00  0.00    -0.646 OA
ENDBRANCH   5  10
ENDBRANCH   1   5
BRANCH   2  13
HETATM   13  C           1     -21.124  -5.685  -6.779  0.00  0.00     0.274 C 
BRANCH  13  14
HETATM   14  C           1     -20.725  -5.138  -5.415  0.00  0.00     0.045 C 
BRANCH  14  15
HETATM   15 Se           1     -21.429  -6.301  -4.017  0.00  0.00     0.000 Se
HETATM   16  H           1     -22.454  -6.911  -4.879  0.00  0.00     0.000 HD
ENDBRANCH  14  15
ENDBRANCH  13  14
BRANCH  13  17
HETATM   17  N           1     -19.925  -6.293  -7.444  0.00  0.00    -0.067 N 
HETATM   18  H           1     -19.446  -5.572  -8.029  0.00  0.00     0.275 HD
HETATM   19  H           1     -19.263  -6.644  -6.714  0.00  0.00     0.275 HD
HETATM   20  H           1     -20.228  -7.088  -8.050  0.00  0.00     0.275 HD
ENDBRANCH  13  17
ENDBRANCH   2  13
TORSDOF 8
ENDMDL
MODEL 2
REMARK VINA RESULT:      -5.0      3.140      5.392
REMARK  8 active torsions:
REMARK  status: ('A' for Active; 'I' for Inactive)
REMARK    1  A    between atoms: C_2  and  C_4 
REMARK    2  A    between atoms: C_4  and  C_5 
REMARK    3  A    between atoms: C_5  and  C_6 
REMARK    4  A    between atoms: C_5  and  N_9 
REMARK       I    between atoms: N_9  and  C_10 
REMARK    5  A    between atoms: C_10  and  C_11 
REMARK    6  A    between atoms: C_11  and  C_12 
REMARK    7  A    between atoms: C_11  and  N_14 
REMARK    8  A    between atoms: C_12  and  Se_13 
ROOT
HETATM    1  N           1     -22.088  -4.816  -8.115  0.00  0.00    -0.344 N 
HETATM    2  C           1     -22.856  -4.093  -8.989  0.00  0.00     0.249 C 
HETATM    3  O           1     -22.618  -2.923  -9.177  0.00  0.00    -0.271 OA
HETATM    4  H           1     -22.288  -5.796  -7.957  0.00  0.00     0.163 HD
ENDROOT
BRANCH   1   5
HETATM    5  C           1     -20.991  -4.177  -7.414  0.00  0.00     0.195 C 
BRANCH   5   6
HETATM    6  C           1     -20.903  -4.730  -5.998  0.00  0.00     0.149 C 
BRANCH   6   7
HETATM    7  C           1     -21.679  -6.020  -5.913  0.00  0.00     0.175 C 
HETATM    8  O           1     -22.789  -6.045  -5.338  0.00  0.00    -0.648 OA
HETATM    9  O           1     -21.213  -7.065  -6.417  0.00  0.00    -0.648 OA
ENDBRANCH   6   7
ENDBRANCH   5   6
BRANCH   5  10
HETATM   10  C           1     -19.700  -4.454  -8.145  0.00  0.00     0.197 C 
HETATM   11  O           1     -18.610  -4.368  -7.542  0.00  0.00    -0.646 OA
HETATM   12  O           1     -19.723  -4.770  -9.355  0.00  0.00    -0.646 OA
ENDBRANCH   5  10
ENDBRANCH   1   5
BRANCH   2  13
HETATM   13  C           1     -23.998  -4.758  -9.718  0.00  0.00     0.274 C 
BRANCH  13  14
HETATM   14  C           1     -23.654  -4.882 -11.196  0.00  0.00     0.045 C 
BRANCH  14  15
HETATM   15 Se           1     -24.265  -3.291 -12.142  0.00  0.00     0.000 Se
HETATM   16  H           1     -24.760  -4.035 -13.312  0.00  0.00     0.000 HD
ENDBRANCH  14  15
ENDBRANCH  13  14
BRANCH  13  17
HETATM   17  N           1     -25.239  -3.930  -9.562  0.00  0.00    -0.067 N 
HETATM   18  H           1     -25.376  -3.341 -10.415  0.00  0.00     0.275 HD
HETATM   19  H           1     -26.064  -4.559  -9.439  0.00  0.00     0.275 HD
HETATM   20  H           1     -25.143  -3.313  -8.724  0.00  0.00     0.275 HD
ENDBRANCH  13  17
ENDBRANCH   2  13
TORSDOF 8
ENDMDL
MODEL 3
REMARK VINA RESULT:      -4.7      3.290      5.788
REMARK  8 active torsions:
REMARK  status: ('A' for Active; 'I' for Inactive)
REMARK    1  A    between atoms: C_2  and  C_4 
REMARK    2  A    between atoms: C_4  and  C_5 
REMARK    3  A    between atoms: C_5  and  C_6 
REMARK    4  A    between atoms: C_5  and  N_9 
REMARK       I    between atoms: N_9  and  C_10 
REMARK    5  A    between atoms: C_10  and  C_11 
REMARK    6  A    between atoms: C_11  and  C_12 
REMARK    7  A    between atoms: C_11  and  N_14 
REMARK    8  A    between atoms: C_12  and  Se_13 
ROOT
HETATM    1  N           1     -21.981  -5.402  -7.724  0.00  0.00    -0.344 N 
HETATM    2  C           1     -22.388  -4.200  -8.239  0.00  0.00     0.249 C 
HETATM    3  O           1     -21.968  -3.168  -7.770  0.00  0.00    -0.271 OA
HETATM    4  H           1     -22.333  -6.266  -8.115  0.00  0.00     0.163 HD
ENDROOT
BRANCH   1   5
HETATM    5  C           1     -21.045  -5.435  -6.616  0.00  0.00     0.195 C 
BRANCH   5   6
HETATM    6  C           1     -21.356  -6.632  -5.727  0.00  0.00     0.149 C 
BRANCH   6   7
HETATM    7  C           1     -22.497  -6.289  -4.802  0.00  0.00     0.175 C 
HETATM    8  O           1     -22.326  -6.308  -3.564  0.00  0.00    -0.648 OA
HETATM    9  O           1     -23.614  -5.985  -5.274  0.00  0.00    -0.648 OA
ENDBRANCH   6   7
ENDBRANCH   5   6
BRANCH   5  10
HETATM   10  C           1     -19.639  -5.556  -7.151  0.00  0.00     0.197 C 
HETATM   11  O           1     -18.948  -4.531  -7.330  0.00  0.00    -0.646 OA
HETATM   12  O           1     -19.165  -6.683  -7.413  0.00  0.00    -0.646 OA
ENDBRANCH   5  10
ENDBRANCH   1   5
BRANCH   2  13
HETATM   13  C           1     -23.362  -4.164  -9.391  0.00  0.00     0.274 C 
BRANCH  13  14
HETATM   14  C           1     -22.675  -3.582 -10.619  0.00  0.00     0.045 C 
BRANCH  14  15
HETATM   15 Se           1     -23.990  -3.304 -12.030  0.00  0.00     0.000 Se
HETATM   16  H           1     -23.912  -1.835 -11.974  0.00  0.00     0.000 HD
ENDBRANCH  14  15
ENDBRANCH  13  14
BRANCH  13  17
HETATM   17  N           1     -24.538  -3.309  -9.025  0.00  0.00    -0.067 N 
HETATM   18  H           1     -24.907  -2.837  -9.881  0.00  0.00     0.275 HD
HETATM   19  H           1     -25.288  -3.907  -8.608  0.00  0.00     0.275 HD
HETATM   20  H           1     -24.242  -2.587  -8.330  0.00  0.00     0.275 HD
ENDBRANCH  13  17
ENDBRANCH   2  13
TORSDOF 8
ENDMDL
MODEL 4
REMARK VINA RESULT:      -4.7      4.275      6.539
REMARK  8 active torsions:
REMARK  status: ('A' for Active; 'I' for Inactive)
REMARK    1  A    between atoms: C_2  and  C_4 
REMARK    2  A    between atoms: C_4  and  C_5 
REMARK    3  A    between atoms: C_5  and  C_6 
REMARK    4  A    between atoms: C_5  and  N_9 
REMARK       I    between atoms: N_9  and  C_10 
REMARK    5  A    between atoms: C_10  and  C_11 
REMARK    6  A    between atoms: C_11  and  C_12 
REMARK    7  A    between atoms: C_11  and  N_14 
REMARK    8  A    between atoms: C_12  and  Se_13 
ROOT
HETATM    1  N           1     -20.838  -6.744  -4.737  0.00  0.00    -0.344 N 
HETATM    2  C           1     -21.379  -5.826  -5.598  0.00  0.00     0.249 C 
HETATM    3  O           1     -22.574  -5.652  -5.623  0.00  0.00    -0.271 OA
HETATM    4  H           1     -19.837  -6.891  -4.716  0.00  0.00     0.163 HD
ENDROOT
BRANCH   1   5
HETATM    5  C           1     -21.701  -7.507  -3.855  0.00  0.00     0.195 C 
BRANCH   5   6
HETATM    6  C           1     -21.226  -8.953  -3.807  0.00  0.00     0.149 C 
BRANCH   6   7
HETATM    7  C           1     -19.922  -9.079  -4.554  0.00  0.00     0.175 C 
HETATM    8  O           1     -18.838  -8.931  -3.948  0.00  0.00    -0.648 OA
HETATM    9  O           1     -19.924  -9.332  -5.778  0.00  0.00    -0.648 OA
ENDBRANCH   6   7
ENDBRANCH   5   6
BRANCH   5  10
HETATM   10  C           1     -21.653  -6.913  -2.469  0.00  0.00     0.197 C 
HETATM   11  O           1     -22.332  -5.901  -2.198  0.00  0.00    -0.646 OA
HETATM   12  O           1     -20.932  -7.436  -1.591  0.00  0.00    -0.646 OA
ENDBRANCH   5  10
ENDBRANCH   1   5
BRANCH   2  13
HETATM   13  C           1     -20.481  -5.033  -6.516  0.00  0.00     0.274 C 
BRANCH  13  14
HETATM   14  C           1     -21.269  -3.882  -7.127  0.00  0.00     0.045 C 
BRANCH  14  15
HETATM   15 Se           1     -21.782  -4.341  -8.950  0.00  0.00     0.000 Se
HETATM   16  H           1     -23.020  -5.030  -8.552  0.00  0.00     0.000 HD
ENDBRANCH  14  15
ENDBRANCH  13  14
BRANCH  13  17
HETATM   17  N           1     -19.971  -5.924  -7.609  0.00  0.00    -0.067 N 
HETATM   18  H           1     -18.933  -5.830  -7.681  0.00  0.00     0.275 HD
HETATM   19  H           1     -20.215  -6.917  -7.391  0.00  0.00     0.275 HD
HETATM   20  H           1     -20.409  -5.649  -8.516  0.00  0.00     0.275 HD
ENDBRANCH  13  17
ENDBRANCH   2  13
TORSDOF 8
ENDMDL
MODEL 5
REMARK VINA RESULT:      -4.7     17.843     19.602
REMARK  8 active torsions:
REMARK  status: ('A' for Active; 'I' for Inactive)
REMARK    1  A    between atoms: C_2  and  C_4 
REMARK    2  A    between atoms: C_4  and  C_5 
REMARK    3  A    between atoms: C_5  and  C_6 
REMARK    4  A    between atoms: C_5  and  N_9 
REMARK       I    between atoms: N_9  and  C_10 
REMARK    5  A    between atoms: C_10  and  C_11 
REMARK    6  A    between atoms: C_11  and  C_12 
REMARK    7  A    between atoms: C_11  and  N_14 
REMARK    8  A    between atoms: C_12  and  Se_13 
ROOT
HETATM    1  N           1     -11.831   7.320 -20.140  0.00  0.00    -0.344 N 
HETATM    2  C           1     -12.381   8.442 -20.702  0.00  0.00     0.249 C 
HETATM    3  O           1     -13.050   8.350 -21.703  0.00  0.00    -0.271 OA
HETATM    4  H           1     -11.270   7.396 -19.301  0.00  0.00     0.163 HD
ENDROOT
BRANCH   1   5
HETATM    5  C           1     -12.054   6.022 -20.748  0.00  0.00     0.195 C 
BRANCH   5   6
HETATM    6  C           1     -10.752   5.232 -20.747  0.00  0.00     0.149 C 
BRANCH   6   7
HETATM    7  C           1      -9.736   5.938 -19.885  0.00  0.00     0.175 C 
HETATM    8  O           1      -8.782   6.548 -20.415  0.00  0.00    -0.648 OA
HETATM    9  O           1      -9.847   5.913 -18.639  0.00  0.00    -0.648 OA
ENDBRANCH   6   7
ENDBRANCH   5   6
BRANCH   5  10
HETATM   10  C           1     -13.099   5.271 -19.959  0.00  0.00     0.197 C 
HETATM   11  O           1     -14.296   5.625 -20.013  0.00  0.00    -0.646 OA
HETATM   12  O           1     -12.767   4.295 -19.253  0.00  0.00    -0.646 OA
ENDBRANCH   5  10
ENDBRANCH   1   5
BRANCH   2  13
HETATM   13  C           1     -12.149   9.792 -20.069  0.00  0.00     0.274 C 
BRANCH  13  14
HETATM   14  C           1     -13.069   9.954 -18.866  0.00  0.00     0.045 C 
BRANCH  14  15
HETATM   15 Se           1     -14.304  11.428 -19.186  0.00  0.00     0.000 Se
HETATM   16  H           1     -14.928  10.802 -20.363  0.00  0.00     0.000 HD
ENDBRANCH  14  15
ENDBRANCH  13  14
BRANCH  13  17
HETATM   17  N           1     -12.443  10.870 -21.071  0.00  0.00    -0.067 N 
HETATM   18  H           1     -13.477  10.980 -21.173  0.00  0.00     0.275 HD
HETATM   19  H           1     -12.028  11.772 -20.744  0.00  0.00     0.275 HD
HETATM   20  H           1     -12.028  10.610 -21.994  0.00  0.00     0.275 HD
ENDBRANCH  13  17
ENDBRANCH   2  13
TORSDOF 8
ENDMDL
MODEL 6
REMARK VINA RESULT:      -4.6     17.946     19.707
REMARK  8 active torsions:
REMARK  status: ('A' for Active; 'I' for Inactive)
REMARK    1  A    between atoms: C_2  and  C_4 
REMARK    2  A    between atoms: C_4  and  C_5 
REMARK    3  A    between atoms: C_5  and  C_6 
REMARK    4  A    between atoms: C_5  and  N_9 
REMARK       I    between atoms: N_9  and  C_10 
REMARK    5  A    between atoms: C_10  and  C_11 
REMARK    6  A    between atoms: C_11  and  C_12 
REMARK    7  A    between atoms: C_11  and  N_14 
REMARK    8  A    between atoms: C_12  and  Se_13 
ROOT
HETATM    1  N           1     -11.691   6.760 -20.391  0.00  0.00    -0.344 N 
HETATM    2  C           1     -12.407   5.797 -21.052  0.00  0.00     0.249 C 
HETATM    3  O           1     -12.485   5.822 -22.257  0.00  0.00    -0.271 OA
HETATM    4  H           1     -11.626   6.739 -19.381  0.00  0.00     0.163 HD
ENDROOT
BRANCH   1   5
HETATM    5  C           1     -11.025   7.809 -21.139  0.00  0.00     0.195 C 
BRANCH   5   6
HETATM    6  C           1     -11.543   9.165 -20.680  0.00  0.00     0.149 C 
BRANCH   6   7
HETATM    7  C           1     -12.060   9.054 -19.267  0.00  0.00     0.175 C 
HETATM    8  O           1     -11.258   9.027 -18.309  0.00  0.00    -0.648 OA
HETATM    9  O           1     -13.291   8.989 -19.055  0.00  0.00    -0.648 OA
ENDBRANCH   6   7
ENDBRANCH   5   6
BRANCH   5  10
HETATM   10  C           1      -9.537   7.729 -20.900  0.00  0.00     0.197 C 
HETATM   11  O           1      -9.027   6.667 -20.487  0.00  0.00    -0.646 OA
HETATM   12  O           1      -8.816   8.727 -21.116  0.00  0.00    -0.646 OA
ENDBRANCH   5  10
ENDBRANCH   1   5
BRANCH   2  13
HETATM   13  C           1     -13.100   4.705 -20.274  0.00  0.00     0.274 C 
BRANCH  13  14
HETATM   14  C           1     -12.904   3.372 -20.984  0.00  0.00     0.045 C 
BRANCH  14  15
HETATM   15 Se           1     -11.087   2.735 -20.680  0.00  0.00     0.000 Se
HETATM   16  H           1     -10.962   3.367 -19.357  0.00  0.00     0.000 HD
ENDBRANCH  14  15
ENDBRANCH  13  14
BRANCH  13  17
HETATM   17  N           1     -14.566   5.010 -20.181  0.00  0.00    -0.067 N 
HETATM   18  H           1     -15.116   4.191 -20.524  0.00  0.00     0.275 HD
HETATM   19  H           1     -14.818   5.207 -19.186  0.00  0.00     0.275 HD
HETATM   20  H           1     -14.785   5.847 -20.768  0.00  0.00     0.275 HD
ENDBRANCH  13  17
ENDBRANCH   2  13
TORSDOF 8
ENDMDL
MODEL 7
REMARK VINA RESULT:      -4.5      4.130      6.703
REMARK  8 active torsions:
REMARK  status: ('A' for Active; 'I' for Inactive)
REMARK    1  A    between atoms: C_2  and  C_4 
REMARK    2  A    between atoms: C_4  and  C_5 
REMARK    3  A    between atoms: C_5  and  C_6 
REMARK    4  A    between atoms: C_5  and  N_9 
REMARK       I    between atoms: N_9  and  C_10 
REMARK    5  A    between atoms: C_10  and  C_11 
REMARK    6  A    between atoms: C_11  and  C_12 
REMARK    7  A    between atoms: C_11  and  N_14 
REMARK    8  A    between atoms: C_12  and  Se_13 
ROOT
HETATM    1  N           1     -20.892  -6.855  -6.322  0.00  0.00    -0.344 N 
HETATM    2  C           1     -20.912  -5.506  -6.563  0.00  0.00     0.249 C 
HETATM    3  O           1     -20.569  -4.733  -5.701  0.00  0.00    -0.271 OA
HETATM    4  H           1     -21.179  -7.503  -7.044  0.00  0.00     0.163 HD
ENDROOT
BRANCH   1   5
HETATM    5  C           1     -20.459  -7.353  -5.030  0.00  0.00     0.195 C 
BRANCH   5   6
HETATM    6  C           1     -21.679  -7.692  -4.184  0.00  0.00     0.149 C 
BRANCH   6   7
HETATM    7  C           1     -21.611  -6.941  -2.879  0.00  0.00     0.175 C 
HETATM    8  O           1     -22.373  -5.971  -2.676  0.00  0.00    -0.648 OA
HETATM    9  O           1     -20.793  -7.287  -1.999  0.00  0.00    -0.648 OA
ENDBRANCH   6   7
ENDBRANCH   5   6
BRANCH   5  10
HETATM   10  C           1     -19.620  -8.592  -5.226  0.00  0.00     0.197 C 
HETATM   11  O           1     -19.740  -9.558  -4.443  0.00  0.00    -0.646 OA
HETATM   12  O           1     -18.804  -8.651  -6.171  0.00  0.00    -0.646 OA
ENDBRANCH   5  10
ENDBRANCH   1   5
BRANCH   2  13
HETATM   13  C           1     -21.362  -4.988  -7.907  0.00  0.00     0.274 C 
BRANCH  13  14
HETATM   14  C           1     -20.151  -4.516  -8.701  0.00  0.00     0.045 C 
BRANCH  14  15
HETATM   15 Se           1     -20.682  -4.148 -10.540  0.00  0.00     0.000 Se
HETATM   16  H           1     -22.125  -4.229 -10.262  0.00  0.00     0.000 HD
ENDBRANCH  14  15
ENDBRANCH  13  14
BRANCH  13  17
HETATM   17  N           1     -22.307  -3.840  -7.708  0.00  0.00    -0.067 N 
HETATM   18  H           1     -23.059  -4.118  -7.039  0.00  0.00     0.275 HD
HETATM   19  H           1     -21.784  -3.021  -7.322  0.00  0.00     0.275 HD
HETATM   20  H           1     -22.735  -3.579  -8.625  0.00  0.00     0.275 HD
ENDBRANCH  13  17
ENDBRANCH   2  13
TORSDOF 8
ENDMDL
MODEL 8
REMARK VINA RESULT:      -4.5      6.006      8.619
REMARK  8 active torsions:
REMARK  status: ('A' for Active; 'I' for Inactive)
REMARK    1  A    between atoms: C_2  and  C_4 
REMARK    2  A    between atoms: C_4  and  C_5 
REMARK    3  A    between atoms: C_5  and  C_6 
REMARK    4  A    between atoms: C_5  and  N_9 
REMARK       I    between atoms: N_9  and  C_10 
REMARK    5  A    between atoms: C_10  and  C_11 
REMARK    6  A    between atoms: C_11  and  C_12 
REMARK    7  A    between atoms: C_11  and  N_14 
REMARK    8  A    between atoms: C_12  and  Se_13 
ROOT
HETATM    1  N           1     -21.708  -8.357  -2.882  0.00  0.00    -0.344 N 
HETATM    2  C           1     -20.960  -8.047  -3.987  0.00  0.00     0.249 C 
HETATM    3  O           1     -19.784  -8.322  -4.016  0.00  0.00    -0.271 OA
HETATM    4  H           1     -22.693  -8.126  -2.857  0.00  0.00     0.163 HD
ENDROOT
BRANCH   1   5
HETATM    5  C           1     -21.088  -9.014  -1.747  0.00  0.00     0.195 C 
BRANCH   5   6
HETATM    6  C           1     -21.135  -8.090  -0.538  0.00  0.00     0.149 C 
BRANCH   6   7
HETATM    7  C           1     -22.375  -7.233  -0.608  0.00  0.00     0.175 C 
HETATM    8  O           1     -22.364  -6.171  -1.267  0.00  0.00    -0.648 OA
HETATM    9  O           1     -23.413  -7.585  -0.006  0.00  0.00    -0.648 OA
ENDBRANCH   6   7
ENDBRANCH   5   6
BRANCH   5  10
HETATM   10  C           1     -21.833 -10.289  -1.437  0.00  0.00     0.197 C 
HETATM   11  O           1     -22.738 -10.685  -2.201  0.00  0.00    -0.646 OA
HETATM   12  O           1     -21.543 -10.949  -0.416  0.00  0.00    -0.646 OA
ENDBRANCH   5  10
ENDBRANCH   1   5
BRANCH   2  13
HETATM   13  C           1     -21.605  -7.364  -5.167  0.00  0.00     0.274 C 
BRANCH  13  14
HETATM   14  C           1     -20.526  -6.774  -6.065  0.00  0.00     0.045 C 
BRANCH  14  15
HETATM   15 Se           1     -20.369  -4.862  -5.726  0.00  0.00     0.000 Se
HETATM   16  H           1     -19.623  -4.585  -6.964  0.00  0.00     0.000 HD
ENDBRANCH  14  15
ENDBRANCH  13  14
BRANCH  13  17
HETATM   17  N           1     -22.502  -6.265  -4.679  0.00  0.00    -0.067 N 
HETATM   18  H           1     -22.335  -5.401  -5.242  0.00  0.00     0.275 HD
HETATM   19  H           1     -23.500  -6.559  -4.781  0.00  0.00     0.275 HD
HETATM   20  H           1     -22.298  -6.070  -3.673  0.00  0.00     0.275 HD
ENDBRANCH  13  17
ENDBRANCH   2  13
TORSDOF 8
ENDMDL
MODEL 9
REMARK VINA RESULT:      -4.3      5.400      7.361
REMARK  8 active torsions:
REMARK  status: ('A' for Active; 'I' for Inactive)
REMARK    1  A    between atoms: C_2  and  C_4 
REMARK    2  A    between atoms: C_4  and  C_5 
REMARK    3  A    between atoms: C_5  and  C_6 
REMARK    4  A    between atoms: C_5  and  N_9 
REMARK       I    between atoms: N_9  and  C_10 
REMARK    5  A    between atoms: C_10  and  C_11 
REMARK    6  A    between atoms: C_11  and  C_12 
REMARK    7  A    between atoms: C_11  and  N_14 
REMARK    8  A    between atoms: C_12  and  Se_13 
ROOT
HETATM    1  N           1     -20.735  -7.963  -3.341  0.00  0.00    -0.344 N 
HETATM    2  C           1     -21.443  -8.624  -2.372  0.00  0.00     0.249 C 
HETATM    3  O           1     -21.965  -9.684  -2.622  0.00  0.00    -0.271 OA
HETATM    4  H           1     -20.298  -7.075  -3.131  0.00  0.00     0.163 HD
ENDROOT
BRANCH   1   5
HETATM    5  C           1     -20.611  -8.538  -4.667  0.00  0.00     0.195 C 
BRANCH   5   6
HETATM    6  C           1     -21.083  -7.526  -5.702  0.00  0.00     0.149 C 
BRANCH   6   7
HETATM    7  C           1     -21.549  -6.272  -5.006  0.00  0.00     0.175 C 
HETATM    8  O           1     -22.737  -6.171  -4.630  0.00  0.00    -0.648 OA
HETATM    9  O           1     -20.748  -5.334  -4.804  0.00  0.00    -0.648 OA
ENDBRANCH   6   7
ENDBRANCH   5   6
BRANCH   5  10
HETATM   10  C           1     -19.168  -8.892  -4.928  0.00  0.00     0.197 C 
HETATM   11  O           1     -18.395  -9.112  -3.972  0.00  0.00    -0.646 OA
HETATM   12  O           1     -18.746  -8.964  -6.102  0.00  0.00    -0.646 OA
ENDBRANCH   5  10
ENDBRANCH   1   5
BRANCH   2  13
HETATM   13  C           1     -21.572  -8.026  -0.992  0.00  0.00     0.274 C 
BRANCH  13  14
HETATM   14  C           1     -22.274  -9.017  -0.073  0.00  0.00     0.045 C 
BRANCH  14  15
HETATM   15 Se           1     -20.954 -10.202   0.735  0.00  0.00     0.000 Se
HETATM   16  H           1     -19.933  -9.959  -0.297  0.00  0.00     0.000 HD
ENDBRANCH  14  15
ENDBRANCH  13  14
BRANCH  13  17
HETATM   17  N           1     -22.374  -6.761  -1.068  0.00  0.00    -0.067 N 
HETATM   18  H           1     -23.054  -6.730  -0.275  0.00  0.00     0.275 HD
HETATM   19  H           1     -21.733  -5.938  -1.008  0.00  0.00     0.275 HD
HETATM   20  H           1     -22.894  -6.732  -1.974  0.00  0.00     0.275 HD
ENDBRANCH  13  17
ENDBRANCH   2  13
TORSDOF 8
ENDMDL
