MODEL 1
REMARK VINA RESULT:      -5.9      0.000      0.000
REMARK  6 active torsions:
REMARK  status: ('A' for Active; 'I' for Inactive)
REMARK    1  A    between atoms: C_1  and  C_11 
REMARK    2  A    between atoms: N_4  and  C_11 
REMARK       I    between atoms: N_4  and  C_5 
REMARK    3  A    between atoms: C_5  and  C_6 
REMARK    4  A    between atoms: C_6  and  N_7 
REMARK    5  A    between atoms: C_8  and  C_10 
REMARK    6  A    between atoms: C_8  and  C_11 
ROOT
HETATM    1  N           1     -23.548  -2.152 -12.944  0.00  0.00    -0.345 N 
HETATM    2  C           1     -23.402  -2.079 -14.302  0.00  0.00     0.243 C 
HETATM    3  H           1     -24.096  -1.455 -12.456  0.00  0.00     0.163 HD
HETATM    4  O           1     -22.748  -2.911 -14.885  0.00  0.00    -0.272 OA
ENDROOT
BRANCH   1   5
HETATM    5  C           1     -22.916  -3.226 -12.203  0.00  0.00     0.195 C 
BRANCH   5   6
HETATM    6  C           1     -23.946  -3.914 -11.340  0.00  0.00     0.197 C 
HETATM    7  O           1     -24.901  -3.261 -10.867  0.00  0.00    -0.646 OA
HETATM    8  O           1     -23.843  -5.136 -11.098  0.00  0.00    -0.646 OA
ENDBRANCH   5   6
BRANCH   5   9
HETATM    9  C           1     -21.814  -2.655 -11.321  0.00  0.00     0.149 C 
BRANCH   9  10
HETATM   10  C           1     -20.954  -3.779 -10.797  0.00  0.00     0.175 C 
HETATM   11  O           1     -20.170  -4.378 -11.566  0.00  0.00    -0.648 OA
HETATM   12  O           1     -21.026  -4.111  -9.594  0.00  0.00    -0.648 OA
ENDBRANCH   9  10
ENDBRANCH   5   9
ENDBRANCH   1   5
BRANCH   2  13
HETATM   13  C           1     -24.059  -0.960 -15.073  0.00  0.00     0.332 C 
BRANCH  13  14
HETATM   14  N           1     -23.080  -0.383 -16.051  0.00  0.00    -0.071 N 
HETATM   15  H           1     -22.223  -0.980 -16.081  0.00  0.00     0.274 HD
HETATM   16  H           1     -23.514  -0.350 -17.001  0.00  0.00     0.274 HD
HETATM   17  H           1     -22.819   0.585 -15.753  0.00  0.00     0.274 HD
ENDBRANCH  13  14
ENDBRANCH   2  13
TORSDOF 6
ENDMDL
MODEL 2
REMARK VINA RESULT:      -5.9      7.481      8.845
REMARK  6 active torsions:
REMARK  status: ('A' for Active; 'I' for Inactive)
REMARK    1  A    between atoms: C_1  and  C_11 
REMARK    2  A    between atoms: N_4  and  C_11 
REMARK       I    between atoms: N_4  and  C_5 
REMARK    3  A    between atoms: C_5  and  C_6 
REMARK    4  A    between atoms: C_6  and  N_7 
REMARK    5  A    between atoms: C_8  and  C_10 
REMARK    6  A    between atoms: C_8  and  C_11 
ROOT
HETATM    1  N           1     -27.554  -7.094 -15.926  0.00  0.00    -0.345 N 
HETATM    2  C           1     -26.346  -6.579 -16.312  0.00  0.00     0.243 C 
HETATM    3  H           1     -27.590  -7.852 -15.257  0.00  0.00     0.163 HD
HETATM    4  O           1     -26.303  -5.673 -17.110  0.00  0.00    -0.272 OA
ENDROOT
BRANCH   1   5
HETATM    5  C           1     -28.782  -6.553 -16.476  0.00  0.00     0.195 C 
BRANCH   5   6
HETATM    6  C           1     -29.522  -5.795 -15.402  0.00  0.00     0.197 C 
HETATM    7  O           1     -30.505  -5.083 -15.704  0.00  0.00    -0.646 OA
HETATM    8  O           1     -29.153  -5.878 -14.211  0.00  0.00    -0.646 OA
ENDBRANCH   5   6
BRANCH   5   9
HETATM    9  C           1     -29.654  -7.693 -16.986  0.00  0.00     0.149 C 
BRANCH   9  10
HETATM   10  C           1     -29.546  -7.776 -18.489  0.00  0.00     0.175 C 
HETATM   11  O           1     -28.674  -7.113 -19.092  0.00  0.00    -0.648 OA
HETATM   12  O           1     -30.329  -8.508 -19.132  0.00  0.00    -0.648 OA
ENDBRANCH   9  10
ENDBRANCH   5   9
ENDBRANCH   1   5
BRANCH   2  13
HETATM   13  C           1     -25.069  -7.142 -15.739  0.00  0.00     0.332 C 
BRANCH  13  14
HETATM   14  N           1     -24.287  -7.817 -16.827  0.00  0.00    -0.071 N 
HETATM   15  H           1     -24.904  -8.487 -17.336  0.00  0.00     0.274 HD
HETATM   16  H           1     -23.928  -7.098 -17.495  0.00  0.00     0.274 HD
HETATM   17  H           1     -23.481  -8.335 -16.408  0.00  0.00     0.274 HD
ENDBRANCH  13  14
ENDBRANCH   2  13
TORSDOF 6
ENDMDL
MODEL 3
REMARK VINA RESULT:      -5.9      1.448      3.088
REMARK  6 active torsions:
REMARK  status: ('A' for Active; 'I' for Inactive)
REMARK    1  A    between atoms: C_1  and  C_11 
REMARK    2  A    between atoms: N_4  and  C_11 
REMARK       I    between atoms: N_4  and  C_5 
REMARK    3  A    between atoms: C_5  and  C_6 
REMARK    4  A    between atoms: C_6  and  N_7 
REMARK    5  A    between atoms: C_8  and  C_10 
REMARK    6  A    between atoms: C_8  and  C_11 
ROOT
HETATM    1  N           1     -22.071  -3.550 -12.727  0.00  0.00    -0.345 N 
HETATM    2  C           1     -22.909  -2.788 -13.494  0.00  0.00     0.243 C 
HETATM    3  H           1     -21.346  -4.104 -13.167  0.00  0.00     0.163 HD
HETATM    4  O           1     -23.774  -2.127 -12.969  0.00  0.00    -0.272 OA
ENDROOT
BRANCH   1   5
HETATM    5  C           1     -22.219  -3.566 -11.285  0.00  0.00     0.195 C 
BRANCH   5   6
HETATM    6  C           1     -20.910  -3.964 -10.649  0.00  0.00     0.197 C 
HETATM    7  O           1     -19.934  -4.270 -11.368  0.00  0.00    -0.646 OA
HETATM    8  O           1     -20.802  -3.988  -9.404  0.00  0.00    -0.646 OA
ENDBRANCH   5   6
BRANCH   5   9
HETATM    9  C           1     -23.299  -4.568 -10.897  0.00  0.00     0.149 C 
BRANCH   9  10
HETATM   10  C           1     -24.255  -3.926  -9.922  0.00  0.00     0.175 C 
HETATM   11  O           1     -25.280  -3.345 -10.342  0.00  0.00    -0.648 OA
HETATM   12  O           1     -24.024  -3.977  -8.695  0.00  0.00    -0.648 OA
ENDBRANCH   9  10
ENDBRANCH   5   9
ENDBRANCH   1   5
BRANCH   2  13
HETATM   13  C           1     -22.754  -2.773 -14.995  0.00  0.00     0.332 C 
BRANCH  13  14
HETATM   14  N           1     -23.087  -1.407 -15.519  0.00  0.00    -0.071 N 
HETATM   15  H           1     -22.629  -1.268 -16.447  0.00  0.00     0.274 HD
HETATM   16  H           1     -24.123  -1.318 -15.626  0.00  0.00     0.274 HD
HETATM   17  H           1     -22.743  -0.683 -14.849  0.00  0.00     0.274 HD
ENDBRANCH  13  14
ENDBRANCH   2  13
TORSDOF 6
ENDMDL
MODEL 4
REMARK VINA RESULT:      -5.9      8.806      9.727
REMARK  6 active torsions:
REMARK  status: ('A' for Active; 'I' for Inactive)
REMARK    1  A    between atoms: C_1  and  C_11 
REMARK    2  A    between atoms: N_4  and  C_11 
REMARK       I    between atoms: N_4  and  C_5 
REMARK    3  A    between atoms: C_5  and  C_6 
REMARK    4  A    between atoms: C_6  and  N_7 
REMARK    5  A    between atoms: C_8  and  C_10 
REMARK    6  A    between atoms: C_8  and  C_11 
ROOT
HETATM    1  N           1     -31.000  -6.369 -16.883  0.00  0.00    -0.345 N 
HETATM    2  C           1     -31.316  -5.072 -17.183  0.00  0.00     0.243 C 
HETATM    3  H           1     -31.574  -6.892 -16.234  0.00  0.00     0.163 HD
HETATM    4  O           1     -30.631  -4.448 -17.958  0.00  0.00    -0.272 OA
ENDROOT
BRANCH   1   5
HETATM    5  C           1     -29.843  -6.994 -17.493  0.00  0.00     0.195 C 
BRANCH   5   6
HETATM    6  C           1     -30.292  -7.888 -18.623  0.00  0.00     0.197 C 
HETATM    7  O           1     -31.485  -7.869 -18.998  0.00  0.00    -0.646 OA
HETATM    8  O           1     -29.472  -8.647 -19.184  0.00  0.00    -0.646 OA
ENDBRANCH   5   6
BRANCH   5   9
HETATM    9  C           1     -29.106  -7.824 -16.451  0.00  0.00     0.149 C 
BRANCH   9  10
HETATM   10  C           1     -28.086  -6.962 -15.749  0.00  0.00     0.175 C 
HETATM   11  O           1     -26.995  -7.454 -15.384  0.00  0.00    -0.648 OA
HETATM   12  O           1     -28.331  -5.756 -15.531  0.00  0.00    -0.648 OA
ENDBRANCH   9  10
ENDBRANCH   5   9
ENDBRANCH   1   5
BRANCH   2  13
HETATM   13  C           1     -32.520  -4.422 -16.548  0.00  0.00     0.332 C 
BRANCH  13  14
HETATM   14  N           1     -32.993  -3.290 -17.411  0.00  0.00    -0.071 N 
HETATM   15  H           1     -32.891  -2.389 -16.893  0.00  0.00     0.274 HD
HETATM   16  H           1     -32.420  -3.256 -18.284  0.00  0.00     0.274 HD
HETATM   17  H           1     -33.998  -3.437 -17.660  0.00  0.00     0.274 HD
ENDBRANCH  13  14
ENDBRANCH   2  13
TORSDOF 6
ENDMDL
MODEL 5
REMARK VINA RESULT:      -5.7     11.430     12.784
REMARK  6 active torsions:
REMARK  status: ('A' for Active; 'I' for Inactive)
REMARK    1  A    between atoms: C_1  and  C_11 
REMARK    2  A    between atoms: N_4  and  C_11 
REMARK       I    between atoms: N_4  and  C_5 
REMARK    3  A    between atoms: C_5  and  C_6 
REMARK    4  A    between atoms: C_6  and  N_7 
REMARK    5  A    between atoms: C_8  and  C_10 
REMARK    6  A    between atoms: C_8  and  C_11 
ROOT
HETATM    1  N           1     -35.084  -0.414 -12.711  0.00  0.00    -0.345 N 
HETATM    2  C           1     -35.675  -0.133 -13.913  0.00  0.00     0.243 C 
HETATM    3  H           1     -34.355   0.189 -12.352  0.00  0.00     0.163 HD
HETATM    4  O           1     -36.545  -0.853 -14.341  0.00  0.00    -0.272 OA
ENDROOT
BRANCH   1   5
HETATM    5  C           1     -35.502  -1.576 -11.952  0.00  0.00     0.195 C 
BRANCH   5   6
HETATM    6  C           1     -36.404  -1.141 -10.823  0.00  0.00     0.197 C 
HETATM    7  O           1     -37.645  -1.197 -10.958  0.00  0.00    -0.646 OA
HETATM    8  O           1     -35.909  -0.725  -9.753  0.00  0.00    -0.646 OA
ENDBRANCH   5   6
BRANCH   5   9
HETATM    9  C           1     -34.276  -2.277 -11.382  0.00  0.00     0.149 C 
BRANCH   9  10
HETATM   10  C           1     -33.768  -3.292 -12.377  0.00  0.00     0.175 C 
HETATM   11  O           1     -32.807  -4.034 -12.078  0.00  0.00    -0.648 OA
HETATM   12  O           1     -34.307  -3.390 -13.500  0.00  0.00    -0.648 OA
ENDBRANCH   9  10
ENDBRANCH   5   9
ENDBRANCH   1   5
BRANCH   2  13
HETATM   13  C           1     -35.240   1.077 -14.703  0.00  0.00     0.332 C 
BRANCH  13  14
HETATM   14  N           1     -36.270   1.390 -15.748  0.00  0.00    -0.071 N 
HETATM   15  H           1     -36.115   2.357 -16.112  0.00  0.00     0.274 HD
HETATM   16  H           1     -36.188   0.705 -16.534  0.00  0.00     0.274 HD
HETATM   17  H           1     -37.224   1.325 -15.327  0.00  0.00     0.274 HD
ENDBRANCH  13  14
ENDBRANCH   2  13
TORSDOF 6
ENDMDL
MODEL 6
REMARK VINA RESULT:      -5.6      8.293      9.673
REMARK  6 active torsions:
REMARK  status: ('A' for Active; 'I' for Inactive)
REMARK    1  A    between atoms: C_1  and  C_11 
REMARK    2  A    between atoms: N_4  and  C_11 
REMARK       I    between atoms: N_4  and  C_5 
REMARK    3  A    between atoms: C_5  and  C_6 
REMARK    4  A    between atoms: C_6  and  N_7 
REMARK    5  A    between atoms: C_8  and  C_10 
REMARK    6  A    between atoms: C_8  and  C_11 
ROOT
HETATM    1  N           1     -27.536  -7.283 -19.402  0.00  0.00    -0.345 N 
HETATM    2  C           1     -26.692  -7.091 -20.462  0.00  0.00     0.243 C 
HETATM    3  H           1     -27.871  -8.213 -19.184  0.00  0.00     0.163 HD
HETATM    4  O           1     -26.292  -5.981 -20.721  0.00  0.00    -0.272 OA
ENDROOT
BRANCH   1   5
HETATM    5  C           1     -27.953  -6.155 -18.592  0.00  0.00     0.195 C 
BRANCH   5   6
HETATM    6  C           1     -27.121  -6.106 -17.334  0.00  0.00     0.197 C 
HETATM    7  O           1     -25.877  -6.211 -17.402  0.00  0.00    -0.646 OA
HETATM    8  O           1     -27.677  -5.961 -16.223  0.00  0.00    -0.646 OA
ENDBRANCH   5   6
BRANCH   5   9
HETATM    9  C           1     -29.422  -6.309 -18.225  0.00  0.00     0.149 C 
BRANCH   9  10
HETATM   10  C           1     -29.780  -7.774 -18.179  0.00  0.00     0.175 C 
HETATM   11  O           1     -30.296  -8.324 -19.176  0.00  0.00    -0.648 OA
HETATM   12  O           1     -29.559  -8.439 -17.144  0.00  0.00    -0.648 OA
ENDBRANCH   9  10
ENDBRANCH   5   9
ENDBRANCH   1   5
BRANCH   2  13
HETATM   13  C           1     -26.259  -8.266 -21.304  0.00  0.00     0.332 C 
BRANCH  13  14
HETATM   14  N           1     -24.760  -8.321 -21.353  0.00  0.00    -0.071 N 
HETATM   15  H           1     -24.435  -9.260 -21.031  0.00  0.00     0.274 HD
HETATM   16  H           1     -24.438  -8.159 -22.334  0.00  0.00     0.274 HD
HETATM   17  H           1     -24.363  -7.583 -20.729  0.00  0.00     0.274 HD
ENDBRANCH  13  14
ENDBRANCH   2  13
TORSDOF 6
ENDMDL
MODEL 7
REMARK VINA RESULT:      -5.5      7.564      8.896
REMARK  6 active torsions:
REMARK  status: ('A' for Active; 'I' for Inactive)
REMARK    1  A    between atoms: C_1  and  C_11 
REMARK    2  A    between atoms: N_4  and  C_11 
REMARK       I    between atoms: N_4  and  C_5 
REMARK    3  A    between atoms: C_5  and  C_6 
REMARK    4  A    between atoms: C_6  and  N_7 
REMARK    5  A    between atoms: C_8  and  C_10 
REMARK    6  A    between atoms: C_8  and  C_11 
ROOT
HETATM    1  N           1     -28.281  -7.013 -18.051  0.00  0.00    -0.345 N 
HETATM    2  C           1     -29.516  -6.463 -18.265  0.00  0.00     0.243 C 
HETATM    3  H           1     -28.190  -8.011 -17.905  0.00  0.00     0.163 HD
HETATM    4  O           1     -29.625  -5.273 -18.440  0.00  0.00    -0.272 OA
ENDROOT
BRANCH   1   5
HETATM    5  C           1     -27.104  -6.168 -18.033  0.00  0.00     0.195 C 
BRANCH   5   6
HETATM    6  C           1     -26.172  -6.581 -19.146  0.00  0.00     0.197 C 
HETATM    7  O           1     -24.943  -6.665 -18.933  0.00  0.00    -0.646 OA
HETATM    8  O           1     -26.629  -6.838 -20.280  0.00  0.00    -0.646 OA
ENDBRANCH   5   6
BRANCH   5   9
HETATM    9  C           1     -26.393  -6.316 -16.694  0.00  0.00     0.149 C 
BRANCH   9  10
HETATM   10  C           1     -27.408  -6.597 -15.613  0.00  0.00     0.175 C 
HETATM   11  O           1     -28.221  -5.710 -15.273  0.00  0.00    -0.648 OA
HETATM   12  O           1     -27.436  -7.716 -15.057  0.00  0.00    -0.648 OA
ENDBRANCH   9  10
ENDBRANCH   5   9
ENDBRANCH   1   5
BRANCH   2  13
HETATM   13  C           1     -30.742  -7.344 -18.283  0.00  0.00     0.332 C 
BRANCH  13  14
HETATM   14  N           1     -31.731  -6.846 -17.271  0.00  0.00    -0.071 N 
HETATM   15  H           1     -32.487  -6.312 -17.755  0.00  0.00     0.274 HD
HETATM   16  H           1     -32.149  -7.659 -16.765  0.00  0.00     0.274 HD
HETATM   17  H           1     -31.246  -6.221 -16.588  0.00  0.00     0.274 HD
ENDBRANCH  13  14
ENDBRANCH   2  13
TORSDOF 6
ENDMDL
MODEL 8
REMARK VINA RESULT:      -5.5      3.696      5.482
REMARK  6 active torsions:
REMARK  status: ('A' for Active; 'I' for Inactive)
REMARK    1  A    between atoms: C_1  and  C_11 
REMARK    2  A    between atoms: N_4  and  C_11 
REMARK       I    between atoms: N_4  and  C_5 
REMARK    3  A    between atoms: C_5  and  C_6 
REMARK    4  A    between atoms: C_6  and  N_7 
REMARK    5  A    between atoms: C_8  and  C_10 
REMARK    6  A    between atoms: C_8  and  C_11 
ROOT
HETATM    1  N           1     -22.311  -4.851  -8.798  0.00  0.00    -0.345 N 
HETATM    2  C           1     -21.713  -4.556  -7.603  0.00  0.00     0.243 C 
HETATM    3  H           1     -22.414  -5.815  -9.087  0.00  0.00     0.163 HD
HETATM    4  O           1     -21.591  -3.405  -7.257  0.00  0.00    -0.272 OA
ENDROOT
BRANCH   1   5
HETATM    5  C           1     -22.797  -3.783  -9.649  0.00  0.00     0.195 C 
BRANCH   5   6
HETATM    6  C           1     -24.304  -3.824  -9.696  0.00  0.00     0.197 C 
HETATM    7  O           1     -24.895  -4.910  -9.883  0.00  0.00    -0.646 OA
HETATM    8  O           1     -24.963  -2.772  -9.548  0.00  0.00    -0.646 OA
ENDBRANCH   5   6
BRANCH   5   9
HETATM    9  C           1     -22.240  -3.963 -11.055  0.00  0.00     0.149 C 
BRANCH   9  10
HETATM   10  C           1     -20.741  -3.785 -11.031  0.00  0.00     0.175 C 
HETATM   11  O           1     -20.238  -2.677 -11.315  0.00  0.00    -0.648 OA
HETATM   12  O           1     -20.003  -4.747 -10.726  0.00  0.00    -0.648 OA
ENDBRANCH   9  10
ENDBRANCH   5   9
ENDBRANCH   1   5
BRANCH   2  13
HETATM   13  C           1     -21.208  -5.668  -6.716  0.00  0.00     0.332 C 
BRANCH  13  14
HETATM   14  N           1     -19.962  -6.255  -7.311  0.00  0.00    -0.071 N 
HETATM   15  H           1     -19.978  -7.294  -7.199  0.00  0.00     0.274 HD
HETATM   16  H           1     -19.915  -6.016  -8.327  0.00  0.00     0.274 HD
HETATM   17  H           1     -19.125  -5.865  -6.821  0.00  0.00     0.274 HD
ENDBRANCH  13  14
ENDBRANCH   2  13
TORSDOF 6
ENDMDL
MODEL 9
REMARK VINA RESULT:      -5.2     16.237     17.867
REMARK  6 active torsions:
REMARK  status: ('A' for Active; 'I' for Inactive)
REMARK    1  A    between atoms: C_1  and  C_11 
REMARK    2  A    between atoms: N_4  and  C_11 
REMARK       I    between atoms: N_4  and  C_5 
REMARK    3  A    between atoms: C_5  and  C_6 
REMARK    4  A    between atoms: C_6  and  N_7 
REMARK    5  A    between atoms: C_8  and  C_10 
REMARK    6  A    between atoms: C_8  and  C_11 
ROOT
HETATM    1  N           1     -11.211   6.990 -20.267  0.00  0.00    -0.345 N 
HETATM    2  C           1     -11.426   5.765 -19.696  0.00  0.00     0.243 C 
HETATM    3  H           1     -10.279   7.254 -20.562  0.00  0.00     0.163 HD
HETATM    4  O           1     -12.538   5.450 -19.343  0.00  0.00    -0.272 OA
ENDROOT
BRANCH   1   5
HETATM    5  C           1     -12.316   7.910 -20.447  0.00  0.00     0.195 C 
BRANCH   5   6
HETATM    6  C           1     -12.620   8.047 -21.919  0.00  0.00     0.197 C 
HETATM    7  O           1     -11.742   8.473 -22.701  0.00  0.00    -0.646 OA
HETATM    8  O           1     -13.748   7.735 -22.357  0.00  0.00    -0.646 OA
ENDBRANCH   5   6
BRANCH   5   9
HETATM    9  C           1     -11.942   9.271 -19.876  0.00  0.00     0.149 C 
BRANCH   9  10
HETATM   10  C           1     -10.488   9.266 -19.472  0.00  0.00     0.175 C 
HETATM   11  O           1     -10.158   8.873 -18.332  0.00  0.00    -0.648 OA
HETATM   12  O           1      -9.614   9.654 -20.277  0.00  0.00    -0.648 OA
ENDBRANCH   9  10
ENDBRANCH   5   9
ENDBRANCH   1   5
BRANCH   2  13
HETATM   13  C           1     -10.275   4.807 -19.507  0.00  0.00     0.332 C 
BRANCH  13  14
HETATM   14  N           1      -9.212   5.460 -18.674  0.00  0.00    -0.071 N 
HETATM   15  H           1      -8.597   4.726 -18.256  0.00  0.00     0.274 HD
HETATM   16  H           1      -8.638   6.094 -19.275  0.00  0.00     0.274 HD
HETATM   17  H           1      -9.660   6.015 -17.909  0.00  0.00     0.274 HD
ENDBRANCH  13  14
ENDBRANCH   2  13
TORSDOF 6
ENDMDL
