MODEL 1
REMARK VINA RESULT:      -8.0      0.000      0.000
REMARK  10 active torsions:
REMARK  status: ('A' for Active; 'I' for Inactive)
REMARK    1  A    between atoms: C_1  and  O_11 
REMARK    2  A    between atoms: C_2  and  C_3 
REMARK    3  A    between atoms: C_3  and  C_4 
REMARK    4  A    between atoms: C_3  and  N_25 
REMARK    5  A    between atoms: C_4  and  C_23 
REMARK       I    between atoms: C_6  and  N_17 
REMARK    6  A    between atoms: C_6  and  C_23 
REMARK    7  A    between atoms: C_9  and  C_10 
REMARK    8  A    between atoms: C_9  and  C_18 
REMARK    9  A    between atoms: C_10  and  C_27 
REMARK   10  A    between atoms: C_10  and  N_14 
REMARK       I    between atoms: N_25  and  C_27 
ROOT
HETATM    1  O           1     -21.703  -3.456  -7.304  0.00  0.00    -0.271 OA
HETATM    2  H           1     -22.136  -5.780  -9.366  0.00  0.00     0.163 HD
HETATM    3  N           1     -22.158  -4.838  -8.998  0.00  0.00    -0.345 N 
HETATM    4  C           1     -21.676  -4.581  -7.742  0.00  0.00     0.249 C 
ENDROOT
BRANCH   4   5
HETATM    5  C           1     -21.112  -5.704  -6.906  0.00  0.00     0.278 C 
BRANCH   5   6
HETATM    6  C           1     -20.884  -5.212  -5.483  0.00  0.00     0.081 C 
BRANCH   6   7
HETATM    7  C           1     -21.160  -6.325  -4.520  0.00  0.00    -0.056 A 
HETATM    8  C           1     -21.314  -7.629  -4.990  0.00  0.00     0.010 A 
HETATM    9  C           1     -21.571  -8.667  -4.093  0.00  0.00     0.037 A 
HETATM   10  C           1     -21.672  -8.400  -2.728  0.00  0.00     0.065 A 
HETATM   11  C           1     -21.518  -7.096  -2.259  0.00  0.00     0.037 A 
HETATM   12  C           1     -21.261  -6.058  -3.156  0.00  0.00     0.010 A 
BRANCH  10  13
HETATM   13  O           1     -21.922  -9.408  -1.857  0.00  0.00    -0.361 OA
HETATM   14  H           1     -21.089  -9.625  -1.403  0.00  0.00     0.217 HD
ENDBRANCH  10  13
ENDBRANCH   6   7
ENDBRANCH   5   6
BRANCH   5  15
HETATM   15  N           1     -19.808  -6.156  -7.493  0.00  0.00    -0.066 N 
HETATM   16  H           1     -19.866  -7.172  -7.730  0.00  0.00     0.275 HD
HETATM   17  H           1     -19.608  -5.607  -8.359  0.00  0.00     0.275 HD
HETATM   18  H           1     -19.042  -6.004  -6.798  0.00  0.00     0.275 HD
ENDBRANCH   5  15
ENDBRANCH   4   5
BRANCH   3  19
HETATM   19  C           1     -22.700  -3.760  -9.801  0.00  0.00     0.186 C 
BRANCH  19  20
HETATM   20  C           1     -24.208  -3.813  -9.763  0.00  0.00     0.196 C 
HETATM   21  O           1     -24.862  -2.794  -9.454  0.00  0.00    -0.646 OA
HETATM   22  O           1     -24.802  -4.878 -10.040  0.00  0.00    -0.646 OA
ENDBRANCH  19  20
BRANCH  19  23
HETATM   23  C           1     -22.223  -3.909 -11.240  0.00  0.00     0.045 C 
BRANCH  23  24
HETATM   24  C           1     -22.520  -2.629 -12.010  0.00  0.00     0.105 C 
BRANCH  24  25
HETATM   25  C           1     -23.256  -2.965 -13.283  0.00  0.00     0.215 C 
HETATM   26  O           1     -24.445  -3.170 -13.257  0.00  0.00    -0.274 OA
HETATM   27  N           1     -22.575  -3.037 -14.469  0.00  0.00    -0.370 N 
HETATM   28  H           1     -23.068  -3.261 -15.324  0.00  0.00     0.159 HD
HETATM   29  H           1     -21.577  -2.864 -14.491  0.00  0.00     0.159 HD
ENDBRANCH  24  25
ENDBRANCH  23  24
ENDBRANCH  19  23
ENDBRANCH   3  19
TORSDOF 10
ENDMDL
MODEL 2
REMARK VINA RESULT:      -7.8      2.854      8.444
REMARK  10 active torsions:
REMARK  status: ('A' for Active; 'I' for Inactive)
REMARK    1  A    between atoms: C_1  and  O_11 
REMARK    2  A    between atoms: C_2  and  C_3 
REMARK    3  A    between atoms: C_3  and  C_4 
REMARK    4  A    between atoms: C_3  and  N_25 
REMARK    5  A    between atoms: C_4  and  C_23 
REMARK       I    between atoms: C_6  and  N_17 
REMARK    6  A    between atoms: C_6  and  C_23 
REMARK    7  A    between atoms: C_9  and  C_10 
REMARK    8  A    between atoms: C_9  and  C_18 
REMARK    9  A    between atoms: C_10  and  C_27 
REMARK   10  A    between atoms: C_10  and  N_14 
REMARK       I    between atoms: N_25  and  C_27 
ROOT
HETATM    1  O           1     -20.712  -5.168  -4.907  0.00  0.00    -0.271 OA
HETATM    2  H           1     -21.811  -7.860  -6.081  0.00  0.00     0.163 HD
HETATM    3  N           1     -21.292  -7.250  -5.464  0.00  0.00    -0.345 N 
HETATM    4  C           1     -21.332  -5.894  -5.644  0.00  0.00     0.249 C 
ENDROOT
BRANCH   4   5
HETATM    5  C           1     -22.155  -5.307  -6.766  0.00  0.00     0.278 C 
BRANCH   5   6
HETATM    6  C           1     -21.509  -4.013  -7.245  0.00  0.00     0.081 C 
BRANCH   6   7
HETATM    7  C           1     -21.558  -3.956  -8.740  0.00  0.00    -0.056 A 
HETATM    8  C           1     -22.759  -3.667  -9.387  0.00  0.00     0.010 A 
HETATM    9  C           1     -22.805  -3.613 -10.781  0.00  0.00     0.037 A 
HETATM   10  C           1     -21.649  -3.848 -11.526  0.00  0.00     0.065 A 
HETATM   11  C           1     -20.448  -4.137 -10.878  0.00  0.00     0.037 A 
HETATM   12  C           1     -20.403  -4.190  -9.485  0.00  0.00     0.010 A 
BRANCH  10  13
HETATM   13  O           1     -21.693  -3.796 -12.879  0.00  0.00    -0.361 OA
HETATM   14  H           1     -20.915  -3.299 -13.186  0.00  0.00     0.217 HD
ENDBRANCH  10  13
ENDBRANCH   6   7
ENDBRANCH   5   6
BRANCH   5  15
HETATM   15  N           1     -23.541  -5.020  -6.271  0.00  0.00    -0.066 N 
HETATM   16  H           1     -24.209  -5.707  -6.686  0.00  0.00     0.275 HD
HETATM   17  H           1     -23.562  -5.101  -5.229  0.00  0.00     0.275 HD
HETATM   18  H           1     -23.818  -4.052  -6.551  0.00  0.00     0.275 HD
ENDBRANCH   5  15
ENDBRANCH   4   5
BRANCH   3  19
HETATM   19  C           1     -20.501  -7.815  -4.386  0.00  0.00     0.186 C 
BRANCH  19  20
HETATM   20  C           1     -19.627  -8.918  -4.929  0.00  0.00     0.196 C 
HETATM   21  O           1     -19.577 -10.022  -4.345  0.00  0.00    -0.646 OA
HETATM   22  O           1     -18.952  -8.728  -5.965  0.00  0.00    -0.646 OA
ENDBRANCH  19  20
BRANCH  19  23
HETATM   23  C           1     -21.429  -8.380  -3.319  0.00  0.00     0.045 C 
BRANCH  23  24
HETATM   24  C           1     -21.047  -7.809  -1.960  0.00  0.00     0.105 C 
BRANCH  24  25
HETATM   25  C           1     -22.104  -6.831  -1.509  0.00  0.00     0.215 C 
HETATM   26  O           1     -22.772  -7.070  -0.532  0.00  0.00    -0.274 OA
HETATM   27  N           1     -22.306  -5.671  -2.208  0.00  0.00    -0.370 N 
HETATM   28  H           1     -23.014  -5.013  -1.906  0.00  0.00     0.159 HD
HETATM   29  H           1     -21.746  -5.469  -3.027  0.00  0.00     0.159 HD
ENDBRANCH  24  25
ENDBRANCH  23  24
ENDBRANCH  19  23
ENDBRANCH   3  19
TORSDOF 10
ENDMDL
MODEL 3
REMARK VINA RESULT:      -7.8     12.774     15.984
REMARK  10 active torsions:
REMARK  status: ('A' for Active; 'I' for Inactive)
REMARK    1  A    between atoms: C_1  and  O_11 
REMARK    2  A    between atoms: C_2  and  C_3 
REMARK    3  A    between atoms: C_3  and  C_4 
REMARK    4  A    between atoms: C_3  and  N_25 
REMARK    5  A    between atoms: C_4  and  C_23 
REMARK       I    between atoms: C_6  and  N_17 
REMARK    6  A    between atoms: C_6  and  C_23 
REMARK    7  A    between atoms: C_9  and  C_10 
REMARK    8  A    between atoms: C_9  and  C_18 
REMARK    9  A    between atoms: C_10  and  C_27 
REMARK   10  A    between atoms: C_10  and  N_14 
REMARK       I    between atoms: N_25  and  C_27 
ROOT
HETATM    1  O           1     -34.050  -1.485 -11.024  0.00  0.00    -0.271 OA
HETATM    2  H           1     -36.508  -3.429 -11.160  0.00  0.00     0.163 HD
HETATM    3  N           1     -35.537  -3.144 -11.166  0.00  0.00    -0.345 N 
HETATM    4  C           1     -35.209  -1.824 -11.016  0.00  0.00     0.249 C 
ENDROOT
BRANCH   4   5
HETATM    5  C           1     -36.296  -0.792 -10.839  0.00  0.00     0.278 C 
BRANCH   5   6
HETATM    6  C           1     -35.958   0.447 -11.660  0.00  0.00     0.081 C 
BRANCH   6   7
HETATM    7  C           1     -36.192   0.163 -13.111  0.00  0.00    -0.056 A 
HETATM    8  C           1     -35.125   0.199 -14.008  0.00  0.00     0.010 A 
HETATM    9  C           1     -35.342  -0.066 -15.362  0.00  0.00     0.037 A 
HETATM   10  C           1     -36.626  -0.367 -15.815  0.00  0.00     0.065 A 
HETATM   11  C           1     -37.693  -0.404 -14.917  0.00  0.00     0.037 A 
HETATM   12  C           1     -37.475  -0.139 -13.565  0.00  0.00     0.010 A 
BRANCH  10  13
HETATM   13  O           1     -36.838  -0.625 -17.128  0.00  0.00    -0.361 OA
HETATM   14  H           1     -36.519  -1.525 -17.313  0.00  0.00     0.217 HD
ENDBRANCH  10  13
ENDBRANCH   6   7
ENDBRANCH   5   6
BRANCH   5  15
HETATM   15  N           1     -36.398  -0.417  -9.390  0.00  0.00    -0.066 N 
HETATM   16  H           1     -36.190   0.600  -9.277  0.00  0.00     0.275 HD
HETATM   17  H           1     -37.366  -0.614  -9.048  0.00  0.00     0.275 HD
HETATM   18  H           1     -35.711  -0.977  -8.837  0.00  0.00     0.275 HD
ENDBRANCH   5  15
ENDBRANCH   4   5
BRANCH   3  19
HETATM   19  C           1     -34.494  -4.136 -11.337  0.00  0.00     0.186 C 
BRANCH  19  20
HETATM   20  C           1     -34.397  -4.519 -12.793  0.00  0.00     0.196 C 
HETATM   21  O           1     -35.182  -5.365 -13.271  0.00  0.00    -0.646 OA
HETATM   22  O           1     -33.528  -3.990 -13.521  0.00  0.00    -0.646 OA
ENDBRANCH  19  20
BRANCH  19  23
HETATM   23  C           1     -34.826  -5.370 -10.508  0.00  0.00     0.045 C 
BRANCH  23  24
HETATM   24  C           1     -33.751  -6.428 -10.717  0.00  0.00     0.105 C 
BRANCH  24  25
HETATM   25  C           1     -34.257  -7.764 -10.232  0.00  0.00     0.215 C 
HETATM   26  O           1     -35.374  -7.860  -9.784  0.00  0.00    -0.274 OA
HETATM   27  N           1     -33.450  -8.868 -10.302  0.00  0.00    -0.370 N 
HETATM   28  H           1     -33.789  -9.765  -9.977  0.00  0.00     0.159 HD
HETATM   29  H           1     -32.513  -8.787 -10.678  0.00  0.00     0.159 HD
ENDBRANCH  24  25
ENDBRANCH  23  24
ENDBRANCH  19  23
ENDBRANCH   3  19
TORSDOF 10
ENDMDL
MODEL 4
REMARK VINA RESULT:      -7.3      2.381      8.718
REMARK  10 active torsions:
REMARK  status: ('A' for Active; 'I' for Inactive)
REMARK    1  A    between atoms: C_1  and  O_11 
REMARK    2  A    between atoms: C_2  and  C_3 
REMARK    3  A    between atoms: C_3  and  C_4 
REMARK    4  A    between atoms: C_3  and  N_25 
REMARK    5  A    between atoms: C_4  and  C_23 
REMARK       I    between atoms: C_6  and  N_17 
REMARK    6  A    between atoms: C_6  and  C_23 
REMARK    7  A    between atoms: C_9  and  C_10 
REMARK    8  A    between atoms: C_9  and  C_18 
REMARK    9  A    between atoms: C_10  and  C_27 
REMARK   10  A    between atoms: C_10  and  N_14 
REMARK       I    between atoms: N_25  and  C_27 
ROOT
HETATM    1  O           1     -20.088  -5.028  -6.067  0.00  0.00    -0.271 OA
HETATM    2  H           1     -23.029  -6.014  -5.597  0.00  0.00     0.163 HD
HETATM    3  N           1     -22.032  -5.931  -5.442  0.00  0.00    -0.345 N 
HETATM    4  C           1     -21.277  -5.126  -6.252  0.00  0.00     0.249 C 
ENDROOT
BRANCH   4   5
HETATM    5  C           1     -21.932  -4.361  -7.377  0.00  0.00     0.278 C 
BRANCH   5   6
HETATM    6  C           1     -21.402  -4.869  -8.712  0.00  0.00     0.081 C 
BRANCH   6   7
HETATM    7  C           1     -22.122  -4.179  -9.829  0.00  0.00    -0.056 A 
HETATM    8  C           1     -21.397  -3.575 -10.856  0.00  0.00     0.010 A 
HETATM    9  C           1     -22.067  -2.932 -11.898  0.00  0.00     0.037 A 
HETATM   10  C           1     -23.461  -2.893 -11.911  0.00  0.00     0.065 A 
HETATM   11  C           1     -24.186  -3.496 -10.883  0.00  0.00     0.037 A 
HETATM   12  C           1     -23.515  -4.139  -9.842  0.00  0.00     0.010 A 
BRANCH  10  13
HETATM   13  O           1     -24.112  -2.268 -12.922  0.00  0.00    -0.361 OA
HETATM   14  H           1     -24.291  -1.353 -12.644  0.00  0.00     0.217 HD
ENDBRANCH  10  13
ENDBRANCH   6   7
ENDBRANCH   5   6
BRANCH   5  15
HETATM   15  N           1     -21.616  -2.901  -7.238  0.00  0.00    -0.066 N 
HETATM   16  H           1     -20.680  -2.789  -6.789  0.00  0.00     0.275 HD
HETATM   17  H           1     -21.605  -2.457  -8.183  0.00  0.00     0.275 HD
HETATM   18  H           1     -22.344  -2.443  -6.645  0.00  0.00     0.275 HD
ENDBRANCH   5  15
ENDBRANCH   4   5
BRANCH   3  19
HETATM   19  C           1     -21.404  -6.667  -4.362  0.00  0.00     0.186 C 
BRANCH  19  20
HETATM   20  C           1     -21.181  -8.096  -4.790  0.00  0.00     0.196 C 
HETATM   21  O           1     -21.870  -9.013  -4.293  0.00  0.00    -0.646 OA
HETATM   22  O           1     -20.306  -8.363  -5.643  0.00  0.00    -0.646 OA
ENDBRANCH  19  20
BRANCH  19  23
HETATM   23  C           1     -22.307  -6.639  -3.136  0.00  0.00     0.045 C 
BRANCH  23  24
HETATM   24  C           1     -21.454  -6.662  -1.875  0.00  0.00     0.105 C 
BRANCH  24  25
HETATM   25  C           1     -21.963  -7.733  -0.942  0.00  0.00     0.215 C 
HETATM   26  O           1     -22.356  -7.436   0.161  0.00  0.00    -0.274 OA
HETATM   27  N           1     -21.979  -9.041  -1.345  0.00  0.00    -0.370 N 
HETATM   28  H           1     -22.321  -9.760  -0.720  0.00  0.00     0.159 HD
HETATM   29  H           1     -21.649  -9.290  -2.270  0.00  0.00     0.159 HD
ENDBRANCH  24  25
ENDBRANCH  23  24
ENDBRANCH  19  23
ENDBRANCH   3  19
TORSDOF 10
ENDMDL
MODEL 5
REMARK VINA RESULT:      -7.3     12.346     14.642
REMARK  10 active torsions:
REMARK  status: ('A' for Active; 'I' for Inactive)
REMARK    1  A    between atoms: C_1  and  O_11 
REMARK    2  A    between atoms: C_2  and  C_3 
REMARK    3  A    between atoms: C_3  and  C_4 
REMARK    4  A    between atoms: C_3  and  N_25 
REMARK    5  A    between atoms: C_4  and  C_23 
REMARK       I    between atoms: C_6  and  N_17 
REMARK    6  A    between atoms: C_6  and  C_23 
REMARK    7  A    between atoms: C_9  and  C_10 
REMARK    8  A    between atoms: C_9  and  C_18 
REMARK    9  A    between atoms: C_10  and  C_27 
REMARK   10  A    between atoms: C_10  and  N_14 
REMARK       I    between atoms: N_25  and  C_27 
ROOT
HETATM    1  O           1     -35.139   0.911 -13.819  0.00  0.00    -0.271 OA
HETATM    2  H           1     -35.475  -2.165 -14.330  0.00  0.00     0.163 HD
HETATM    3  N           1     -35.428  -1.178 -14.549  0.00  0.00    -0.345 N 
HETATM    4  C           1     -35.194  -0.266 -13.556  0.00  0.00     0.249 C 
ENDROOT
BRANCH   4   5
HETATM    5  C           1     -35.005  -0.731 -12.133  0.00  0.00     0.278 C 
BRANCH   5   6
HETATM    6  C           1     -35.851  -1.975 -11.889  0.00  0.00     0.081 C 
BRANCH   6   7
HETATM    7  C           1     -34.954  -3.160 -11.711  0.00  0.00    -0.056 A 
HETATM    8  C           1     -33.618  -3.088 -12.106  0.00  0.00     0.010 A 
HETATM    9  C           1     -32.781  -4.193 -11.940  0.00  0.00     0.037 A 
HETATM   10  C           1     -33.281  -5.367 -11.379  0.00  0.00     0.065 A 
HETATM   11  C           1     -34.617  -5.440 -10.984  0.00  0.00     0.037 A 
HETATM   12  C           1     -35.453  -4.335 -11.151  0.00  0.00     0.010 A 
BRANCH  10  13
HETATM   13  O           1     -32.469  -6.440 -11.218  0.00  0.00    -0.361 OA
HETATM   14  H           1     -32.555  -7.003 -12.006  0.00  0.00     0.217 HD
ENDBRANCH  10  13
ENDBRANCH   6   7
ENDBRANCH   5   6
BRANCH   5  15
HETATM   15  N           1     -35.433   0.355 -11.191  0.00  0.00    -0.066 N 
HETATM   16  H           1     -36.463   0.509 -11.281  0.00  0.00     0.275 HD
HETATM   17  H           1     -35.207   0.074 -10.211  0.00  0.00     0.275 HD
HETATM   18  H           1     -34.928   1.239 -11.427  0.00  0.00     0.275 HD
ENDBRANCH   5  15
ENDBRANCH   4   5
BRANCH   3  19
HETATM   19  C           1     -35.610  -0.732 -15.917  0.00  0.00     0.186 C 
BRANCH  19  20
HETATM   20  C           1     -37.074  -0.467 -16.168  0.00  0.00     0.196 C 
HETATM   21  O           1     -37.857  -1.420 -16.366  0.00  0.00    -0.646 OA
HETATM   22  O           1     -37.504   0.708 -16.180  0.00  0.00    -0.646 OA
ENDBRANCH  19  20
BRANCH  19  23
HETATM   23  C           1     -35.118  -1.810 -16.873  0.00  0.00     0.045 C 
BRANCH  23  24
HETATM   24  C           1     -34.595  -2.997 -16.075  0.00  0.00     0.105 C 
BRANCH  24  25
HETATM   25  C           1     -33.456  -3.645 -16.822  0.00  0.00     0.215 C 
HETATM   26  O           1     -32.815  -3.004 -17.620  0.00  0.00    -0.274 OA
HETATM   27  N           1     -33.148  -4.959 -16.594  0.00  0.00    -0.370 N 
HETATM   28  H           1     -32.383  -5.395 -17.095  0.00  0.00     0.159 HD
HETATM   29  H           1     -33.685  -5.497 -15.925  0.00  0.00     0.159 HD
ENDBRANCH  24  25
ENDBRANCH  23  24
ENDBRANCH  19  23
ENDBRANCH   3  19
TORSDOF 10
ENDMDL
MODEL 6
REMARK VINA RESULT:      -7.3      3.019      8.363
REMARK  10 active torsions:
REMARK  status: ('A' for Active; 'I' for Inactive)
REMARK    1  A    between atoms: C_1  and  O_11 
REMARK    2  A    between atoms: C_2  and  C_3 
REMARK    3  A    between atoms: C_3  and  C_4 
REMARK    4  A    between atoms: C_3  and  N_25 
REMARK    5  A    between atoms: C_4  and  C_23 
REMARK       I    between atoms: C_6  and  N_17 
REMARK    6  A    between atoms: C_6  and  C_23 
REMARK    7  A    between atoms: C_9  and  C_10 
REMARK    8  A    between atoms: C_9  and  C_18 
REMARK    9  A    between atoms: C_10  and  C_27 
REMARK   10  A    between atoms: C_10  and  N_14 
REMARK       I    between atoms: N_25  and  C_27 
ROOT
HETATM    1  O           1     -19.515  -6.655  -6.715  0.00  0.00    -0.271 OA
HETATM    2  H           1     -21.926  -7.364  -4.839  0.00  0.00     0.163 HD
HETATM    3  N           1     -20.985  -7.399  -5.209  0.00  0.00    -0.345 N 
HETATM    4  C           1     -20.638  -6.612  -6.274  0.00  0.00     0.249 C 
ENDROOT
BRANCH   4   5
HETATM    5  C           1     -21.659  -5.691  -6.896  0.00  0.00     0.278 C 
BRANCH   5   6
HETATM    6  C           1     -20.976  -4.405  -7.345  0.00  0.00     0.081 C 
BRANCH   6   7
HETATM    7  C           1     -21.199  -4.209  -8.813  0.00  0.00    -0.056 A 
HETATM    8  C           1     -20.168  -4.471  -9.715  0.00  0.00     0.010 A 
HETATM    9  C           1     -20.376  -4.288 -11.083  0.00  0.00     0.037 A 
HETATM   10  C           1     -21.613  -3.844 -11.547  0.00  0.00     0.065 A 
HETATM   11  C           1     -22.644  -3.582 -10.644  0.00  0.00     0.037 A 
HETATM   12  C           1     -22.436  -3.765  -9.277  0.00  0.00     0.010 A 
BRANCH  10  13
HETATM   13  O           1     -21.815  -3.666 -12.875  0.00  0.00    -0.361 OA
HETATM   14  H           1     -20.948  -3.685 -13.316  0.00  0.00     0.217 HD
ENDBRANCH  10  13
ENDBRANCH   6   7
ENDBRANCH   5   6
BRANCH   5  15
HETATM   15  N           1     -22.719  -5.366  -5.886  0.00  0.00    -0.066 N 
HETATM   16  H           1     -23.501  -6.053  -5.968  0.00  0.00     0.275 HD
HETATM   17  H           1     -22.310  -5.417  -4.925  0.00  0.00     0.275 HD
HETATM   18  H           1     -23.082  -4.402  -6.060  0.00  0.00     0.275 HD
ENDBRANCH   5  15
ENDBRANCH   4   5
BRANCH   3  19
HETATM   19  C           1     -20.005  -8.285  -4.611  0.00  0.00     0.186 C 
BRANCH  19  20
HETATM   20  C           1     -20.271  -9.702  -5.056  0.00  0.00     0.196 C 
HETATM   21  O           1     -21.067  -9.924  -5.993  0.00  0.00    -0.646 OA
HETATM   22  O           1     -19.694 -10.654  -4.485  0.00  0.00    -0.646 OA
ENDBRANCH  19  20
BRANCH  19  23
HETATM   23  C           1     -20.104  -8.201  -3.094  0.00  0.00     0.045 C 
BRANCH  23  24
HETATM   24  C           1     -21.567  -8.264  -2.676  0.00  0.00     0.105 C 
BRANCH  24  25
HETATM   25  C           1     -21.985  -6.933  -2.101  0.00  0.00     0.215 C 
HETATM   26  O           1     -22.052  -5.961  -2.814  0.00  0.00    -0.274 OA
HETATM   27  N           1     -22.290  -6.828  -0.770  0.00  0.00    -0.370 N 
HETATM   28  H           1     -22.571  -5.936  -0.383  0.00  0.00     0.159 HD
HETATM   29  H           1     -22.234  -7.643  -0.172  0.00  0.00     0.159 HD
ENDBRANCH  24  25
ENDBRANCH  23  24
ENDBRANCH  19  23
ENDBRANCH   3  19
TORSDOF 10
ENDMDL
MODEL 7
REMARK VINA RESULT:      -7.1      2.083      3.132
REMARK  10 active torsions:
REMARK  status: ('A' for Active; 'I' for Inactive)
REMARK    1  A    between atoms: C_1  and  O_11 
REMARK    2  A    between atoms: C_2  and  C_3 
REMARK    3  A    between atoms: C_3  and  C_4 
REMARK    4  A    between atoms: C_3  and  N_25 
REMARK    5  A    between atoms: C_4  and  C_23 
REMARK       I    between atoms: C_6  and  N_17 
REMARK    6  A    between atoms: C_6  and  C_23 
REMARK    7  A    between atoms: C_9  and  C_10 
REMARK    8  A    between atoms: C_9  and  C_18 
REMARK    9  A    between atoms: C_10  and  C_27 
REMARK   10  A    between atoms: C_10  and  N_14 
REMARK       I    between atoms: N_25  and  C_27 
ROOT
HETATM    1  O           1     -20.618  -6.677  -7.143  0.00  0.00    -0.271 OA
HETATM    2  H           1     -22.542  -4.207  -6.945  0.00  0.00     0.163 HD
HETATM    3  N           1     -21.923  -4.880  -7.378  0.00  0.00    -0.345 N 
HETATM    4  C           1     -21.357  -5.874  -6.626  0.00  0.00     0.249 C 
ENDROOT
BRANCH   4   5
HETATM    5  C           1     -21.658  -5.967  -5.149  0.00  0.00     0.278 C 
BRANCH   5   6
HETATM    6  C           1     -20.902  -7.146  -4.550  0.00  0.00     0.081 C 
BRANCH   6   7
HETATM    7  C           1     -21.384  -7.389  -3.154  0.00  0.00    -0.056 A 
HETATM    8  C           1     -21.440  -8.690  -2.653  0.00  0.00     0.010 A 
HETATM    9  C           1     -21.888  -8.917  -1.351  0.00  0.00     0.037 A 
HETATM   10  C           1     -22.280  -7.844  -0.552  0.00  0.00     0.065 A 
HETATM   11  C           1     -22.224  -6.543  -1.052  0.00  0.00     0.037 A 
HETATM   12  C           1     -21.775  -6.317  -2.354  0.00  0.00     0.010 A 
BRANCH  10  13
HETATM   13  O           1     -22.716  -8.064   0.713  0.00  0.00    -0.361 OA
HETATM   14  H           1     -23.588  -7.643   0.807  0.00  0.00     0.217 HD
ENDBRANCH  10  13
ENDBRANCH   6   7
ENDBRANCH   5   6
BRANCH   5  15
HETATM   15  N           1     -23.132  -6.167  -4.952  0.00  0.00    -0.066 N 
HETATM   16  H           1     -23.586  -6.344  -5.876  0.00  0.00     0.275 HD
HETATM   17  H           1     -23.289  -6.986  -4.323  0.00  0.00     0.275 HD
HETATM   18  H           1     -23.544  -5.310  -4.520  0.00  0.00     0.275 HD
ENDBRANCH   5  15
ENDBRANCH   4   5
BRANCH   3  19
HETATM   19  C           1     -21.634  -4.790  -8.796  0.00  0.00     0.186 C 
BRANCH  19  20
HETATM   20  C           1     -20.187  -4.407  -8.991  0.00  0.00     0.196 C 
HETATM   21  O           1     -19.542  -4.872  -9.954  0.00  0.00    -0.646 OA
HETATM   22  O           1     -19.635  -3.623  -8.188  0.00  0.00    -0.646 OA
ENDBRANCH  19  20
BRANCH  19  23
HETATM   23  C           1     -22.529  -3.735  -9.431  0.00  0.00     0.045 C 
BRANCH  23  24
HETATM   24  C           1     -23.391  -4.380 -10.507  0.00  0.00     0.105 C 
BRANCH  24  25
HETATM   25  C           1     -24.652  -3.573 -10.695  0.00  0.00     0.215 C 
HETATM   26  O           1     -24.891  -3.065 -11.764  0.00  0.00    -0.274 OA
HETATM   27  N           1     -25.526  -3.417  -9.653  0.00  0.00    -0.370 N 
HETATM   28  H           1     -26.373  -2.876  -9.777  0.00  0.00     0.159 HD
HETATM   29  H           1     -25.326  -3.842  -8.756  0.00  0.00     0.159 HD
ENDBRANCH  24  25
ENDBRANCH  23  24
ENDBRANCH  19  23
ENDBRANCH   3  19
TORSDOF 10
ENDMDL
MODEL 8
REMARK VINA RESULT:      -6.8      2.799      8.059
REMARK  10 active torsions:
REMARK  status: ('A' for Active; 'I' for Inactive)
REMARK    1  A    between atoms: C_1  and  O_11 
REMARK    2  A    between atoms: C_2  and  C_3 
REMARK    3  A    between atoms: C_3  and  C_4 
REMARK    4  A    between atoms: C_3  and  N_25 
REMARK    5  A    between atoms: C_4  and  C_23 
REMARK       I    between atoms: C_6  and  N_17 
REMARK    6  A    between atoms: C_6  and  C_23 
REMARK    7  A    between atoms: C_9  and  C_10 
REMARK    8  A    between atoms: C_9  and  C_18 
REMARK    9  A    between atoms: C_10  and  C_27 
REMARK   10  A    between atoms: C_10  and  N_14 
REMARK       I    between atoms: N_25  and  C_27 
ROOT
HETATM    1  O           1     -22.821  -5.909  -5.585  0.00  0.00    -0.271 OA
HETATM    2  H           1     -19.893  -6.580  -4.685  0.00  0.00     0.163 HD
HETATM    3  N           1     -20.903  -6.635  -4.704  0.00  0.00    -0.345 N 
HETATM    4  C           1     -21.616  -5.843  -5.563  0.00  0.00     0.249 C 
ENDROOT
BRANCH   4   5
HETATM    5  C           1     -20.896  -4.886  -6.481  0.00  0.00     0.278 C 
BRANCH   5   6
HETATM    6  C           1     -20.609  -5.576  -7.809  0.00  0.00     0.081 C 
BRANCH   6   7
HETATM    7  C           1     -21.180  -4.762  -8.928  0.00  0.00    -0.056 A 
HETATM    8  C           1     -20.374  -4.399 -10.007  0.00  0.00     0.010 A 
HETATM    9  C           1     -20.905  -3.640 -11.050  0.00  0.00     0.037 A 
HETATM   10  C           1     -22.242  -3.244 -11.013  0.00  0.00     0.065 A 
HETATM   11  C           1     -23.048  -3.607  -9.934  0.00  0.00     0.037 A 
HETATM   12  C           1     -22.516  -4.366  -8.892  0.00  0.00     0.010 A 
BRANCH  10  13
HETATM   13  O           1     -22.758  -2.507 -12.026  0.00  0.00    -0.361 OA
HETATM   14  H           1     -22.315  -2.775 -12.849  0.00  0.00     0.217 HD
ENDBRANCH  10  13
ENDBRANCH   6   7
ENDBRANCH   5   6
BRANCH   5  15
HETATM   15  N           1     -19.602  -4.466  -5.849  0.00  0.00    -0.066 N 
HETATM   16  H           1     -19.661  -3.460  -5.570  0.00  0.00     0.275 HD
HETATM   17  H           1     -19.423  -5.052  -5.002  0.00  0.00     0.275 HD
HETATM   18  H           1     -18.822  -4.592  -6.532  0.00  0.00     0.275 HD
ENDBRANCH   5  15
ENDBRANCH   4   5
BRANCH   3  19
HETATM   19  C           1     -21.595  -7.554  -3.821  0.00  0.00     0.186 C 
BRANCH  19  20
HETATM   20  C           1     -21.656  -6.967  -2.432  0.00  0.00     0.196 C 
HETATM   21  O           1     -22.362  -5.960  -2.210  0.00  0.00    -0.646 OA
HETATM   22  O           1     -20.998  -7.487  -1.505  0.00  0.00    -0.646 OA
ENDBRANCH  19  20
BRANCH  19  23
HETATM   23  C           1     -20.846  -8.879  -3.779  0.00  0.00     0.045 C 
BRANCH  23  24
HETATM   24  C           1     -19.447  -8.691  -4.352  0.00  0.00     0.105 C 
BRANCH  24  25
HETATM   25  C           1     -19.124  -9.836  -5.281  0.00  0.00     0.215 C 
HETATM   26  O           1     -17.976 -10.164  -5.458  0.00  0.00    -0.274 OA
HETATM   27  N           1     -20.133 -10.503  -5.921  0.00  0.00    -0.370 N 
HETATM   28  H           1     -19.918 -11.271  -6.544  0.00  0.00     0.159 HD
HETATM   29  H           1     -21.096 -10.228  -5.772  0.00  0.00     0.159 HD
ENDBRANCH  24  25
ENDBRANCH  23  24
ENDBRANCH  19  23
ENDBRANCH   3  19
TORSDOF 10
ENDMDL
MODEL 9
REMARK VINA RESULT:      -6.8      2.762      8.606
REMARK  10 active torsions:
REMARK  status: ('A' for Active; 'I' for Inactive)
REMARK    1  A    between atoms: C_1  and  O_11 
REMARK    2  A    between atoms: C_2  and  C_3 
REMARK    3  A    between atoms: C_3  and  C_4 
REMARK    4  A    between atoms: C_3  and  N_25 
REMARK    5  A    between atoms: C_4  and  C_23 
REMARK       I    between atoms: C_6  and  N_17 
REMARK    6  A    between atoms: C_6  and  C_23 
REMARK    7  A    between atoms: C_9  and  C_10 
REMARK    8  A    between atoms: C_9  and  C_18 
REMARK    9  A    between atoms: C_10  and  C_27 
REMARK   10  A    between atoms: C_10  and  N_14 
REMARK       I    between atoms: N_25  and  C_27 
ROOT
HETATM    1  O           1     -22.799  -5.744  -5.580  0.00  0.00    -0.271 OA
HETATM    2  H           1     -19.890  -6.642  -4.822  0.00  0.00     0.163 HD
HETATM    3  N           1     -20.902  -6.622  -4.796  0.00  0.00    -0.345 N 
HETATM    4  C           1     -21.592  -5.767  -5.612  0.00  0.00     0.249 C 
ENDROOT
BRANCH   4   5
HETATM    5  C           1     -20.844  -4.854  -6.553  0.00  0.00     0.278 C 
BRANCH   5   6
HETATM    6  C           1     -20.609  -5.570  -7.877  0.00  0.00     0.081 C 
BRANCH   6   7
HETATM    7  C           1     -21.174  -4.749  -8.994  0.00  0.00    -0.056 A 
HETATM    8  C           1     -22.507  -4.342  -8.955  0.00  0.00     0.010 A 
HETATM    9  C           1     -23.034  -3.576  -9.997  0.00  0.00     0.037 A 
HETATM   10  C           1     -22.226  -3.219 -11.075  0.00  0.00     0.065 A 
HETATM   11  C           1     -20.893  -3.626 -11.115  0.00  0.00     0.037 A 
HETATM   12  C           1     -20.367  -4.391 -10.073  0.00  0.00     0.010 A 
BRANCH  10  13
HETATM   13  O           1     -22.737  -2.476 -12.087  0.00  0.00    -0.361 OA
HETATM   14  H           1     -22.029  -2.327 -12.738  0.00  0.00     0.217 HD
ENDBRANCH  10  13
ENDBRANCH   6   7
ENDBRANCH   5   6
BRANCH   5  15
HETATM   15  N           1     -19.524  -4.484  -5.944  0.00  0.00    -0.066 N 
HETATM   16  H           1     -19.534  -3.474  -5.676  0.00  0.00     0.275 HD
HETATM   17  H           1     -19.358  -5.068  -5.094  0.00  0.00     0.275 HD
HETATM   18  H           1     -18.761  -4.652  -6.638  0.00  0.00     0.275 HD
ENDBRANCH   5  15
ENDBRANCH   4   5
BRANCH   3  19
HETATM   19  C           1     -21.620  -7.500  -3.892  0.00  0.00     0.186 C 
BRANCH  19  20
HETATM   20  C           1     -21.634  -6.895  -2.509  0.00  0.00     0.196 C 
HETATM   21  O           1     -22.413  -5.954  -2.246  0.00  0.00    -0.646 OA
HETATM   22  O           1     -20.864  -7.335  -1.627  0.00  0.00    -0.646 OA
ENDBRANCH  19  20
BRANCH  19  23
HETATM   23  C           1     -20.929  -8.856  -3.846  0.00  0.00     0.045 C 
BRANCH  23  24
HETATM   24  C           1     -21.976  -9.961  -3.882  0.00  0.00     0.105 C 
BRANCH  24  25
HETATM   25  C           1     -22.059 -10.621  -2.527  0.00  0.00     0.215 C 
HETATM   26  O           1     -21.094 -10.635  -1.802  0.00  0.00    -0.274 OA
HETATM   27  N           1     -23.229 -11.204  -2.120  0.00  0.00    -0.370 N 
HETATM   28  H           1     -23.286 -11.646  -1.212  0.00  0.00     0.159 HD
HETATM   29  H           1     -24.038 -11.192  -2.729  0.00  0.00     0.159 HD
ENDBRANCH  24  25
ENDBRANCH  23  24
ENDBRANCH  19  23
ENDBRANCH   3  19
TORSDOF 10
ENDMDL
