MODEL 1
REMARK VINA RESULT:      -5.5      0.000      0.000
REMARK  6 active torsions:
REMARK  status: ('A' for Active; 'I' for Inactive)
REMARK    1  A    between atoms: C_1  and  C_10 
REMARK    2  A    between atoms: C_1  and  N_2 
REMARK    3  A    between atoms: C_6  and  C_7 
REMARK    4  A    between atoms: C_6  and  C_14 
REMARK    5  A    between atoms: C_6  and  N_11 
REMARK    6  A    between atoms: C_7  and  S_8 
REMARK       I    between atoms: C_10  and  N_11 
ROOT
HETATM    1  H           1     -24.144  -1.492 -12.442  0.00  0.00     0.163 HD
HETATM    2  C           1     -23.447  -2.087 -14.298  0.00  0.00     0.243 C 
HETATM    3  N           1     -23.608  -2.190 -12.942  0.00  0.00    -0.344 N 
HETATM    4  O           1     -22.806  -2.920 -14.895  0.00  0.00    -0.272 OA
ENDROOT
BRANCH   3   5
HETATM    5  C           1     -23.010  -3.298 -12.224  0.00  0.00     0.194 C 
BRANCH   5   6
HETATM    6  C           1     -21.802  -2.800 -11.440  0.00  0.00     0.106 C 
BRANCH   6   7
HETATM    7  S           1     -20.640  -4.170 -11.183  0.00  0.00    -0.180 SA
HETATM    8  H           1     -21.367  -5.096 -11.833  0.00  0.00     0.101 HD
ENDBRANCH   6   7
ENDBRANCH   5   6
BRANCH   5   9
HETATM    9  C           1     -24.023  -3.884 -11.270  0.00  0.00     0.197 C 
HETATM   10  O           1     -23.893  -5.058 -10.865  0.00  0.00    -0.646 OA
HETATM   11  O           1     -24.992  -3.193 -10.887  0.00  0.00    -0.646 OA
ENDBRANCH   5   9
ENDBRANCH   3   5
BRANCH   2  12
HETATM   12  C           1     -24.069  -0.934 -15.047  0.00  0.00     0.332 C 
BRANCH  12  13
HETATM   13  N           1     -23.085  -0.392 -16.040  0.00  0.00    -0.071 N 
HETATM   14  H           1     -22.298   0.073 -15.533  0.00  0.00     0.274 HD
HETATM   15  H           1     -22.709  -1.176 -16.621  0.00  0.00     0.274 HD
HETATM   16  H           1     -23.560   0.303 -16.658  0.00  0.00     0.274 HD
ENDBRANCH  12  13
ENDBRANCH   2  12
TORSDOF 6
ENDMDL
MODEL 2
REMARK VINA RESULT:      -5.0      7.543      7.996
REMARK  6 active torsions:
REMARK  status: ('A' for Active; 'I' for Inactive)
REMARK    1  A    between atoms: C_1  and  C_10 
REMARK    2  A    between atoms: C_1  and  N_2 
REMARK    3  A    between atoms: C_6  and  C_7 
REMARK    4  A    between atoms: C_6  and  C_14 
REMARK    5  A    between atoms: C_6  and  N_11 
REMARK    6  A    between atoms: C_7  and  S_8 
REMARK       I    between atoms: C_10  and  N_11 
ROOT
HETATM    1  H           1     -27.511  -7.896 -15.287  0.00  0.00     0.163 HD
HETATM    2  C           1     -26.320  -6.560 -16.325  0.00  0.00     0.243 C 
HETATM    3  N           1     -27.502  -7.155 -15.976  0.00  0.00    -0.344 N 
HETATM    4  O           1     -26.309  -5.676 -17.149  0.00  0.00    -0.272 OA
ENDROOT
BRANCH   3   5
HETATM    5  C           1     -28.741  -6.725 -16.595  0.00  0.00     0.194 C 
BRANCH   5   6
HETATM    6  C           1     -29.558  -7.947 -16.994  0.00  0.00     0.106 C 
BRANCH   6   7
HETATM    7  S           1     -30.211  -7.718 -18.672  0.00  0.00    -0.180 SA
HETATM    8  H           1     -30.551  -9.004 -18.867  0.00  0.00     0.101 HD
ENDBRANCH   6   7
ENDBRANCH   5   6
BRANCH   5   9
HETATM    9  C           1     -29.528  -5.890 -15.616  0.00  0.00     0.197 C 
HETATM   10  O           1     -30.461  -5.164 -16.021  0.00  0.00    -0.646 OA
HETATM   11  O           1     -29.246  -5.923 -14.398  0.00  0.00    -0.646 OA
ENDBRANCH   5   9
ENDBRANCH   3   5
BRANCH   2  12
HETATM   12  C           1     -25.030  -7.007 -15.682  0.00  0.00     0.332 C 
BRANCH  12  13
HETATM   13  N           1     -24.223  -7.793 -16.671  0.00  0.00    -0.071 N 
HETATM   14  H           1     -24.823  -8.531 -17.103  0.00  0.00     0.274 HD
HETATM   15  H           1     -23.867  -7.153 -17.417  0.00  0.00     0.274 HD
HETATM   16  H           1     -23.416  -8.242 -16.182  0.00  0.00     0.274 HD
ENDBRANCH  12  13
ENDBRANCH   2  12
TORSDOF 6
ENDMDL
MODEL 3
REMARK VINA RESULT:      -4.6      4.247      5.948
REMARK  6 active torsions:
REMARK  status: ('A' for Active; 'I' for Inactive)
REMARK    1  A    between atoms: C_1  and  C_10 
REMARK    2  A    between atoms: C_1  and  N_2 
REMARK    3  A    between atoms: C_6  and  C_7 
REMARK    4  A    between atoms: C_6  and  C_14 
REMARK    5  A    between atoms: C_6  and  N_11 
REMARK    6  A    between atoms: C_7  and  S_8 
REMARK       I    between atoms: C_10  and  N_11 
ROOT
HETATM    1  H           1     -22.337  -5.792  -8.903  0.00  0.00     0.163 HD
HETATM    2  C           1     -21.632  -4.442  -7.501  0.00  0.00     0.243 C 
HETATM    3  N           1     -22.224  -4.811  -8.679  0.00  0.00    -0.344 N 
HETATM    4  O           1     -21.496  -3.271  -7.234  0.00  0.00    -0.272 OA
ENDROOT
BRANCH   3   5
HETATM    5  C           1     -22.688  -3.797  -9.607  0.00  0.00     0.194 C 
BRANCH   5   6
HETATM    6  C           1     -22.092  -4.061 -10.984  0.00  0.00     0.106 C 
BRANCH   6   7
HETATM    7  S           1     -22.679  -2.798 -12.148  0.00  0.00    -0.180 SA
HETATM    8  H           1     -23.223  -3.659 -13.027  0.00  0.00     0.101 HD
ENDBRANCH   6   7
ENDBRANCH   5   6
BRANCH   5   9
HETATM    9  C           1     -24.194  -3.845  -9.691  0.00  0.00     0.197 C 
HETATM   10  O           1     -24.770  -4.915  -9.981  0.00  0.00    -0.646 OA
HETATM   11  O           1     -24.865  -2.813  -9.472  0.00  0.00    -0.646 OA
ENDBRANCH   5   9
ENDBRANCH   3   5
BRANCH   2  12
HETATM   12  C           1     -21.150  -5.496  -6.535  0.00  0.00     0.332 C 
BRANCH  12  13
HETATM   13  N           1     -20.063  -6.305  -7.179  0.00  0.00    -0.071 N 
HETATM   14  H           1     -20.381  -7.295  -7.284  0.00  0.00     0.274 HD
HETATM   15  H           1     -19.845  -5.908  -8.121  0.00  0.00     0.274 HD
HETATM   16  H           1     -19.207  -6.276  -6.581  0.00  0.00     0.274 HD
ENDBRANCH  12  13
ENDBRANCH   2  12
TORSDOF 6
ENDMDL
MODEL 4
REMARK VINA RESULT:      -4.5      1.968      2.137
REMARK  6 active torsions:
REMARK  status: ('A' for Active; 'I' for Inactive)
REMARK    1  A    between atoms: C_1  and  C_10 
REMARK    2  A    between atoms: C_1  and  N_2 
REMARK    3  A    between atoms: C_6  and  C_7 
REMARK    4  A    between atoms: C_6  and  C_14 
REMARK    5  A    between atoms: C_6  and  N_11 
REMARK    6  A    between atoms: C_7  and  S_8 
REMARK       I    between atoms: C_10  and  N_11 
ROOT
HETATM    1  H           1     -22.387  -2.104 -11.508  0.00  0.00     0.163 HD
HETATM    2  C           1     -23.493  -3.287 -12.797  0.00  0.00     0.243 C 
HETATM    3  N           1     -22.887  -2.978 -11.609  0.00  0.00    -0.344 N 
HETATM    4  O           1     -24.089  -4.331 -12.918  0.00  0.00    -0.272 OA
ENDROOT
BRANCH   3   5
HETATM    5  C           1     -22.963  -3.903 -10.495  0.00  0.00     0.194 C 
BRANCH   5   6
HETATM    6  C           1     -21.931  -3.514  -9.444  0.00  0.00     0.106 C 
BRANCH   6   7
HETATM    7  S           1     -21.769  -4.853  -8.230  0.00  0.00    -0.180 SA
HETATM    8  H           1     -23.051  -4.831  -7.824  0.00  0.00     0.101 HD
ENDBRANCH   6   7
ENDBRANCH   5   6
BRANCH   5   9
HETATM    9  C           1     -24.344  -3.848  -9.889  0.00  0.00     0.197 C 
HETATM   10  O           1     -25.019  -4.893  -9.777  0.00  0.00    -0.646 OA
HETATM   11  O           1     -24.813  -2.756  -9.500  0.00  0.00    -0.646 OA
ENDBRANCH   5   9
ENDBRANCH   3   5
BRANCH   2  12
HETATM   12  C           1     -23.415  -2.326 -13.958  0.00  0.00     0.332 C 
BRANCH  12  13
HETATM   13  N           1     -22.443  -2.845 -14.974  0.00  0.00    -0.071 N 
HETATM   14  H           1     -21.528  -3.047 -14.511  0.00  0.00     0.274 HD
HETATM   15  H           1     -22.819  -3.722 -15.400  0.00  0.00     0.274 HD
HETATM   16  H           1     -22.303  -2.127 -15.721  0.00  0.00     0.274 HD
ENDBRANCH  12  13
ENDBRANCH   2  12
TORSDOF 6
ENDMDL
MODEL 5
REMARK VINA RESULT:      -4.4      2.841      3.926
REMARK  6 active torsions:
REMARK  status: ('A' for Active; 'I' for Inactive)
REMARK    1  A    between atoms: C_1  and  C_10 
REMARK    2  A    between atoms: C_1  and  N_2 
REMARK    3  A    between atoms: C_6  and  C_7 
REMARK    4  A    between atoms: C_6  and  C_14 
REMARK    5  A    between atoms: C_6  and  N_11 
REMARK    6  A    between atoms: C_7  and  S_8 
REMARK       I    between atoms: C_10  and  N_11 
ROOT
HETATM    1  H           1     -22.567  -2.660  -9.814  0.00  0.00     0.163 HD
HETATM    2  C           1     -23.647  -4.145 -10.769  0.00  0.00     0.243 C 
HETATM    3  N           1     -22.730  -3.657  -9.877  0.00  0.00    -0.344 N 
HETATM    4  O           1     -23.842  -5.335 -10.845  0.00  0.00    -0.272 OA
ENDROOT
BRANCH   3   5
HETATM    5  C           1     -21.993  -4.568  -9.024  0.00  0.00     0.194 C 
BRANCH   5   6
HETATM    6  C           1     -20.512  -4.501  -9.373  0.00  0.00     0.106 C 
BRANCH   6   7
HETATM    7  S           1     -20.317  -3.903 -11.076  0.00  0.00    -0.180 SA
HETATM    8  H           1     -19.901  -5.073 -11.590  0.00  0.00     0.101 HD
ENDBRANCH   6   7
ENDBRANCH   5   6
BRANCH   5   9
HETATM    9  C           1     -22.189  -4.174  -7.581  0.00  0.00     0.197 C 
HETATM   10  O           1     -23.217  -4.535  -6.968  0.00  0.00    -0.646 OA
HETATM   11  O           1     -21.323  -3.486  -6.998  0.00  0.00    -0.646 OA
ENDBRANCH   5   9
ENDBRANCH   3   5
BRANCH   2  12
HETATM   12  C           1     -24.415  -3.198 -11.658  0.00  0.00     0.332 C 
BRANCH  12  13
HETATM   13  N           1     -23.454  -2.365 -12.452  0.00  0.00    -0.071 N 
HETATM   14  H           1     -23.224  -2.854 -13.346  0.00  0.00     0.274 HD
HETATM   15  H           1     -23.889  -1.438 -12.664  0.00  0.00     0.274 HD
HETATM   16  H           1     -22.579  -2.221 -11.899  0.00  0.00     0.274 HD
ENDBRANCH  12  13
ENDBRANCH   2  12
TORSDOF 6
ENDMDL
MODEL 6
REMARK VINA RESULT:      -4.3      8.008      8.348
REMARK  6 active torsions:
REMARK  status: ('A' for Active; 'I' for Inactive)
REMARK    1  A    between atoms: C_1  and  C_10 
REMARK    2  A    between atoms: C_1  and  N_2 
REMARK    3  A    between atoms: C_6  and  C_7 
REMARK    4  A    between atoms: C_6  and  C_14 
REMARK    5  A    between atoms: C_6  and  N_11 
REMARK    6  A    between atoms: C_7  and  S_8 
REMARK       I    between atoms: C_10  and  N_11 
ROOT
HETATM    1  H           1     -26.850  -7.625 -18.169  0.00  0.00     0.163 HD
HETATM    2  C           1     -27.659  -6.036 -19.221  0.00  0.00     0.243 C 
HETATM    3  N           1     -27.512  -6.860 -18.137  0.00  0.00    -0.344 N 
HETATM    4  O           1     -28.450  -5.124 -19.183  0.00  0.00    -0.272 OA
ENDROOT
BRANCH   3   5
HETATM    5  C           1     -28.305  -6.637 -16.944  0.00  0.00     0.194 C 
BRANCH   5   6
HETATM    6  C           1     -29.471  -7.617 -16.922  0.00  0.00     0.106 C 
BRANCH   6   7
HETATM    7  S           1     -30.992  -6.760 -17.419  0.00  0.00    -0.180 SA
HETATM    8  H           1     -31.796  -7.376 -16.536  0.00  0.00     0.101 HD
ENDBRANCH   6   7
ENDBRANCH   5   6
BRANCH   5   9
HETATM    9  C           1     -27.445  -6.848 -15.723  0.00  0.00     0.197 C 
HETATM   10  O           1     -26.428  -6.145 -15.545  0.00  0.00    -0.646 OA
HETATM   11  O           1     -27.751  -7.728 -14.888  0.00  0.00    -0.646 OA
ENDBRANCH   5   9
ENDBRANCH   3   5
BRANCH   2  12
HETATM   12  C           1     -26.834  -6.268 -20.463  0.00  0.00     0.332 C 
BRANCH  12  13
HETATM   13  N           1     -26.387  -7.698 -20.509  0.00  0.00    -0.071 N 
HETATM   14  H           1     -25.916  -7.888 -21.422  0.00  0.00     0.274 HD
HETATM   15  H           1     -25.717  -7.880 -19.727  0.00  0.00     0.274 HD
HETATM   16  H           1     -27.217  -8.325 -20.409  0.00  0.00     0.274 HD
ENDBRANCH  12  13
ENDBRANCH   2  12
TORSDOF 6
ENDMDL
MODEL 7
REMARK VINA RESULT:      -4.3      4.123      5.378
REMARK  6 active torsions:
REMARK  status: ('A' for Active; 'I' for Inactive)
REMARK    1  A    between atoms: C_1  and  C_10 
REMARK    2  A    between atoms: C_1  and  N_2 
REMARK    3  A    between atoms: C_6  and  C_7 
REMARK    4  A    between atoms: C_6  and  C_14 
REMARK    5  A    between atoms: C_6  and  N_11 
REMARK    6  A    between atoms: C_7  and  S_8 
REMARK       I    between atoms: C_10  and  N_11 
ROOT
HETATM    1  H           1     -23.842  -3.520  -7.720  0.00  0.00     0.163 HD
HETATM    2  C           1     -23.233  -4.053  -9.625  0.00  0.00     0.243 C 
HETATM    3  N           1     -23.144  -4.016  -8.259  0.00  0.00    -0.344 N 
HETATM    4  O           1     -22.399  -4.645 -10.269  0.00  0.00    -0.272 OA
ENDROOT
BRANCH   3   5
HETATM    5  C           1     -22.050  -4.688  -7.586  0.00  0.00     0.194 C 
BRANCH   5   6
HETATM    6  C           1     -20.952  -3.679  -7.274  0.00  0.00     0.106 C 
BRANCH   6   7
HETATM    7  S           1     -19.344  -4.366  -7.759  0.00  0.00    -0.180 SA
HETATM    8  H           1     -19.678  -5.654  -7.572  0.00  0.00     0.101 HD
ENDBRANCH   6   7
ENDBRANCH   5   6
BRANCH   5   9
HETATM    9  C           1     -22.551  -5.299  -6.300  0.00  0.00     0.197 C 
HETATM   10  O           1     -23.763  -5.227  -6.004  0.00  0.00    -0.646 OA
HETATM   11  O           1     -21.754  -5.879  -5.531  0.00  0.00    -0.646 OA
ENDBRANCH   5   9
ENDBRANCH   3   5
BRANCH   2  12
HETATM   12  C           1     -24.371  -3.354 -10.327  0.00  0.00     0.332 C 
BRANCH  12  13
HETATM   13  N           1     -25.653  -3.629  -9.600  0.00  0.00    -0.071 N 
HETATM   14  H           1     -26.298  -4.168 -10.220  0.00  0.00     0.274 HD
HETATM   15  H           1     -25.452  -4.187  -8.739  0.00  0.00     0.274 HD
HETATM   16  H           1     -26.102  -2.725  -9.332  0.00  0.00     0.274 HD
ENDBRANCH  12  13
ENDBRANCH   2  12
TORSDOF 6
ENDMDL
MODEL 8
REMARK VINA RESULT:      -4.2      3.434      4.298
REMARK  6 active torsions:
REMARK  status: ('A' for Active; 'I' for Inactive)
REMARK    1  A    between atoms: C_1  and  C_10 
REMARK    2  A    between atoms: C_1  and  N_2 
REMARK    3  A    between atoms: C_6  and  C_7 
REMARK    4  A    between atoms: C_6  and  C_14 
REMARK    5  A    between atoms: C_6  and  N_11 
REMARK    6  A    between atoms: C_7  and  S_8 
REMARK       I    between atoms: C_10  and  N_11 
ROOT
HETATM    1  H           1     -20.823  -2.918  -9.853  0.00  0.00     0.163 HD
HETATM    2  C           1     -22.409  -3.809 -10.840  0.00  0.00     0.243 C 
HETATM    3  N           1     -21.482  -3.685  -9.840  0.00  0.00    -0.344 N 
HETATM    4  O           1     -23.196  -4.726 -10.824  0.00  0.00    -0.272 OA
ENDROOT
BRANCH   3   5
HETATM    5  C           1     -21.445  -4.655  -8.762  0.00  0.00     0.194 C 
BRANCH   5   6
HETATM    6  C           1     -19.997  -5.018  -8.458  0.00  0.00     0.106 C 
BRANCH   6   7
HETATM    7  S           1     -19.933  -6.054  -6.968  0.00  0.00    -0.180 SA
HETATM    8  H           1     -20.539  -7.123  -7.514  0.00  0.00     0.101 HD
ENDBRANCH   6   7
ENDBRANCH   5   6
BRANCH   5   9
HETATM    9  C           1     -22.085  -4.062  -7.531  0.00  0.00     0.197 C 
HETATM   10  O           1     -21.506  -3.148  -6.904  0.00  0.00    -0.646 OA
HETATM   11  O           1     -23.193  -4.485  -7.137  0.00  0.00    -0.646 OA
ENDBRANCH   5   9
ENDBRANCH   3   5
BRANCH   2  12
HETATM   12  C           1     -22.448  -2.801 -11.962  0.00  0.00     0.332 C 
BRANCH  12  13
HETATM   13  N           1     -22.095  -3.475 -13.254  0.00  0.00    -0.071 N 
HETATM   14  H           1     -21.500  -2.836 -13.829  0.00  0.00     0.274 HD
HETATM   15  H           1     -21.567  -4.355 -13.054  0.00  0.00     0.274 HD
HETATM   16  H           1     -22.969  -3.704 -13.778  0.00  0.00     0.274 HD
ENDBRANCH  12  13
ENDBRANCH   2  12
TORSDOF 6
ENDMDL
MODEL 9
REMARK VINA RESULT:      -4.1      8.350      8.955
REMARK  6 active torsions:
REMARK  status: ('A' for Active; 'I' for Inactive)
REMARK    1  A    between atoms: C_1  and  C_10 
REMARK    2  A    between atoms: C_1  and  N_2 
REMARK    3  A    between atoms: C_6  and  C_7 
REMARK    4  A    between atoms: C_6  and  C_14 
REMARK    5  A    between atoms: C_6  and  N_11 
REMARK    6  A    between atoms: C_7  and  S_8 
REMARK       I    between atoms: C_10  and  N_11 
ROOT
HETATM    1  H           1     -29.367  -5.454 -17.295  0.00  0.00     0.163 HD
HETATM    2  C           1     -30.170  -7.241 -17.963  0.00  0.00     0.243 C 
HETATM    3  N           1     -29.160  -6.348 -17.723  0.00  0.00    -0.344 N 
HETATM    4  O           1     -29.923  -8.307 -18.476  0.00  0.00    -0.272 OA
ENDROOT
BRANCH   3   5
HETATM    5  C           1     -27.796  -6.681 -18.084  0.00  0.00     0.194 C 
BRANCH   5   6
HETATM    6  C           1     -27.413  -5.935 -19.356  0.00  0.00     0.106 C 
BRANCH   6   7
HETATM    7  S           1     -26.507  -7.052 -20.463  0.00  0.00    -0.180 SA
HETATM    8  H           1     -26.684  -6.321 -21.577  0.00  0.00     0.101 HD
ENDBRANCH   6   7
ENDBRANCH   5   6
BRANCH   5   9
HETATM    9  C           1     -26.868  -6.279 -16.965  0.00  0.00     0.197 C 
HETATM   10  O           1     -27.332  -5.985 -15.843  0.00  0.00    -0.646 OA
HETATM   11  O           1     -25.634  -6.239 -17.160  0.00  0.00    -0.646 OA
ENDBRANCH   5   9
ENDBRANCH   3   5
BRANCH   2  12
HETATM   12  C           1     -31.590  -6.895 -17.588  0.00  0.00     0.332 C 
BRANCH  12  13
HETATM   13  N           1     -31.600  -5.636 -16.773  0.00  0.00    -0.071 N 
HETATM   14  H           1     -32.315  -4.978 -17.158  0.00  0.00     0.274 HD
HETATM   15  H           1     -31.836  -5.865 -15.781  0.00  0.00     0.274 HD
HETATM   16  H           1     -30.657  -5.188 -16.813  0.00  0.00     0.274 HD
ENDBRANCH  12  13
ENDBRANCH   2  12
TORSDOF 6
ENDMDL
