MODEL 1
REMARK VINA RESULT:      -6.2      0.000      0.000
REMARK  9 active torsions:
REMARK  status: ('A' for Active; 'I' for Inactive)
REMARK    1  A    between atoms: N_2  and  C_20 
REMARK       I    between atoms: N_2  and  C_3 
REMARK    2  A    between atoms: C_3  and  C_4 
REMARK    3  A    between atoms: C_4  and  C_5 
REMARK    4  A    between atoms: C_4  and  N_6 
REMARK    5  A    between atoms: C_5  and  S_9 
REMARK       I    between atoms: C_13  and  N_23 
REMARK    6  A    between atoms: C_13  and  C_22 
REMARK    7  A    between atoms: C_19  and  C_20 
REMARK    8  A    between atoms: C_20  and  C_21 
REMARK    9  A    between atoms: C_21  and  C_22 
ROOT
HETATM    1  N           1     -34.985  -1.680 -13.168  0.00  0.00    -0.345 N 
HETATM    2  C           1     -34.323  -2.534 -12.328  0.00  0.00     0.249 C 
HETATM    3  O           1     -33.845  -2.120 -11.298  0.00  0.00    -0.271 OA
HETATM    4  H           1     -35.385  -2.027 -14.030  0.00  0.00     0.163 HD
ENDROOT
BRANCH   1   5
HETATM    5  C           1     -35.116  -0.278 -12.820  0.00  0.00     0.186 C 
BRANCH   5   6
HETATM    6  C           1     -36.340  -0.085 -11.960  0.00  0.00     0.196 C 
HETATM    7  O           1     -37.463  -0.438 -12.383  0.00  0.00    -0.646 OA
HETATM    8  O           1     -36.234   0.426 -10.825  0.00  0.00    -0.646 OA
ENDBRANCH   5   6
BRANCH   5   9
HETATM    9  C           1     -35.251   0.549 -14.092  0.00  0.00     0.045 C 
BRANCH   9  10
HETATM   10  C           1     -35.473  -0.377 -15.280  0.00  0.00     0.105 C 
BRANCH  10  11
HETATM   11  C           1     -36.841  -0.126 -15.866  0.00  0.00     0.215 C 
HETATM   12  O           1     -37.174  -0.682 -16.885  0.00  0.00    -0.274 OA
HETATM   13  N           1     -37.705   0.733 -15.241  0.00  0.00    -0.370 N 
HETATM   14  H           1     -37.427   1.199 -14.387  0.00  0.00     0.159 HD
HETATM   15  H           1     -38.623   0.902 -15.634  0.00  0.00     0.159 HD
ENDBRANCH  10  11
ENDBRANCH   9  10
ENDBRANCH   5   9
ENDBRANCH   1   5
BRANCH   2  16
HETATM   16  C           1     -34.188  -3.993 -12.689  0.00  0.00     0.283 C 
BRANCH  16  17
HETATM   17  C           1     -33.221  -4.668 -11.724  0.00  0.00     0.113 C 
BRANCH  17  18
HETATM   18  S           1     -34.096  -5.955 -10.790  0.00  0.00    -0.180 SA
HETATM   19  H           1     -33.024  -6.744 -10.599  0.00  0.00     0.101 HD
ENDBRANCH  17  18
ENDBRANCH  16  17
BRANCH  16  20
HETATM   20  N           1     -33.662  -4.114 -14.088  0.00  0.00    -0.066 N 
HETATM   21  H           1     -32.701  -4.527 -14.066  0.00  0.00     0.275 HD
HETATM   22  H           1     -34.293  -4.733 -14.645  0.00  0.00     0.275 HD
HETATM   23  H           1     -33.623  -3.168 -14.529  0.00  0.00     0.275 HD
ENDBRANCH  16  20
ENDBRANCH   2  16
TORSDOF 9
ENDMDL
MODEL 2
REMARK VINA RESULT:      -6.1     12.340     13.857
REMARK  9 active torsions:
REMARK  status: ('A' for Active; 'I' for Inactive)
REMARK    1  A    between atoms: N_2  and  C_20 
REMARK       I    between atoms: N_2  and  C_3 
REMARK    2  A    between atoms: C_3  and  C_4 
REMARK    3  A    between atoms: C_4  and  C_5 
REMARK    4  A    between atoms: C_4  and  N_6 
REMARK    5  A    between atoms: C_5  and  S_9 
REMARK       I    between atoms: C_13  and  N_23 
REMARK    6  A    between atoms: C_13  and  C_22 
REMARK    7  A    between atoms: C_19  and  C_20 
REMARK    8  A    between atoms: C_20  and  C_21 
REMARK    9  A    between atoms: C_21  and  C_22 
ROOT
HETATM    1  N           1     -22.220  -4.829  -8.901  0.00  0.00    -0.345 N 
HETATM    2  C           1     -21.653  -4.554  -7.685  0.00  0.00     0.249 C 
HETATM    3  O           1     -21.585  -3.413  -7.295  0.00  0.00    -0.271 OA
HETATM    4  H           1     -22.277  -5.785  -9.228  0.00  0.00     0.163 HD
ENDROOT
BRANCH   1   5
HETATM    5  C           1     -22.741  -3.751  -9.719  0.00  0.00     0.186 C 
BRANCH   5   6
HETATM    6  C           1     -24.249  -3.809  -9.726  0.00  0.00     0.196 C 
HETATM    7  O           1     -24.915  -2.774  -9.509  0.00  0.00    -0.646 OA
HETATM    8  O           1     -24.832  -4.891  -9.951  0.00  0.00    -0.646 OA
ENDBRANCH   5   6
BRANCH   5   9
HETATM    9  C           1     -22.219  -3.896 -11.142  0.00  0.00     0.045 C 
BRANCH   9  10
HETATM   10  C           1     -22.498  -2.617 -11.919  0.00  0.00     0.105 C 
BRANCH  10  11
HETATM   11  C           1     -23.235  -2.952 -13.193  0.00  0.00     0.215 C 
HETATM   12  O           1     -24.431  -3.123 -13.172  0.00  0.00    -0.274 OA
HETATM   13  N           1     -22.548  -3.063 -14.371  0.00  0.00    -0.370 N 
HETATM   14  H           1     -21.547  -2.919 -14.389  0.00  0.00     0.159 HD
HETATM   15  H           1     -23.042  -3.288 -15.226  0.00  0.00     0.159 HD
ENDBRANCH  10  11
ENDBRANCH   9  10
ENDBRANCH   5   9
ENDBRANCH   1   5
BRANCH   2  16
HETATM   16  C           1     -21.112  -5.676  -6.834  0.00  0.00     0.283 C 
BRANCH  16  17
HETATM   17  C           1     -20.741  -5.137  -5.458  0.00  0.00     0.113 C 
BRANCH  17  18
HETATM   18  S           1     -21.378  -6.254  -4.177  0.00  0.00    -0.180 SA
HETATM   19  H           1     -20.176  -6.657  -3.730  0.00  0.00     0.101 HD
ENDBRANCH  17  18
ENDBRANCH  16  17
BRANCH  16  20
HETATM   20  N           1     -19.893  -6.256  -7.488  0.00  0.00    -0.066 N 
HETATM   21  H           1     -20.173  -6.774  -8.351  0.00  0.00     0.275 HD
HETATM   22  H           1     -19.235  -5.485  -7.743  0.00  0.00     0.275 HD
HETATM   23  H           1     -19.421  -6.913  -6.826  0.00  0.00     0.275 HD
ENDBRANCH  16  20
ENDBRANCH   2  16
TORSDOF 9
ENDMDL
MODEL 3
REMARK VINA RESULT:      -5.1     13.207     15.547
REMARK  9 active torsions:
REMARK  status: ('A' for Active; 'I' for Inactive)
REMARK    1  A    between atoms: N_2  and  C_20 
REMARK       I    between atoms: N_2  and  C_3 
REMARK    2  A    between atoms: C_3  and  C_4 
REMARK    3  A    between atoms: C_4  and  C_5 
REMARK    4  A    between atoms: C_4  and  N_6 
REMARK    5  A    between atoms: C_5  and  S_9 
REMARK       I    between atoms: C_13  and  N_23 
REMARK    6  A    between atoms: C_13  and  C_22 
REMARK    7  A    between atoms: C_19  and  C_20 
REMARK    8  A    between atoms: C_20  and  C_21 
REMARK    9  A    between atoms: C_21  and  C_22 
ROOT
HETATM    1  N           1     -21.366  -4.977  -6.584  0.00  0.00    -0.345 N 
HETATM    2  C           1     -21.223  -6.224  -6.037  0.00  0.00     0.249 C 
HETATM    3  O           1     -21.260  -7.202  -6.745  0.00  0.00    -0.271 OA
HETATM    4  H           1     -21.335  -4.157  -5.991  0.00  0.00     0.163 HD
ENDROOT
BRANCH   1   5
HETATM    5  C           1     -21.559  -4.830  -8.013  0.00  0.00     0.186 C 
BRANCH   5   6
HETATM    6  C           1     -20.233  -4.545  -8.674  0.00  0.00     0.196 C 
HETATM    7  O           1     -19.251  -4.201  -7.980  0.00  0.00    -0.646 OA
HETATM    8  O           1     -20.114  -4.655  -9.913  0.00  0.00    -0.646 OA
ENDBRANCH   5   6
BRANCH   5   9
HETATM    9  C           1     -22.518  -3.677  -8.280  0.00  0.00     0.045 C 
BRANCH   9  10
HETATM   10  C           1     -23.750  -4.198  -9.009  0.00  0.00     0.105 C 
BRANCH  10  11
HETATM   11  C           1     -23.872  -3.510 -10.347  0.00  0.00     0.215 C 
HETATM   12  O           1     -24.959  -3.196 -10.768  0.00  0.00    -0.274 OA
HETATM   13  N           1     -22.749  -3.243 -11.082  0.00  0.00    -0.370 N 
HETATM   14  H           1     -21.838  -3.507 -10.730  0.00  0.00     0.159 HD
HETATM   15  H           1     -22.830  -2.782 -11.980  0.00  0.00     0.159 HD
ENDBRANCH  10  11
ENDBRANCH   9  10
ENDBRANCH   5   9
ENDBRANCH   1   5
BRANCH   2  16
HETATM   16  C           1     -21.020  -6.376  -4.549  0.00  0.00     0.283 C 
BRANCH  16  17
HETATM   17  C           1     -20.528  -7.785  -4.245  0.00  0.00     0.113 C 
BRANCH  17  18
HETATM   18  S           1     -20.693  -8.115  -2.468  0.00  0.00    -0.180 SA
HETATM   19  H           1     -21.940  -7.629  -2.349  0.00  0.00     0.101 HD
ENDBRANCH  17  18
ENDBRANCH  16  17
BRANCH  16  20
HETATM   20  N           1     -22.322  -6.139  -3.842  0.00  0.00    -0.066 N 
HETATM   21  H           1     -22.719  -5.219  -4.141  0.00  0.00     0.275 HD
HETATM   22  H           1     -22.993  -6.902  -4.082  0.00  0.00     0.275 HD
HETATM   23  H           1     -22.160  -6.128  -2.809  0.00  0.00     0.275 HD
ENDBRANCH  16  20
ENDBRANCH   2  16
TORSDOF 9
ENDMDL
MODEL 4
REMARK VINA RESULT:      -5.0     15.691     17.913
REMARK  9 active torsions:
REMARK  status: ('A' for Active; 'I' for Inactive)
REMARK    1  A    between atoms: N_2  and  C_20 
REMARK       I    between atoms: N_2  and  C_3 
REMARK    2  A    between atoms: C_3  and  C_4 
REMARK    3  A    between atoms: C_4  and  C_5 
REMARK    4  A    between atoms: C_4  and  N_6 
REMARK    5  A    between atoms: C_5  and  S_9 
REMARK       I    between atoms: C_13  and  N_23 
REMARK    6  A    between atoms: C_13  and  C_22 
REMARK    7  A    between atoms: C_19  and  C_20 
REMARK    8  A    between atoms: C_20  and  C_21 
REMARK    9  A    between atoms: C_21  and  C_22 
ROOT
HETATM    1  N           1     -21.174  -6.428  -6.340  0.00  0.00    -0.345 N 
HETATM    2  C           1     -21.015  -5.135  -6.761  0.00  0.00     0.249 C 
HETATM    3  O           1     -20.519  -4.316  -6.024  0.00  0.00    -0.271 OA
HETATM    4  H           1     -21.590  -7.113  -6.958  0.00  0.00     0.163 HD
ENDROOT
BRANCH   1   5
HETATM    5  C           1     -20.745  -6.816  -5.011  0.00  0.00     0.186 C 
BRANCH   5   6
HETATM    6  C           1     -20.143  -8.198  -5.060  0.00  0.00     0.196 C 
HETATM    7  O           1     -19.216  -8.448  -5.862  0.00  0.00    -0.646 OA
HETATM    8  O           1     -20.568  -9.094  -4.300  0.00  0.00    -0.646 OA
ENDBRANCH   5   6
BRANCH   5   9
HETATM    9  C           1     -21.943  -6.816  -4.071  0.00  0.00     0.045 C 
BRANCH   9  10
HETATM   10  C           1     -21.574  -6.103  -2.776  0.00  0.00     0.105 C 
BRANCH  10  11
HETATM   11  C           1     -21.840  -7.017  -1.605  0.00  0.00     0.215 C 
HETATM   12  O           1     -22.734  -6.764  -0.832  0.00  0.00    -0.274 OA
HETATM   13  N           1     -21.069  -8.132  -1.418  0.00  0.00    -0.370 N 
HETATM   14  H           1     -20.320  -8.344  -2.066  0.00  0.00     0.159 HD
HETATM   15  H           1     -21.247  -8.745  -0.633  0.00  0.00     0.159 HD
ENDBRANCH  10  11
ENDBRANCH   9  10
ENDBRANCH   5   9
ENDBRANCH   1   5
BRANCH   2  16
HETATM   16  C           1     -21.461  -4.731  -8.145  0.00  0.00     0.283 C 
BRANCH  16  17
HETATM   17  C           1     -20.242  -4.388  -8.992  0.00  0.00     0.113 C 
BRANCH  17  18
HETATM   18  S           1     -20.748  -4.163 -10.720  0.00  0.00    -0.180 SA
HETATM   19  H           1     -20.721  -5.467 -11.046  0.00  0.00     0.101 HD
ENDBRANCH  17  18
ENDBRANCH  16  17
BRANCH  16  20
HETATM   20  N           1     -22.357  -3.532  -8.051  0.00  0.00    -0.066 N 
HETATM   21  H           1     -22.697  -3.274  -9.006  0.00  0.00     0.275 HD
HETATM   22  H           1     -23.175  -3.755  -7.440  0.00  0.00     0.275 HD
HETATM   23  H           1     -21.825  -2.731  -7.644  0.00  0.00     0.275 HD
ENDBRANCH  16  20
ENDBRANCH   2  16
TORSDOF 9
ENDMDL
MODEL 5
REMARK VINA RESULT:      -4.8      9.688     11.495
REMARK  9 active torsions:
REMARK  status: ('A' for Active; 'I' for Inactive)
REMARK    1  A    between atoms: N_2  and  C_20 
REMARK       I    between atoms: N_2  and  C_3 
REMARK    2  A    between atoms: C_3  and  C_4 
REMARK    3  A    between atoms: C_4  and  C_5 
REMARK    4  A    between atoms: C_4  and  N_6 
REMARK    5  A    between atoms: C_5  and  S_9 
REMARK       I    between atoms: C_13  and  N_23 
REMARK    6  A    between atoms: C_13  and  C_22 
REMARK    7  A    between atoms: C_19  and  C_20 
REMARK    8  A    between atoms: C_20  and  C_21 
REMARK    9  A    between atoms: C_21  and  C_22 
ROOT
HETATM    1  N           1     -28.751  -6.145 -18.461  0.00  0.00    -0.345 N 
HETATM    2  C           1     -29.822  -6.845 -17.974  0.00  0.00     0.249 C 
HETATM    3  O           1     -29.695  -8.006 -17.666  0.00  0.00    -0.271 OA
HETATM    4  H           1     -28.857  -5.172 -18.718  0.00  0.00     0.163 HD
ENDROOT
BRANCH   1   5
HETATM    5  C           1     -27.464  -6.797 -18.606  0.00  0.00     0.186 C 
BRANCH   5   6
HETATM    6  C           1     -26.530  -6.312 -17.524  0.00  0.00     0.196 C 
HETATM    7  O           1     -25.293  -6.364 -17.697  0.00  0.00    -0.646 OA
HETATM    8  O           1     -26.992  -5.858 -16.455  0.00  0.00    -0.646 OA
ENDBRANCH   5   6
BRANCH   5   9
HETATM    9  C           1     -26.877  -6.463 -19.971  0.00  0.00     0.045 C 
BRANCH   9  10
HETATM   10  C           1     -26.629  -7.750 -20.746  0.00  0.00     0.105 C 
BRANCH  10  11
HETATM   11  C           1     -25.154  -7.890 -21.032  0.00  0.00     0.215 C 
HETATM   12  O           1     -24.773  -8.085 -22.162  0.00  0.00    -0.274 OA
HETATM   13  N           1     -24.248  -7.796 -20.010  0.00  0.00    -0.370 N 
HETATM   14  H           1     -24.567  -7.633 -19.064  0.00  0.00     0.159 HD
HETATM   15  H           1     -23.258  -7.890 -20.202  0.00  0.00     0.159 HD
ENDBRANCH  10  11
ENDBRANCH   9  10
ENDBRANCH   5   9
ENDBRANCH   1   5
BRANCH   2  16
HETATM   16  C           1     -31.161  -6.166 -17.822  0.00  0.00     0.283 C 
BRANCH  16  17
HETATM   17  C           1     -31.037  -5.013 -16.835  0.00  0.00     0.113 C 
BRANCH  17  18
HETATM   18  S           1     -32.276  -3.745 -17.224  0.00  0.00    -0.180 SA
HETATM   19  H           1     -31.655  -2.739 -16.582  0.00  0.00     0.101 HD
ENDBRANCH  17  18
ENDBRANCH  16  17
BRANCH  16  20
HETATM   20  N           1     -32.167  -7.154 -17.312  0.00  0.00    -0.066 N 
HETATM   21  H           1     -33.067  -7.036 -17.829  0.00  0.00     0.275 HD
HETATM   22  H           1     -31.807  -8.124 -17.457  0.00  0.00     0.275 HD
HETATM   23  H           1     -32.329  -6.992 -16.292  0.00  0.00     0.275 HD
ENDBRANCH  16  20
ENDBRANCH   2  16
TORSDOF 9
ENDMDL
MODEL 6
REMARK VINA RESULT:      -4.5     15.778     18.488
REMARK  9 active torsions:
REMARK  status: ('A' for Active; 'I' for Inactive)
REMARK    1  A    between atoms: N_2  and  C_20 
REMARK       I    between atoms: N_2  and  C_3 
REMARK    2  A    between atoms: C_3  and  C_4 
REMARK    3  A    between atoms: C_4  and  C_5 
REMARK    4  A    between atoms: C_4  and  N_6 
REMARK    5  A    between atoms: C_5  and  S_9 
REMARK       I    between atoms: C_13  and  N_23 
REMARK    6  A    between atoms: C_13  and  C_22 
REMARK    7  A    between atoms: C_19  and  C_20 
REMARK    8  A    between atoms: C_20  and  C_21 
REMARK    9  A    between atoms: C_21  and  C_22 
ROOT
HETATM    1  N           1     -20.825  -6.611  -4.904  0.00  0.00    -0.345 N 
HETATM    2  C           1     -21.459  -5.730  -5.739  0.00  0.00     0.249 C 
HETATM    3  O           1     -22.664  -5.648  -5.726  0.00  0.00    -0.271 OA
HETATM    4  H           1     -19.815  -6.680  -4.914  0.00  0.00     0.163 HD
ENDROOT
BRANCH   1   5
HETATM    5  C           1     -21.599  -7.443  -4.004  0.00  0.00     0.186 C 
BRANCH   5   6
HETATM    6  C           1     -21.556  -6.855  -2.614  0.00  0.00     0.196 C 
HETATM    7  O           1     -20.791  -7.343  -1.754  0.00  0.00    -0.646 OA
HETATM    8  O           1     -22.283  -5.881  -2.324  0.00  0.00    -0.646 OA
ENDBRANCH   5   6
BRANCH   5   9
HETATM    9  C           1     -21.013  -8.848  -3.980  0.00  0.00     0.045 C 
BRANCH   9  10
HETATM   10  C           1     -19.757  -8.890  -4.840  0.00  0.00     0.105 C 
BRANCH  10  11
HETATM   11  C           1     -18.581  -9.311  -3.993  0.00  0.00     0.215 C 
HETATM   12  O           1     -17.565  -9.699  -4.520  0.00  0.00    -0.274 OA
HETATM   13  N           1     -18.666  -9.255  -2.629  0.00  0.00    -0.370 N 
HETATM   14  H           1     -19.517  -8.930  -2.187  0.00  0.00     0.159 HD
HETATM   15  H           1     -17.877  -9.537  -2.060  0.00  0.00     0.159 HD
ENDBRANCH  10  11
ENDBRANCH   9  10
ENDBRANCH   5   9
ENDBRANCH   1   5
BRANCH   2  16
HETATM   16  C           1     -20.653  -4.864  -6.675  0.00  0.00     0.283 C 
BRANCH  16  17
HETATM   17  C           1     -21.561  -3.817  -7.308  0.00  0.00     0.113 C 
BRANCH  17  18
HETATM   18  S           1     -21.913  -4.279  -9.027  0.00  0.00    -0.180 SA
HETATM   19  H           1     -20.801  -5.013  -9.207  0.00  0.00     0.101 HD
ENDBRANCH  17  18
ENDBRANCH  16  17
BRANCH  16  20
HETATM   20  N           1     -20.051  -5.719  -7.751  0.00  0.00    -0.066 N 
HETATM   21  H           1     -20.812  -6.200  -8.282  0.00  0.00     0.275 HD
HETATM   22  H           1     -19.498  -5.119  -8.404  0.00  0.00     0.275 HD
HETATM   23  H           1     -19.424  -6.434  -7.319  0.00  0.00     0.275 HD
ENDBRANCH  16  20
ENDBRANCH   2  16
TORSDOF 9
ENDMDL
MODEL 7
REMARK VINA RESULT:      -4.4     17.124     18.815
REMARK  9 active torsions:
REMARK  status: ('A' for Active; 'I' for Inactive)
REMARK    1  A    between atoms: N_2  and  C_20 
REMARK       I    between atoms: N_2  and  C_3 
REMARK    2  A    between atoms: C_3  and  C_4 
REMARK    3  A    between atoms: C_4  and  C_5 
REMARK    4  A    between atoms: C_4  and  N_6 
REMARK    5  A    between atoms: C_5  and  S_9 
REMARK       I    between atoms: C_13  and  N_23 
REMARK    6  A    between atoms: C_13  and  C_22 
REMARK    7  A    between atoms: C_19  and  C_20 
REMARK    8  A    between atoms: C_20  and  C_21 
REMARK    9  A    between atoms: C_21  and  C_22 
ROOT
HETATM    1  N           1     -22.025  -9.245  -1.752  0.00  0.00    -0.345 N 
HETATM    2  C           1     -21.872 -10.216  -0.799  0.00  0.00     0.249 C 
HETATM    3  O           1     -21.167 -10.015   0.162  0.00  0.00    -0.271 OA
HETATM    4  H           1     -22.615  -9.413  -2.556  0.00  0.00     0.163 HD
ENDROOT
BRANCH   1   5
HETATM    5  C           1     -21.343  -7.974  -1.607  0.00  0.00     0.186 C 
BRANCH   5   6
HETATM    6  C           1     -22.338  -6.912  -1.209  0.00  0.00     0.196 C 
HETATM    7  O           1     -22.452  -5.874  -1.898  0.00  0.00    -0.646 OA
HETATM    8  O           1     -23.048  -7.068  -0.193  0.00  0.00    -0.646 OA
ENDBRANCH   5   6
BRANCH   5   9
HETATM    9  C           1     -20.692  -7.593  -2.930  0.00  0.00     0.045 C 
BRANCH   9  10
HETATM   10  C           1     -21.381  -8.334  -4.067  0.00  0.00     0.105 C 
BRANCH  10  11
HETATM   11  C           1     -21.721  -7.361  -5.170  0.00  0.00     0.215 C 
HETATM   12  O           1     -21.256  -7.513  -6.275  0.00  0.00    -0.274 OA
HETATM   13  N           1     -22.557  -6.307  -4.917  0.00  0.00    -0.370 N 
HETATM   14  H           1     -22.947  -6.180  -3.992  0.00  0.00     0.159 HD
HETATM   15  H           1     -22.785  -5.654  -5.656  0.00  0.00     0.159 HD
ENDBRANCH  10  11
ENDBRANCH   9  10
ENDBRANCH   5   9
ENDBRANCH   1   5
BRANCH   2  16
HETATM   16  C           1     -22.583 -11.539  -0.950  0.00  0.00     0.283 C 
BRANCH  16  17
HETATM   17  C           1     -22.825 -11.820  -2.428  0.00  0.00     0.113 C 
BRANCH  17  18
HETATM   18  S           1     -21.400 -12.708  -3.117  0.00  0.00    -0.180 SA
HETATM   19  H           1     -20.510 -12.275  -2.208  0.00  0.00     0.101 HD
ENDBRANCH  17  18
ENDBRANCH  16  17
BRANCH  16  20
HETATM   20  N           1     -23.898 -11.484  -0.231  0.00  0.00    -0.066 N 
HETATM   21  H           1     -24.433 -10.642  -0.544  0.00  0.00     0.275 HD
HETATM   22  H           1     -24.449 -12.345  -0.446  0.00  0.00     0.275 HD
HETATM   23  H           1     -23.730 -11.425   0.799  0.00  0.00     0.275 HD
ENDBRANCH  16  20
ENDBRANCH   2  16
TORSDOF 9
ENDMDL
MODEL 8
REMARK VINA RESULT:      -4.4      2.149      3.679
REMARK  9 active torsions:
REMARK  status: ('A' for Active; 'I' for Inactive)
REMARK    1  A    between atoms: N_2  and  C_20 
REMARK       I    between atoms: N_2  and  C_3 
REMARK    2  A    between atoms: C_3  and  C_4 
REMARK    3  A    between atoms: C_4  and  C_5 
REMARK    4  A    between atoms: C_4  and  N_6 
REMARK    5  A    between atoms: C_5  and  S_9 
REMARK       I    between atoms: C_13  and  N_23 
REMARK    6  A    between atoms: C_13  and  C_22 
REMARK    7  A    between atoms: C_19  and  C_20 
REMARK    8  A    between atoms: C_20  and  C_21 
REMARK    9  A    between atoms: C_21  and  C_22 
ROOT
HETATM    1  N           1     -35.459  -1.752 -13.119  0.00  0.00    -0.345 N 
HETATM    2  C           1     -34.511  -2.162 -12.220  0.00  0.00     0.249 C 
HETATM    3  O           1     -34.040  -1.372 -11.436  0.00  0.00    -0.271 OA
HETATM    4  H           1     -35.854  -2.413 -13.775  0.00  0.00     0.163 HD
ENDROOT
BRANCH   1   5
HETATM    5  C           1     -35.900  -0.371 -13.128  0.00  0.00     0.186 C 
BRANCH   5   6
HETATM    6  C           1     -34.983   0.443 -14.008  0.00  0.00     0.196 C 
HETATM    7  O           1     -34.666   0.019 -15.141  0.00  0.00    -0.646 OA
HETATM    8  O           1     -34.543   1.542 -13.607  0.00  0.00    -0.646 OA
ENDBRANCH   5   6
BRANCH   5   9
HETATM    9  C           1     -35.867   0.182 -11.710  0.00  0.00     0.045 C 
BRANCH   9  10
HETATM   10  C           1     -37.260   0.103 -11.100  0.00  0.00     0.105 C 
BRANCH  10  11
HETATM   11  C           1     -37.252   0.758  -9.740  0.00  0.00     0.215 C 
HETATM   12  O           1     -38.067   1.609  -9.475  0.00  0.00    -0.274 OA
HETATM   13  N           1     -36.322   0.387  -8.808  0.00  0.00    -0.370 N 
HETATM   14  H           1     -35.639  -0.327  -9.030  0.00  0.00     0.159 HD
HETATM   15  H           1     -36.316   0.826  -7.895  0.00  0.00     0.159 HD
ENDBRANCH  10  11
ENDBRANCH   9  10
ENDBRANCH   5   9
ENDBRANCH   1   5
BRANCH   2  16
HETATM   16  C           1     -34.053  -3.600 -12.210  0.00  0.00     0.283 C 
BRANCH  16  17
HETATM   17  C           1     -35.020  -4.435 -11.381  0.00  0.00     0.113 C 
BRANCH  17  18
HETATM   18  S           1     -34.187  -5.946 -10.816  0.00  0.00    -0.180 SA
HETATM   19  H           1     -34.326  -5.700  -9.501  0.00  0.00     0.101 HD
ENDBRANCH  17  18
ENDBRANCH  16  17
BRANCH  16  20
HETATM   20  N           1     -32.681  -3.683 -11.610  0.00  0.00    -0.066 N 
HETATM   21  H           1     -32.102  -4.362 -12.154  0.00  0.00     0.275 HD
HETATM   22  H           1     -32.230  -2.741 -11.639  0.00  0.00     0.275 HD
HETATM   23  H           1     -32.753  -4.004 -10.618  0.00  0.00     0.275 HD
ENDBRANCH  16  20
ENDBRANCH   2  16
TORSDOF 9
ENDMDL
MODEL 9
REMARK VINA RESULT:      -4.4     15.910     18.202
REMARK  9 active torsions:
REMARK  status: ('A' for Active; 'I' for Inactive)
REMARK    1  A    between atoms: N_2  and  C_20 
REMARK       I    between atoms: N_2  and  C_3 
REMARK    2  A    between atoms: C_3  and  C_4 
REMARK    3  A    between atoms: C_4  and  C_5 
REMARK    4  A    between atoms: C_4  and  N_6 
REMARK    5  A    between atoms: C_5  and  S_9 
REMARK       I    between atoms: C_13  and  N_23 
REMARK    6  A    between atoms: C_13  and  C_22 
REMARK    7  A    between atoms: C_19  and  C_20 
REMARK    8  A    between atoms: C_20  and  C_21 
REMARK    9  A    between atoms: C_21  and  C_22 
ROOT
HETATM    1  N           1     -20.808  -6.760  -4.676  0.00  0.00    -0.345 N 
HETATM    2  C           1     -21.441  -5.911  -5.544  0.00  0.00     0.249 C 
HETATM    3  O           1     -22.647  -5.843  -5.551  0.00  0.00    -0.271 OA
HETATM    4  H           1     -19.798  -6.817  -4.670  0.00  0.00     0.163 HD
ENDROOT
BRANCH   1   5
HETATM    5  C           1     -21.586  -7.577  -3.765  0.00  0.00     0.186 C 
BRANCH   5   6
HETATM    6  C           1     -21.608  -6.929  -2.403  0.00  0.00     0.196 C 
HETATM    7  O           1     -20.934  -7.415  -1.469  0.00  0.00    -0.646 OA
HETATM    8  O           1     -22.298  -5.905  -2.208  0.00  0.00    -0.646 OA
ENDBRANCH   5   6
BRANCH   5   9
HETATM    9  C           1     -20.956  -8.960  -3.660  0.00  0.00     0.045 C 
BRANCH   9  10
HETATM   10  C           1     -22.043 -10.022  -3.760  0.00  0.00     0.105 C 
BRANCH  10  11
HETATM   11  C           1     -22.313 -10.597  -2.391  0.00  0.00     0.215 C 
HETATM   12  O           1     -23.348 -11.180  -2.174  0.00  0.00    -0.274 OA
HETATM   13  N           1     -21.384 -10.457  -1.396  0.00  0.00    -0.370 N 
HETATM   14  H           1     -20.516  -9.968  -1.577  0.00  0.00     0.159 HD
HETATM   15  H           1     -21.564 -10.842  -0.477  0.00  0.00     0.159 HD
ENDBRANCH  10  11
ENDBRANCH   9  10
ENDBRANCH   5   9
ENDBRANCH   1   5
BRANCH   2  16
HETATM   16  C           1     -20.632  -5.060  -6.492  0.00  0.00     0.283 C 
BRANCH  16  17
HETATM   17  C           1     -21.534  -4.013  -7.132  0.00  0.00     0.113 C 
BRANCH  17  18
HETATM   18  S           1     -21.798  -4.426  -8.880  0.00  0.00    -0.180 SA
HETATM   19  H           1     -20.515  -4.723  -9.149  0.00  0.00     0.101 HD
ENDBRANCH  17  18
ENDBRANCH  16  17
BRANCH  16  20
HETATM   20  N           1     -20.040  -5.930  -7.561  0.00  0.00    -0.066 N 
HETATM   21  H           1     -19.187  -5.469  -7.954  0.00  0.00     0.275 HD
HETATM   22  H           1     -19.778  -6.855  -7.153  0.00  0.00     0.275 HD
HETATM   23  H           1     -20.741  -6.071  -8.323  0.00  0.00     0.275 HD
ENDBRANCH  16  20
ENDBRANCH   2  16
TORSDOF 9
ENDMDL
