MODEL 1
REMARK VINA RESULT:      -7.7      0.000      0.000
REMARK  17 active torsions:
REMARK  status: ('A' for Active; 'I' for Inactive)
REMARK    1  A    between atoms: C_1  and  C_11 
REMARK    2  A    between atoms: C_1  and  C_7 
REMARK    3  A    between atoms: C_1  and  N_23 
REMARK    4  A    between atoms: C_2  and  C_3 
REMARK    5  A    between atoms: C_2  and  C_38 
REMARK    6  A    between atoms: C_2  and  N_12 
REMARK    7  A    between atoms: C_3  and  C_4 
REMARK    8  A    between atoms: C_4  and  N_5 
REMARK    9  A    between atoms: N_5  and  C_16 
REMARK   10  A    between atoms: C_7  and  C_18 
REMARK       I    between atoms: N_8  and  C_9 
REMARK       I    between atoms: C_9  and  N_10 
REMARK       I    between atoms: C_11  and  N_12 
REMARK   11  A    between atoms: C_15  and  C_16 
REMARK   12  A    between atoms: C_16  and  C_17 
REMARK   13  A    between atoms: C_17  and  C_35 
REMARK   14  A    between atoms: C_18  and  C_28 
REMARK       I    between atoms: N_24  and  C_26 
REMARK       I    between atoms: N_25  and  C_26 
REMARK   15  A    between atoms: N_27  and  C_28 
REMARK   16  A    between atoms: N_33  and  C_34 
REMARK   17  A    between atoms: C_34  and  C_35 
ROOT
HETATM    1  C           1     -32.830  -4.864 -16.949  0.00  0.00     0.187 C 
ENDROOT
BRANCH   1   2
HETATM    2  C           1     -33.867  -5.012 -15.845  0.00  0.00     0.066 C 
BRANCH   2   3
HETATM    3  C           1     -33.373  -4.311 -14.586  0.00  0.00     0.273 C 
BRANCH   3   4
HETATM    4  N           1     -34.306  -3.282 -14.212  0.00  0.00     0.098 N 
HETATM    5  H           1     -35.194  -3.440 -14.688  0.00  0.00     0.317 HD
BRANCH   4   6
HETATM    6  C           1     -34.501  -3.367 -12.790  0.00  0.00     0.320 C 
BRANCH   6   7
HETATM    7  C           1     -34.962  -2.028 -12.266  0.00  0.00     0.207 C 
HETATM    8  O           1     -36.086  -1.584 -12.587  0.00  0.00    -0.646 OA
HETATM    9  O           1     -34.219  -1.364 -11.513  0.00  0.00    -0.646 OA
ENDBRANCH   6   7
BRANCH   6  10
HETATM   10  C           1     -33.187  -3.748 -12.120  0.00  0.00     0.048 C 
BRANCH  10  11
HETATM   11  C           1     -33.475  -4.526 -10.842  0.00  0.00     0.023 C 
BRANCH  11  12
HETATM   12  C           1     -34.469  -5.642 -11.139  0.00  0.00     0.138 C 
BRANCH  12  13
HETATM   13  N           1     -33.782  -6.940 -11.074  0.00  0.00    -0.227 N 
HETATM   14  C           1     -34.175  -7.823 -10.256  0.00  0.00     0.665 C 
HETATM   15  N           1     -35.159  -7.589  -9.496  0.00  0.00    -0.235 N 
HETATM   16  N           1     -33.567  -8.971 -10.198  0.00  0.00    -0.235 N 
HETATM   17  H           1     -35.650  -6.662  -9.542  0.00  0.00     0.174 HD
HETATM   18  H           1     -35.484  -8.322  -8.818  0.00  0.00     0.174 HD
HETATM   19  H           1     -32.755  -9.164 -10.826  0.00  0.00     0.174 HD
HETATM   20  H           1     -33.892  -9.700  -9.524  0.00  0.00     0.174 HD
HETATM   21  H           1     -32.966  -7.134 -11.705  0.00  0.00     0.177 HD
ENDBRANCH  12  13
ENDBRANCH  11  12
ENDBRANCH  10  11
ENDBRANCH   6  10
ENDBRANCH   4   6
ENDBRANCH   3   4
ENDBRANCH   2   3
ENDBRANCH   1   2
BRANCH   1  22
HETATM   22  C           1     -32.631  -3.402 -17.263  0.00  0.00     0.196 C 
HETATM   23  O           1     -31.480  -2.957 -17.465  0.00  0.00    -0.646 OA
HETATM   24  O           1     -33.616  -2.635 -17.320  0.00  0.00    -0.646 OA
ENDBRANCH   1  22
BRANCH   1  25
HETATM   25  N           1     -31.572  -5.439 -16.511  0.00  0.00    -0.345 N 
HETATM   26  C           1     -31.051  -6.524 -17.162  0.00  0.00     0.249 C 
HETATM   27  O           1     -31.639  -7.004 -18.103  0.00  0.00    -0.271 OA
HETATM   28  H           1     -31.080  -5.036 -15.723  0.00  0.00     0.163 HD
BRANCH  26  29
HETATM   29  C           1     -29.742  -7.121 -16.706  0.00  0.00     0.274 C 
BRANCH  29  30
HETATM   30  C           1     -28.613  -6.133 -16.968  0.00  0.00     0.044 C 
BRANCH  30  31
HETATM   31  C           1     -28.133  -6.279 -18.405  0.00  0.00     0.023 C 
BRANCH  31  32
HETATM   32  C           1     -26.609  -6.299 -18.432  0.00  0.00     0.138 C 
BRANCH  32  33
HETATM   33  N           1     -26.097  -6.505 -17.070  0.00  0.00    -0.227 N 
HETATM   34  C           1     -24.966  -7.046 -16.894  0.00  0.00     0.665 C 
HETATM   35  N           1     -24.259  -7.422 -17.919  0.00  0.00    -0.235 N 
HETATM   36  N           1     -24.525  -7.223 -15.722  0.00  0.00    -0.235 N 
HETATM   37  H           1     -23.326  -7.869 -17.774  0.00  0.00     0.174 HD
HETATM   38  H           1     -24.624  -7.276 -18.887  0.00  0.00     0.174 HD
HETATM   39  H           1     -23.587  -7.672 -15.576  0.00  0.00     0.174 HD
HETATM   40  H           1     -25.097  -6.921 -14.894  0.00  0.00     0.174 HD
HETATM   41  H           1     -26.668  -6.201 -16.243  0.00  0.00     0.177 HD
ENDBRANCH  32  33
ENDBRANCH  31  32
ENDBRANCH  30  31
ENDBRANCH  29  30
BRANCH  29  42
HETATM   42  N           1     -29.481  -8.389 -17.464  0.00  0.00    -0.067 N 
HETATM   43  H           1     -28.632  -8.269 -18.061  0.00  0.00     0.275 HD
HETATM   44  H           1     -29.324  -9.172 -16.789  0.00  0.00     0.275 HD
HETATM   45  H           1     -30.304  -8.609 -18.069  0.00  0.00     0.275 HD
ENDBRANCH  29  42
ENDBRANCH  26  29
ENDBRANCH   1  25
TORSDOF 17
ENDMDL
MODEL 2
REMARK VINA RESULT:      -7.2     13.125     15.511
REMARK  17 active torsions:
REMARK  status: ('A' for Active; 'I' for Inactive)
REMARK    1  A    between atoms: C_1  and  C_11 
REMARK    2  A    between atoms: C_1  and  C_7 
REMARK    3  A    between atoms: C_1  and  N_23 
REMARK    4  A    between atoms: C_2  and  C_3 
REMARK    5  A    between atoms: C_2  and  C_38 
REMARK    6  A    between atoms: C_2  and  N_12 
REMARK    7  A    between atoms: C_3  and  C_4 
REMARK    8  A    between atoms: C_4  and  N_5 
REMARK    9  A    between atoms: N_5  and  C_16 
REMARK   10  A    between atoms: C_7  and  C_18 
REMARK       I    between atoms: N_8  and  C_9 
REMARK       I    between atoms: C_9  and  N_10 
REMARK       I    between atoms: C_11  and  N_12 
REMARK   11  A    between atoms: C_15  and  C_16 
REMARK   12  A    between atoms: C_16  and  C_17 
REMARK   13  A    between atoms: C_17  and  C_35 
REMARK   14  A    between atoms: C_18  and  C_28 
REMARK       I    between atoms: N_24  and  C_26 
REMARK       I    between atoms: N_25  and  C_26 
REMARK   15  A    between atoms: N_27  and  C_28 
REMARK   16  A    between atoms: N_33  and  C_34 
REMARK   17  A    between atoms: C_34  and  C_35 
ROOT
HETATM    1  C           1     -21.044  -6.393  -5.104  0.00  0.00     0.187 C 
ENDROOT
BRANCH   1   2
HETATM    2  C           1     -22.050  -6.295  -3.966  0.00  0.00     0.066 C 
BRANCH   2   3
HETATM    3  C           1     -21.310  -6.260  -2.634  0.00  0.00     0.273 C 
BRANCH   3   4
HETATM    4  N           1     -22.228  -6.560  -1.567  0.00  0.00     0.098 N 
HETATM    5  H           1     -23.183  -6.393  -1.883  0.00  0.00     0.317 HD
BRANCH   4   6
HETATM    6  C           1     -22.069  -7.949  -1.233  0.00  0.00     0.320 C 
BRANCH   6   7
HETATM    7  C           1     -22.487  -8.172   0.200  0.00  0.00     0.207 C 
HETATM    8  O           1     -21.719  -7.853   1.133  0.00  0.00    -0.646 OA
HETATM    9  O           1     -23.602  -8.677   0.453  0.00  0.00    -0.646 OA
ENDBRANCH   6   7
BRANCH   6  10
HETATM   10  C           1     -20.608  -8.347  -1.402  0.00  0.00     0.048 C 
BRANCH  10  11
HETATM   11  C           1     -20.528  -9.769  -1.941  0.00  0.00     0.023 C 
BRANCH  11  12
HETATM   12  C           1     -19.069 -10.198  -2.029  0.00  0.00     0.138 C 
BRANCH  12  13
HETATM   13  N           1     -18.640 -10.191  -3.435  0.00  0.00    -0.227 N 
HETATM   14  C           1     -17.469  -9.815  -3.737  0.00  0.00     0.665 C 
HETATM   15  N           1     -16.668  -9.446  -2.829  0.00  0.00    -0.235 N 
HETATM   16  N           1     -17.089  -9.808  -4.980  0.00  0.00    -0.235 N 
HETATM   17  H           1     -16.975  -9.452  -1.824  0.00  0.00     0.174 HD
HETATM   18  H           1     -15.697  -9.135  -3.079  0.00  0.00     0.174 HD
HETATM   19  H           1     -17.750 -10.112  -5.730  0.00  0.00     0.174 HD
HETATM   20  H           1     -16.123  -9.498  -5.229  0.00  0.00     0.174 HD
HETATM   21  H           1     -19.304 -10.496  -4.188  0.00  0.00     0.177 HD
ENDBRANCH  12  13
ENDBRANCH  11  12
ENDBRANCH  10  11
ENDBRANCH   6  10
ENDBRANCH   4   6
ENDBRANCH   3   4
ENDBRANCH   2   3
ENDBRANCH   1   2
BRANCH   1  22
HETATM   22  C           1     -20.670  -7.839  -5.323  0.00  0.00     0.196 C 
HETATM   23  O           1     -21.501  -8.742  -5.086  0.00  0.00    -0.646 OA
HETATM   24  O           1     -19.530  -8.133  -5.742  0.00  0.00    -0.646 OA
ENDBRANCH   1  22
BRANCH   1  25
HETATM   25  N           1     -21.632  -5.859  -6.316  0.00  0.00    -0.345 N 
HETATM   26  C           1     -20.853  -5.183  -7.216  0.00  0.00     0.249 C 
HETATM   27  O           1     -19.673  -5.032  -7.000  0.00  0.00    -0.271 OA
HETATM   28  H           1     -22.620  -5.986  -6.498  0.00  0.00     0.163 HD
BRANCH  26  29
HETATM   29  C           1     -21.466  -4.627  -8.478  0.00  0.00     0.274 C 
BRANCH  29  30
HETATM   30  C           1     -20.370  -4.048  -9.363  0.00  0.00     0.044 C 
BRANCH  30  31
HETATM   31  C           1     -20.684  -4.348 -10.823  0.00  0.00     0.023 C 
BRANCH  31  32
HETATM   32  C           1     -21.468  -3.188 -11.422  0.00  0.00     0.138 C 
BRANCH  32  33
HETATM   33  N           1     -21.777  -3.479 -12.830  0.00  0.00    -0.227 N 
HETATM   34  C           1     -22.806  -2.978 -13.369  0.00  0.00     0.665 C 
HETATM   35  N           1     -23.592  -2.206 -12.678  0.00  0.00    -0.235 N 
HETATM   36  N           1     -23.071  -3.228 -14.581  0.00  0.00    -0.235 N 
HETATM   37  H           1     -24.442  -1.792 -13.123  0.00  0.00     0.174 HD
HETATM   38  H           1     -23.373  -2.000 -11.677  0.00  0.00     0.174 HD
HETATM   39  H           1     -23.925  -2.812 -15.029  0.00  0.00     0.174 HD
HETATM   40  H           1     -22.437  -3.852 -15.140  0.00  0.00     0.174 HD
HETATM   41  H           1     -21.142  -4.102 -13.388  0.00  0.00     0.177 HD
ENDBRANCH  32  33
ENDBRANCH  31  32
ENDBRANCH  30  31
ENDBRANCH  29  30
BRANCH  29  42
HETATM   42  N           1     -22.443  -3.546  -8.123  0.00  0.00    -0.067 N 
HETATM   43  H           1     -22.577  -3.523  -7.087  0.00  0.00     0.275 HD
HETATM   44  H           1     -22.074  -2.623  -8.447  0.00  0.00     0.275 HD
HETATM   45  H           1     -23.359  -3.738  -8.588  0.00  0.00     0.275 HD
ENDBRANCH  29  42
ENDBRANCH  26  29
ENDBRANCH   1  25
TORSDOF 17
ENDMDL
MODEL 3
REMARK VINA RESULT:      -7.0     12.795     15.078
REMARK  17 active torsions:
REMARK  status: ('A' for Active; 'I' for Inactive)
REMARK    1  A    between atoms: C_1  and  C_11 
REMARK    2  A    between atoms: C_1  and  C_7 
REMARK    3  A    between atoms: C_1  and  N_23 
REMARK    4  A    between atoms: C_2  and  C_3 
REMARK    5  A    between atoms: C_2  and  C_38 
REMARK    6  A    between atoms: C_2  and  N_12 
REMARK    7  A    between atoms: C_3  and  C_4 
REMARK    8  A    between atoms: C_4  and  N_5 
REMARK    9  A    between atoms: N_5  and  C_16 
REMARK   10  A    between atoms: C_7  and  C_18 
REMARK       I    between atoms: N_8  and  C_9 
REMARK       I    between atoms: C_9  and  N_10 
REMARK       I    between atoms: C_11  and  N_12 
REMARK   11  A    between atoms: C_15  and  C_16 
REMARK   12  A    between atoms: C_16  and  C_17 
REMARK   13  A    between atoms: C_17  and  C_35 
REMARK   14  A    between atoms: C_18  and  C_28 
REMARK       I    between atoms: N_24  and  C_26 
REMARK       I    between atoms: N_25  and  C_26 
REMARK   15  A    between atoms: N_27  and  C_28 
REMARK   16  A    between atoms: N_33  and  C_34 
REMARK   17  A    between atoms: C_34  and  C_35 
ROOT
HETATM    1  C           1     -21.049  -6.509  -4.833  0.00  0.00     0.187 C 
ENDROOT
BRANCH   1   2
HETATM    2  C           1     -22.075  -6.559  -3.709  0.00  0.00     0.066 C 
BRANCH   2   3
HETATM    3  C           1     -21.398  -6.216  -2.387  0.00  0.00     0.273 C 
BRANCH   3   4
HETATM    4  N           1     -20.793  -7.400  -1.837  0.00  0.00     0.098 N 
HETATM    5  H           1     -20.245  -7.150  -1.014  0.00  0.00     0.317 HD
BRANCH   4   6
HETATM    6  C           1     -21.853  -8.294  -1.455  0.00  0.00     0.320 C 
BRANCH   6   7
HETATM    7  C           1     -22.280  -7.991  -0.039  0.00  0.00     0.207 C 
HETATM    8  O           1     -23.423  -7.539   0.186  0.00  0.00    -0.646 OA
HETATM    9  O           1     -21.488  -8.191   0.907  0.00  0.00    -0.646 OA
ENDBRANCH   6   7
BRANCH   6  10
HETATM   10  C           1     -21.356  -9.732  -1.538  0.00  0.00     0.048 C 
BRANCH  10  11
HETATM   11  C           1     -22.134 -10.475  -2.617  0.00  0.00     0.023 C 
BRANCH  11  12
HETATM   12  C           1     -21.219 -11.484  -3.300  0.00  0.00     0.138 C 
BRANCH  12  13
HETATM   13  N           1     -21.117 -11.163  -4.731  0.00  0.00    -0.227 N 
HETATM   14  C           1     -20.329 -11.821  -5.472  0.00  0.00     0.665 C 
HETATM   15  N           1     -19.629 -12.755  -4.981  0.00  0.00    -0.235 N 
HETATM   16  N           1     -20.240 -11.538  -6.738  0.00  0.00    -0.235 N 
HETATM   17  H           1     -19.702 -12.984  -3.959  0.00  0.00     0.174 HD
HETATM   18  H           1     -18.976 -13.300  -5.597  0.00  0.00     0.174 HD
HETATM   19  H           1     -20.818 -10.767  -7.142  0.00  0.00     0.174 HD
HETATM   20  H           1     -19.589 -12.081  -7.350  0.00  0.00     0.174 HD
HETATM   21  H           1     -21.698 -10.389  -5.138  0.00  0.00     0.177 HD
ENDBRANCH  12  13
ENDBRANCH  11  12
ENDBRANCH  10  11
ENDBRANCH   6  10
ENDBRANCH   4   6
ENDBRANCH   3   4
ENDBRANCH   2   3
ENDBRANCH   1   2
BRANCH   1  22
HETATM   22  C           1     -20.600  -7.910  -5.169  0.00  0.00     0.196 C 
HETATM   23  O           1     -19.644  -8.424  -4.549  0.00  0.00    -0.646 OA
HETATM   24  O           1     -21.185  -8.556  -6.064  0.00  0.00    -0.646 OA
ENDBRANCH   1  22
BRANCH   1  25
HETATM   25  N           1     -21.647  -5.900  -6.005  0.00  0.00    -0.345 N 
HETATM   26  C           1     -20.850  -5.400  -6.999  0.00  0.00     0.249 C 
HETATM   27  O           1     -19.647  -5.466  -6.900  0.00  0.00    -0.271 OA
HETATM   28  H           1     -22.655  -5.845  -6.089  0.00  0.00     0.163 HD
BRANCH  26  29
HETATM   29  C           1     -21.472  -4.767  -8.219  0.00  0.00     0.274 C 
BRANCH  29  30
HETATM   30  C           1     -20.389  -4.096  -9.053  0.00  0.00     0.044 C 
BRANCH  30  31
HETATM   31  C           1     -20.586  -4.447 -10.522  0.00  0.00     0.023 C 
BRANCH  31  32
HETATM   32  C           1     -20.800  -3.171 -11.326  0.00  0.00     0.138 C 
BRANCH  32  33
HETATM   33  N           1     -22.233  -2.845 -11.356  0.00  0.00    -0.227 N 
HETATM   34  C           1     -22.870  -2.899 -12.449  0.00  0.00     0.665 C 
HETATM   35  N           1     -22.257  -3.240 -13.543  0.00  0.00    -0.235 N 
HETATM   36  N           1     -24.104  -2.618 -12.476  0.00  0.00    -0.235 N 
HETATM   37  H           1     -22.784  -3.284 -14.445  0.00  0.00     0.174 HD
HETATM   38  H           1     -21.238  -3.471 -13.521  0.00  0.00     0.174 HD
HETATM   39  H           1     -24.633  -2.662 -13.382  0.00  0.00     0.174 HD
HETATM   40  H           1     -24.599  -2.341 -11.592  0.00  0.00     0.174 HD
HETATM   41  H           1     -22.728  -2.569 -10.473  0.00  0.00     0.177 HD
ENDBRANCH  32  33
ENDBRANCH  31  32
ENDBRANCH  30  31
ENDBRANCH  29  30
BRANCH  29  42
HETATM   42  N           1     -22.478  -3.740  -7.790  0.00  0.00    -0.067 N 
HETATM   43  H           1     -22.209  -2.806  -8.174  0.00  0.00     0.275 HD
HETATM   44  H           1     -23.422  -4.005  -8.151  0.00  0.00     0.275 HD
HETATM   45  H           1     -22.504  -3.692  -6.747  0.00  0.00     0.275 HD
ENDBRANCH  29  42
ENDBRANCH  26  29
ENDBRANCH   1  25
TORSDOF 17
ENDMDL
MODEL 4
REMARK VINA RESULT:      -7.0      2.360      3.671
REMARK  17 active torsions:
REMARK  status: ('A' for Active; 'I' for Inactive)
REMARK    1  A    between atoms: C_1  and  C_11 
REMARK    2  A    between atoms: C_1  and  C_7 
REMARK    3  A    between atoms: C_1  and  N_23 
REMARK    4  A    between atoms: C_2  and  C_3 
REMARK    5  A    between atoms: C_2  and  C_38 
REMARK    6  A    between atoms: C_2  and  N_12 
REMARK    7  A    between atoms: C_3  and  C_4 
REMARK    8  A    between atoms: C_4  and  N_5 
REMARK    9  A    between atoms: N_5  and  C_16 
REMARK   10  A    between atoms: C_7  and  C_18 
REMARK       I    between atoms: N_8  and  C_9 
REMARK       I    between atoms: C_9  and  N_10 
REMARK       I    between atoms: C_11  and  N_12 
REMARK   11  A    between atoms: C_15  and  C_16 
REMARK   12  A    between atoms: C_16  and  C_17 
REMARK   13  A    between atoms: C_17  and  C_35 
REMARK   14  A    between atoms: C_18  and  C_28 
REMARK       I    between atoms: N_24  and  C_26 
REMARK       I    between atoms: N_25  and  C_26 
REMARK   15  A    between atoms: N_27  and  C_28 
REMARK   16  A    between atoms: N_33  and  C_34 
REMARK   17  A    between atoms: C_34  and  C_35 
ROOT
HETATM    1  C           1     -32.243  -4.821 -16.560  0.00  0.00     0.187 C 
ENDROOT
BRANCH   1   2
HETATM    2  C           1     -32.529  -4.403 -15.124  0.00  0.00     0.066 C 
BRANCH   2   3
HETATM    3  C           1     -34.029  -4.464 -14.865  0.00  0.00     0.273 C 
BRANCH   3   4
HETATM    4  N           1     -34.361  -3.603 -13.762  0.00  0.00     0.098 N 
HETATM    5  H           1     -35.347  -3.718 -13.525  0.00  0.00     0.317 HD
BRANCH   4   6
HETATM    6  C           1     -33.549  -3.996 -12.642  0.00  0.00     0.320 C 
BRANCH   6   7
HETATM    7  C           1     -34.122  -5.246 -12.020  0.00  0.00     0.207 C 
HETATM    8  O           1     -33.481  -5.856 -11.137  0.00  0.00    -0.646 OA
HETATM    9  O           1     -35.238  -5.672 -12.391  0.00  0.00    -0.646 OA
ENDBRANCH   6   7
BRANCH   6  10
HETATM   10  C           1     -33.536  -2.876 -11.609  0.00  0.00     0.048 C 
BRANCH  10  11
HETATM   11  C           1     -34.889  -2.812 -10.912  0.00  0.00     0.023 C 
BRANCH  11  12
HETATM   12  C           1     -35.463  -1.407 -11.043  0.00  0.00     0.138 C 
BRANCH  12  13
HETATM   13  N           1     -34.672  -0.643 -12.019  0.00  0.00    -0.227 N 
HETATM   14  C           1     -35.243  -0.102 -13.012  0.00  0.00     0.665 C 
HETATM   15  N           1     -36.494  -0.219 -13.163  0.00  0.00    -0.235 N 
HETATM   16  N           1     -34.544   0.573 -13.875  0.00  0.00    -0.235 N 
HETATM   17  H           1     -37.059  -0.764 -12.466  0.00  0.00     0.174 HD
HETATM   18  H           1     -36.967   0.229 -13.986  0.00  0.00     0.174 HD
HETATM   19  H           1     -33.511   0.669 -13.749  0.00  0.00     0.174 HD
HETATM   20  H           1     -35.015   1.019 -14.694  0.00  0.00     0.174 HD
HETATM   21  H           1     -33.634  -0.547 -11.893  0.00  0.00     0.177 HD
ENDBRANCH  12  13
ENDBRANCH  11  12
ENDBRANCH  10  11
ENDBRANCH   6  10
ENDBRANCH   4   6
ENDBRANCH   3   4
ENDBRANCH   2   3
ENDBRANCH   1   2
BRANCH   1  22
HETATM   22  C           1     -32.100  -3.592 -17.423  0.00  0.00     0.196 C 
HETATM   23  O           1     -30.988  -3.302 -17.916  0.00  0.00    -0.646 OA
HETATM   24  O           1     -33.091  -2.865 -17.647  0.00  0.00    -0.646 OA
ENDBRANCH   1  22
BRANCH   1  25
HETATM   25  N           1     -31.014  -5.588 -16.604  0.00  0.00    -0.345 N 
HETATM   26  C           1     -30.974  -6.779 -17.277  0.00  0.00     0.249 C 
HETATM   27  O           1     -31.963  -7.192 -17.835  0.00  0.00    -0.271 OA
HETATM   28  H           1     -30.184  -5.242 -16.138  0.00  0.00     0.163 HD
BRANCH  26  29
HETATM   29  C           1     -29.693  -7.577 -17.324  0.00  0.00     0.274 C 
BRANCH  29  30
HETATM   30  C           1     -28.508  -6.651 -17.080  0.00  0.00     0.044 C 
BRANCH  30  31
HETATM   31  C           1     -27.826  -7.032 -15.773  0.00  0.00     0.023 C 
BRANCH  31  32
HETATM   32  C           1     -26.354  -6.646 -15.837  0.00  0.00     0.138 C 
BRANCH  32  33
HETATM   33  N           1     -25.898  -6.679 -17.234  0.00  0.00    -0.227 N 
HETATM   34  C           1     -24.821  -7.272 -17.535  0.00  0.00     0.665 C 
HETATM   35  N           1     -24.117  -7.850 -16.607  0.00  0.00    -0.235 N 
HETATM   36  N           1     -24.429  -7.301 -18.738  0.00  0.00    -0.235 N 
HETATM   37  H           1     -23.227  -8.340 -16.855  0.00  0.00     0.174 HD
HETATM   38  H           1     -24.440  -7.826 -15.614  0.00  0.00     0.174 HD
HETATM   39  H           1     -23.535  -7.793 -18.987  0.00  0.00     0.174 HD
HETATM   40  H           1     -24.997  -6.834 -19.487  0.00  0.00     0.174 HD
HETATM   41  H           1     -26.467  -6.213 -17.983  0.00  0.00     0.177 HD
ENDBRANCH  32  33
ENDBRANCH  31  32
ENDBRANCH  30  31
ENDBRANCH  29  30
BRANCH  29  42
HETATM   42  N           1     -29.555  -8.220 -18.672  0.00  0.00    -0.067 N 
HETATM   43  H           1     -29.425  -9.250 -18.555  0.00  0.00     0.275 HD
HETATM   44  H           1     -30.418  -8.040 -19.234  0.00  0.00     0.275 HD
HETATM   45  H           1     -28.727  -7.818 -19.167  0.00  0.00     0.275 HD
ENDBRANCH  29  42
ENDBRANCH  26  29
ENDBRANCH   1  25
TORSDOF 17
ENDMDL
MODEL 5
REMARK VINA RESULT:      -7.0     12.070     15.170
REMARK  17 active torsions:
REMARK  status: ('A' for Active; 'I' for Inactive)
REMARK    1  A    between atoms: C_1  and  C_11 
REMARK    2  A    between atoms: C_1  and  C_7 
REMARK    3  A    between atoms: C_1  and  N_23 
REMARK    4  A    between atoms: C_2  and  C_3 
REMARK    5  A    between atoms: C_2  and  C_38 
REMARK    6  A    between atoms: C_2  and  N_12 
REMARK    7  A    between atoms: C_3  and  C_4 
REMARK    8  A    between atoms: C_4  and  N_5 
REMARK    9  A    between atoms: N_5  and  C_16 
REMARK   10  A    between atoms: C_7  and  C_18 
REMARK       I    between atoms: N_8  and  C_9 
REMARK       I    between atoms: C_9  and  N_10 
REMARK       I    between atoms: C_11  and  N_12 
REMARK   11  A    between atoms: C_15  and  C_16 
REMARK   12  A    between atoms: C_16  and  C_17 
REMARK   13  A    between atoms: C_17  and  C_35 
REMARK   14  A    between atoms: C_18  and  C_28 
REMARK       I    between atoms: N_24  and  C_26 
REMARK       I    between atoms: N_25  and  C_26 
REMARK   15  A    between atoms: N_27  and  C_28 
REMARK   16  A    between atoms: N_33  and  C_34 
REMARK   17  A    between atoms: C_34  and  C_35 
ROOT
HETATM    1  C           1     -20.478  -7.016  -4.868  0.00  0.00     0.187 C 
ENDROOT
BRANCH   1   2
HETATM    2  C           1     -20.132  -6.029  -5.974  0.00  0.00     0.066 C 
BRANCH   2   3
HETATM    3  C           1     -21.111  -6.197  -7.130  0.00  0.00     0.273 C 
BRANCH   3   4
HETATM    4  N           1     -21.790  -4.952  -7.369  0.00  0.00     0.098 N 
HETATM    5  H           1     -21.249  -4.187  -6.965  0.00  0.00     0.317 HD
BRANCH   4   6
HETATM    6  C           1     -21.887  -4.774  -8.792  0.00  0.00     0.320 C 
BRANCH   6   7
HETATM    7  C           1     -20.559  -4.299  -9.330  0.00  0.00     0.207 C 
HETATM    8  O           1     -20.216  -4.589 -10.496  0.00  0.00    -0.646 OA
HETATM    9  O           1     -19.802  -3.615  -8.607  0.00  0.00    -0.646 OA
ENDBRANCH   6   7
BRANCH   6  10
HETATM   10  C           1     -22.959  -3.737  -9.101  0.00  0.00     0.048 C 
BRANCH  10  11
HETATM   11  C           1     -24.132  -4.413  -9.800  0.00  0.00     0.023 C 
BRANCH  11  12
HETATM   12  C           1     -23.756  -4.717 -11.245  0.00  0.00     0.138 C 
BRANCH  12  13
HETATM   13  N           1     -24.119  -3.574 -12.096  0.00  0.00    -0.227 N 
HETATM   14  C           1     -23.242  -3.024 -12.824  0.00  0.00     0.665 C 
HETATM   15  N           1     -22.052  -3.456 -12.819  0.00  0.00    -0.235 N 
HETATM   16  N           1     -23.563  -2.013 -13.577  0.00  0.00    -0.235 N 
HETATM   17  H           1     -21.793  -4.272 -12.211  0.00  0.00     0.174 HD
HETATM   18  H           1     -21.325  -3.000 -13.423  0.00  0.00     0.174 HD
HETATM   19  H           1     -24.545  -1.656 -13.580  0.00  0.00     0.174 HD
HETATM   20  H           1     -22.839  -1.559 -14.177  0.00  0.00     0.174 HD
HETATM   21  H           1     -25.106  -3.215 -12.100  0.00  0.00     0.177 HD
ENDBRANCH  12  13
ENDBRANCH  11  12
ENDBRANCH  10  11
ENDBRANCH   6  10
ENDBRANCH   4   6
ENDBRANCH   3   4
ENDBRANCH   2   3
ENDBRANCH   1   2
BRANCH   1  22
HETATM   22  C           1     -21.514  -6.407  -3.954  0.00  0.00     0.196 C 
HETATM   23  O           1     -21.242  -6.203  -2.751  0.00  0.00    -0.646 OA
HETATM   24  O           1     -22.642  -6.108  -4.400  0.00  0.00    -0.646 OA
ENDBRANCH   1  22
BRANCH   1  25
HETATM   25  N           1     -21.006  -8.233  -5.453  0.00  0.00    -0.345 N 
HETATM   26  C           1     -20.518  -9.449  -5.061  0.00  0.00     0.249 C 
HETATM   27  O           1     -19.646  -9.511  -4.227  0.00  0.00    -0.271 OA
HETATM   28  H           1     -21.737  -8.182  -6.152  0.00  0.00     0.163 HD
BRANCH  26  29
HETATM   29  C           1     -21.069 -10.716  -5.671  0.00  0.00     0.274 C 
BRANCH  29  30
HETATM   30  C           1     -21.319 -11.742  -4.573  0.00  0.00     0.044 C 
BRANCH  30  31
HETATM   31  C           1     -22.468 -11.273  -3.691  0.00  0.00     0.023 C 
BRANCH  31  32
HETATM   32  C           1     -22.025 -11.278  -2.234  0.00  0.00     0.138 C 
BRANCH  32  33
HETATM   33  N           1     -22.631 -10.137  -1.533  0.00  0.00    -0.227 N 
HETATM   34  C           1     -21.920  -9.140  -1.214  0.00  0.00     0.665 C 
HETATM   35  N           1     -20.653  -9.125  -1.505  0.00  0.00    -0.235 N 
HETATM   36  N           1     -22.442  -8.157  -0.611  0.00  0.00    -0.235 N 
HETATM   37  H           1     -20.066  -8.302  -1.241  0.00  0.00     0.174 HD
HETATM   38  H           1     -20.222  -9.937  -2.002  0.00  0.00     0.174 HD
HETATM   39  H           1     -21.853  -7.329  -0.346  0.00  0.00     0.174 HD
HETATM   40  H           1     -23.466  -8.169  -0.375  0.00  0.00     0.174 HD
HETATM   41  H           1     -23.654 -10.149  -1.298  0.00  0.00     0.177 HD
ENDBRANCH  32  33
ENDBRANCH  31  32
ENDBRANCH  30  31
ENDBRANCH  29  30
BRANCH  29  42
HETATM   42  N           1     -20.078 -11.268  -6.653  0.00  0.00    -0.067 N 
HETATM   43  H           1     -19.304 -11.744  -6.138  0.00  0.00     0.275 HD
HETATM   44  H           1     -20.555 -11.957  -7.278  0.00  0.00     0.275 HD
HETATM   45  H           1     -19.686 -10.489  -7.228  0.00  0.00     0.275 HD
ENDBRANCH  29  42
ENDBRANCH  26  29
ENDBRANCH   1  25
TORSDOF 17
ENDMDL
MODEL 6
REMARK VINA RESULT:      -6.8     13.962     16.330
REMARK  17 active torsions:
REMARK  status: ('A' for Active; 'I' for Inactive)
REMARK    1  A    between atoms: C_1  and  C_11 
REMARK    2  A    between atoms: C_1  and  C_7 
REMARK    3  A    between atoms: C_1  and  N_23 
REMARK    4  A    between atoms: C_2  and  C_3 
REMARK    5  A    between atoms: C_2  and  C_38 
REMARK    6  A    between atoms: C_2  and  N_12 
REMARK    7  A    between atoms: C_3  and  C_4 
REMARK    8  A    between atoms: C_4  and  N_5 
REMARK    9  A    between atoms: N_5  and  C_16 
REMARK   10  A    between atoms: C_7  and  C_18 
REMARK       I    between atoms: N_8  and  C_9 
REMARK       I    between atoms: C_9  and  N_10 
REMARK       I    between atoms: C_11  and  N_12 
REMARK   11  A    between atoms: C_15  and  C_16 
REMARK   12  A    between atoms: C_16  and  C_17 
REMARK   13  A    between atoms: C_17  and  C_35 
REMARK   14  A    between atoms: C_18  and  C_28 
REMARK       I    between atoms: N_24  and  C_26 
REMARK       I    between atoms: N_25  and  C_26 
REMARK   15  A    between atoms: N_27  and  C_28 
REMARK   16  A    between atoms: N_33  and  C_34 
REMARK   17  A    between atoms: C_34  and  C_35 
ROOT
HETATM    1  C           1     -19.972  -8.148  -5.015  0.00  0.00     0.187 C 
ENDROOT
BRANCH   1   2
HETATM    2  C           1     -21.208  -9.017  -5.199  0.00  0.00     0.066 C 
BRANCH   2   3
HETATM    3  C           1     -21.813  -9.337  -3.838  0.00  0.00     0.273 C 
BRANCH   3   4
HETATM    4  N           1     -21.522  -8.268  -2.920  0.00  0.00     0.098 N 
HETATM    5  H           1     -22.136  -7.477  -3.116  0.00  0.00     0.317 HD
BRANCH   4   6
HETATM    6  C           1     -21.774  -8.754  -1.590  0.00  0.00     0.320 C 
BRANCH   6   7
HETATM    7  C           1     -22.168  -7.600  -0.701  0.00  0.00     0.207 C 
HETATM    8  O           1     -22.605  -6.542  -1.204  0.00  0.00    -0.646 OA
HETATM    9  O           1     -22.055  -7.703   0.540  0.00  0.00    -0.646 OA
ENDBRANCH   6   7
BRANCH   6  10
HETATM   10  C           1     -20.511  -9.408  -1.044  0.00  0.00     0.048 C 
BRANCH  10  11
HETATM   11  C           1     -20.830 -10.828  -0.595  0.00  0.00     0.023 C 
BRANCH  11  12
HETATM   12  C           1     -19.542 -11.638  -0.518  0.00  0.00     0.138 C 
BRANCH  12  13
HETATM   13  N           1     -18.602 -11.164  -1.544  0.00  0.00    -0.227 N 
HETATM   14  C           1     -17.363 -11.395  -1.424  0.00  0.00     0.665 C 
HETATM   15  N           1     -16.933 -12.036  -0.421  0.00  0.00    -0.235 N 
HETATM   16  N           1     -16.533 -10.976  -2.332  0.00  0.00    -0.235 N 
HETATM   17  H           1     -17.604 -12.375   0.312  0.00  0.00     0.174 HD
HETATM   18  H           1     -15.906 -12.228  -0.322  0.00  0.00     0.174 HD
HETATM   19  H           1     -16.888 -10.447  -3.160  0.00  0.00     0.174 HD
HETATM   20  H           1     -15.510 -11.167  -2.233  0.00  0.00     0.174 HD
HETATM   21  H           1     -18.959 -10.632  -2.377  0.00  0.00     0.177 HD
ENDBRANCH  12  13
ENDBRANCH  11  12
ENDBRANCH  10  11
ENDBRANCH   6  10
ENDBRANCH   4   6
ENDBRANCH   3   4
ENDBRANCH   2   3
ENDBRANCH   1   2
BRANCH   1  22
HETATM   22  C           1     -18.734  -8.968  -5.285  0.00  0.00     0.196 C 
HETATM   23  O           1     -18.243  -8.995  -6.434  0.00  0.00    -0.646 OA
HETATM   24  O           1     -18.201  -9.618  -4.361  0.00  0.00    -0.646 OA
ENDBRANCH   1  22
BRANCH   1  25
HETATM   25  N           1     -20.023  -7.032  -5.940  0.00  0.00    -0.345 N 
HETATM   26  C           1     -20.556  -5.836  -5.542  0.00  0.00     0.249 C 
HETATM   27  O           1     -20.985  -5.709  -4.420  0.00  0.00    -0.271 OA
HETATM   28  H           1     -19.663  -7.138  -6.880  0.00  0.00     0.163 HD
BRANCH  26  29
HETATM   29  C           1     -20.608  -4.675  -6.505  0.00  0.00     0.274 C 
BRANCH  29  30
HETATM   30  C           1     -21.975  -4.632  -7.176  0.00  0.00     0.044 C 
BRANCH  30  31
HETATM   31  C           1     -21.808  -4.793  -8.681  0.00  0.00     0.023 C 
BRANCH  31  32
HETATM   32  C           1     -22.456  -3.612  -9.394  0.00  0.00     0.138 C 
BRANCH  32  33
HETATM   33  N           1     -23.875  -3.531  -9.017  0.00  0.00    -0.227 N 
HETATM   34  C           1     -24.768  -3.523  -9.913  0.00  0.00     0.665 C 
HETATM   35  N           1     -24.431  -3.583 -11.168  0.00  0.00    -0.235 N 
HETATM   36  N           1     -25.990  -3.453  -9.589  0.00  0.00    -0.235 N 
HETATM   37  H           1     -25.169  -3.575 -11.908  0.00  0.00     0.174 HD
HETATM   38  H           1     -23.422  -3.640 -11.435  0.00  0.00     0.174 HD
HETATM   39  H           1     -26.731  -3.446 -10.333  0.00  0.00     0.174 HD
HETATM   40  H           1     -26.262  -3.403  -8.576  0.00  0.00     0.174 HD
HETATM   41  H           1     -24.147  -3.483  -8.004  0.00  0.00     0.177 HD
ENDBRANCH  32  33
ENDBRANCH  31  32
ENDBRANCH  30  31
ENDBRANCH  29  30
BRANCH  29  42
HETATM   42  N           1     -19.545  -4.846  -7.550  0.00  0.00    -0.067 N 
HETATM   43  H           1     -18.608  -4.657  -7.128  0.00  0.00     0.275 HD
HETATM   44  H           1     -19.570  -5.825  -7.915  0.00  0.00     0.275 HD
HETATM   45  H           1     -19.715  -4.176  -8.333  0.00  0.00     0.275 HD
ENDBRANCH  29  42
ENDBRANCH  26  29
ENDBRANCH   1  25
TORSDOF 17
ENDMDL
MODEL 7
REMARK VINA RESULT:      -6.7     14.345     17.293
REMARK  17 active torsions:
REMARK  status: ('A' for Active; 'I' for Inactive)
REMARK    1  A    between atoms: C_1  and  C_11 
REMARK    2  A    between atoms: C_1  and  C_7 
REMARK    3  A    between atoms: C_1  and  N_23 
REMARK    4  A    between atoms: C_2  and  C_3 
REMARK    5  A    between atoms: C_2  and  C_38 
REMARK    6  A    between atoms: C_2  and  N_12 
REMARK    7  A    between atoms: C_3  and  C_4 
REMARK    8  A    between atoms: C_4  and  N_5 
REMARK    9  A    between atoms: N_5  and  C_16 
REMARK   10  A    between atoms: C_7  and  C_18 
REMARK       I    between atoms: N_8  and  C_9 
REMARK       I    between atoms: C_9  and  N_10 
REMARK       I    between atoms: C_11  and  N_12 
REMARK   11  A    between atoms: C_15  and  C_16 
REMARK   12  A    between atoms: C_16  and  C_17 
REMARK   13  A    between atoms: C_17  and  C_35 
REMARK   14  A    between atoms: C_18  and  C_28 
REMARK       I    between atoms: N_24  and  C_26 
REMARK       I    between atoms: N_25  and  C_26 
REMARK   15  A    between atoms: N_27  and  C_28 
REMARK   16  A    between atoms: N_33  and  C_34 
REMARK   17  A    between atoms: C_34  and  C_35 
ROOT
HETATM    1  C           1     -21.130  -8.069  -3.248  0.00  0.00     0.187 C 
ENDROOT
BRANCH   1   2
HETATM    2  C           1     -19.844  -8.843  -2.995  0.00  0.00     0.066 C 
BRANCH   2   3
HETATM    3  C           1     -20.014 -10.281  -3.468  0.00  0.00     0.273 C 
BRANCH   3   4
HETATM    4  N           1     -18.737 -10.808  -3.870  0.00  0.00     0.098 N 
HETATM    5  H           1     -18.877 -11.557  -4.549  0.00  0.00     0.317 HD
BRANCH   4   6
HETATM    6  C           1     -17.996  -9.738  -4.480  0.00  0.00     0.320 C 
BRANCH   6   7
HETATM    7  C           1     -18.230  -9.751  -5.970  0.00  0.00     0.207 C 
HETATM    8  O           1     -18.148  -8.690  -6.626  0.00  0.00    -0.646 OA
HETATM    9  O           1     -18.508 -10.823  -6.549  0.00  0.00    -0.646 OA
ENDBRANCH   6   7
BRANCH   6  10
HETATM   10  C           1     -16.510  -9.927  -4.198  0.00  0.00     0.048 C 
BRANCH  10  11
HETATM   11  C           1     -16.238  -9.676  -2.720  0.00  0.00     0.023 C 
BRANCH  11  12
HETATM   12  C           1     -15.797 -10.974  -2.057  0.00  0.00     0.138 C 
BRANCH  12  13
HETATM   13  N           1     -16.828 -11.413  -1.106  0.00  0.00    -0.227 N 
HETATM   14  C           1     -16.493 -11.835   0.041  0.00  0.00     0.665 C 
HETATM   15  N           1     -15.271 -11.878   0.367  0.00  0.00    -0.235 N 
HETATM   16  N           1     -17.405 -12.223   0.882  0.00  0.00    -0.235 N 
HETATM   17  H           1     -14.535 -11.565  -0.312  0.00  0.00     0.174 HD
HETATM   18  H           1     -14.994 -12.228   1.318  0.00  0.00     0.174 HD
HETATM   19  H           1     -18.414 -12.187   0.612  0.00  0.00     0.174 HD
HETATM   20  H           1     -17.129 -12.571   1.828  0.00  0.00     0.174 HD
HETATM   21  H           1     -17.842 -11.377  -1.376  0.00  0.00     0.177 HD
ENDBRANCH  12  13
ENDBRANCH  11  12
ENDBRANCH  10  11
ENDBRANCH   6  10
ENDBRANCH   4   6
ENDBRANCH   3   4
ENDBRANCH   2   3
ENDBRANCH   1   2
BRANCH   1  22
HETATM   22  C           1     -21.712  -7.615  -1.931  0.00  0.00     0.196 C 
HETATM   23  O           1     -21.852  -8.431  -0.995  0.00  0.00    -0.646 OA
HETATM   24  O           1     -22.054  -6.423  -1.777  0.00  0.00    -0.646 OA
ENDBRANCH   1  22
BRANCH   1  25
HETATM   25  N           1     -20.844  -6.912  -4.074  0.00  0.00    -0.345 N 
HETATM   26  C           1     -20.997  -6.986  -5.432  0.00  0.00     0.249 C 
HETATM   27  O           1     -21.371  -8.015  -5.943  0.00  0.00    -0.271 OA
HETATM   28  H           1     -20.532  -6.050  -3.645  0.00  0.00     0.163 HD
BRANCH  26  29
HETATM   29  C           1     -20.700  -5.781  -6.291  0.00  0.00     0.274 C 
BRANCH  29  30
HETATM   30  C           1     -22.007  -5.165  -6.773  0.00  0.00     0.044 C 
BRANCH  30  31
HETATM   31  C           1     -21.725  -3.813  -7.415  0.00  0.00     0.023 C 
BRANCH  31  32
HETATM   32  C           1     -22.339  -3.775  -8.809  0.00  0.00     0.138 C 
BRANCH  32  33
HETATM   33  N           1     -23.805  -3.768  -8.700  0.00  0.00    -0.227 N 
HETATM   34  C           1     -24.513  -3.493  -9.712  0.00  0.00     0.665 C 
HETATM   35  N           1     -23.944  -3.213 -10.847  0.00  0.00    -0.235 N 
HETATM   36  N           1     -25.775  -3.488  -9.619  0.00  0.00    -0.235 N 
HETATM   37  H           1     -24.529  -2.986 -11.683  0.00  0.00     0.174 HD
HETATM   38  H           1     -22.902  -3.217 -10.924  0.00  0.00     0.174 HD
HETATM   39  H           1     -26.363  -3.259 -10.458  0.00  0.00     0.174 HD
HETATM   40  H           1     -26.235  -3.712  -8.701  0.00  0.00     0.174 HD
HETATM   41  H           1     -24.264  -3.994  -7.784  0.00  0.00     0.177 HD
ENDBRANCH  32  33
ENDBRANCH  31  32
ENDBRANCH  30  31
ENDBRANCH  29  30
BRANCH  29  42
HETATM   42  N           1     -19.880  -6.203  -7.474  0.00  0.00    -0.067 N 
HETATM   43  H           1     -19.293  -7.027  -7.216  0.00  0.00     0.275 HD
HETATM   44  H           1     -20.516  -6.462  -8.263  0.00  0.00     0.275 HD
HETATM   45  H           1     -19.262  -5.414  -7.769  0.00  0.00     0.275 HD
ENDBRANCH  29  42
ENDBRANCH  26  29
ENDBRANCH   1  25
TORSDOF 17
ENDMDL
MODEL 8
REMARK VINA RESULT:      -6.7     13.717     15.647
REMARK  17 active torsions:
REMARK  status: ('A' for Active; 'I' for Inactive)
REMARK    1  A    between atoms: C_1  and  C_11 
REMARK    2  A    between atoms: C_1  and  C_7 
REMARK    3  A    between atoms: C_1  and  N_23 
REMARK    4  A    between atoms: C_2  and  C_3 
REMARK    5  A    between atoms: C_2  and  C_38 
REMARK    6  A    between atoms: C_2  and  N_12 
REMARK    7  A    between atoms: C_3  and  C_4 
REMARK    8  A    between atoms: C_4  and  N_5 
REMARK    9  A    between atoms: N_5  and  C_16 
REMARK   10  A    between atoms: C_7  and  C_18 
REMARK       I    between atoms: N_8  and  C_9 
REMARK       I    between atoms: C_9  and  N_10 
REMARK       I    between atoms: C_11  and  N_12 
REMARK   11  A    between atoms: C_15  and  C_16 
REMARK   12  A    between atoms: C_16  and  C_17 
REMARK   13  A    between atoms: C_17  and  C_35 
REMARK   14  A    between atoms: C_18  and  C_28 
REMARK       I    between atoms: N_24  and  C_26 
REMARK       I    between atoms: N_25  and  C_26 
REMARK   15  A    between atoms: N_27  and  C_28 
REMARK   16  A    between atoms: N_33  and  C_34 
REMARK   17  A    between atoms: C_34  and  C_35 
ROOT
HETATM    1  C           1     -20.948  -6.268  -4.991  0.00  0.00     0.187 C 
ENDROOT
BRANCH   1   2
HETATM    2  C           1     -22.052  -6.317  -3.945  0.00  0.00     0.066 C 
BRANCH   2   3
HETATM    3  C           1     -21.439  -6.219  -2.553  0.00  0.00     0.273 C 
BRANCH   3   4
HETATM    4  N           1     -22.190  -7.038  -1.640  0.00  0.00     0.098 N 
HETATM    5  H           1     -22.861  -7.602  -2.162  0.00  0.00     0.317 HD
BRANCH   4   6
HETATM    6  C           1     -21.261  -7.901  -0.963  0.00  0.00     0.320 C 
BRANCH   6   7
HETATM    7  C           1     -20.728  -8.926  -1.935  0.00  0.00     0.207 C 
HETATM    8  O           1     -19.496  -9.034  -2.118  0.00  0.00    -0.646 OA
HETATM    9  O           1     -21.520  -9.665  -2.558  0.00  0.00    -0.646 OA
ENDBRANCH   6   7
BRANCH   6  10
HETATM   10  C           1     -21.971  -8.610   0.183  0.00  0.00     0.048 C 
BRANCH  10  11
HETATM   11  C           1     -20.939  -9.270   1.089  0.00  0.00     0.023 C 
BRANCH  11  12
HETATM   12  C           1     -21.021 -10.784   0.935  0.00  0.00     0.138 C 
BRANCH  12  13
HETATM   13  N           1     -19.751 -11.291   0.396  0.00  0.00    -0.227 N 
HETATM   14  C           1     -19.754 -12.102  -0.576  0.00  0.00     0.665 C 
HETATM   15  N           1     -20.852 -12.477  -1.084  0.00  0.00    -0.235 N 
HETATM   16  N           1     -18.631 -12.551  -1.052  0.00  0.00    -0.235 N 
HETATM   17  H           1     -21.759 -12.115  -0.699  0.00  0.00     0.174 HD
HETATM   18  H           1     -20.854 -13.150  -1.890  0.00  0.00     0.174 HD
HETATM   19  H           1     -17.726 -12.242  -0.632  0.00  0.00     0.174 HD
HETATM   20  H           1     -18.634 -13.220  -1.854  0.00  0.00     0.174 HD
HETATM   21  H           1     -18.841 -10.980   0.818  0.00  0.00     0.177 HD
ENDBRANCH  12  13
ENDBRANCH  11  12
ENDBRANCH  10  11
ENDBRANCH   6  10
ENDBRANCH   4   6
ENDBRANCH   3   4
ENDBRANCH   2   3
ENDBRANCH   1   2
BRANCH   1  22
HETATM   22  C           1     -20.557  -7.674  -5.377  0.00  0.00     0.196 C 
HETATM   23  O           1     -21.419  -8.460  -5.827  0.00  0.00    -0.646 OA
HETATM   24  O           1     -19.373  -8.052  -5.248  0.00  0.00    -0.646 OA
ENDBRANCH   1  22
BRANCH   1  25
HETATM   25  N           1     -21.423  -5.561  -6.164  0.00  0.00    -0.345 N 
HETATM   26  C           1     -20.567  -4.770  -6.881  0.00  0.00     0.249 C 
HETATM   27  O           1     -19.414  -4.660  -6.536  0.00  0.00    -0.271 OA
HETATM   28  H           1     -22.389  -5.653  -6.453  0.00  0.00     0.163 HD
BRANCH  26  29
HETATM   29  C           1     -21.063  -4.034  -8.102  0.00  0.00     0.274 C 
BRANCH  29  30
HETATM   30  C           1     -22.402  -4.614  -8.537  0.00  0.00     0.044 C 
BRANCH  30  31
HETATM   31  C           1     -23.140  -3.600  -9.401  0.00  0.00     0.023 C 
BRANCH  31  32
HETATM   32  C           1     -23.402  -4.200 -10.776  0.00  0.00     0.138 C 
BRANCH  32  33
HETATM   33  N           1     -23.957  -3.168 -11.664  0.00  0.00    -0.227 N 
HETATM   34  C           1     -23.333  -2.833 -12.713  0.00  0.00     0.665 C 
HETATM   35  N           1     -22.199  -3.400 -13.004  0.00  0.00    -0.235 N 
HETATM   36  N           1     -23.811  -1.944 -13.477  0.00  0.00    -0.235 N 
HETATM   37  H           1     -21.684  -3.122 -13.869  0.00  0.00     0.174 HD
HETATM   38  H           1     -21.805  -4.133 -12.372  0.00  0.00     0.174 HD
HETATM   39  H           1     -23.293  -1.666 -14.347  0.00  0.00     0.174 HD
HETATM   40  H           1     -24.726  -1.486 -13.242  0.00  0.00     0.174 HD
HETATM   41  H           1     -24.872  -2.710 -11.429  0.00  0.00     0.177 HD
ENDBRANCH  32  33
ENDBRANCH  31  32
ENDBRANCH  30  31
ENDBRANCH  29  30
BRANCH  29  42
HETATM   42  N           1     -20.068  -4.187  -9.214  0.00  0.00    -0.067 N 
HETATM   43  H           1     -19.101  -4.066  -8.837  0.00  0.00     0.275 HD
HETATM   44  H           1     -20.161  -5.139  -9.635  0.00  0.00     0.275 HD
HETATM   45  H           1     -20.249  -3.463  -9.946  0.00  0.00     0.275 HD
ENDBRANCH  29  42
ENDBRANCH  26  29
ENDBRANCH   1  25
TORSDOF 17
ENDMDL
MODEL 9
REMARK VINA RESULT:      -6.5     13.470     15.571
REMARK  17 active torsions:
REMARK  status: ('A' for Active; 'I' for Inactive)
REMARK    1  A    between atoms: C_1  and  C_11 
REMARK    2  A    between atoms: C_1  and  C_7 
REMARK    3  A    between atoms: C_1  and  N_23 
REMARK    4  A    between atoms: C_2  and  C_3 
REMARK    5  A    between atoms: C_2  and  C_38 
REMARK    6  A    between atoms: C_2  and  N_12 
REMARK    7  A    between atoms: C_3  and  C_4 
REMARK    8  A    between atoms: C_4  and  N_5 
REMARK    9  A    between atoms: N_5  and  C_16 
REMARK   10  A    between atoms: C_7  and  C_18 
REMARK       I    between atoms: N_8  and  C_9 
REMARK       I    between atoms: C_9  and  N_10 
REMARK       I    between atoms: C_11  and  N_12 
REMARK   11  A    between atoms: C_15  and  C_16 
REMARK   12  A    between atoms: C_16  and  C_17 
REMARK   13  A    between atoms: C_17  and  C_35 
REMARK   14  A    between atoms: C_18  and  C_28 
REMARK       I    between atoms: N_24  and  C_26 
REMARK       I    between atoms: N_25  and  C_26 
REMARK   15  A    between atoms: N_27  and  C_28 
REMARK   16  A    between atoms: N_33  and  C_34 
REMARK   17  A    between atoms: C_34  and  C_35 
ROOT
HETATM    1  C           1     -19.857  -8.056  -5.214  0.00  0.00     0.187 C 
ENDROOT
BRANCH   1   2
HETATM    2  C           1     -21.123  -8.898  -5.283  0.00  0.00     0.066 C 
BRANCH   2   3
HETATM    3  C           1     -21.834  -8.860  -3.936  0.00  0.00     0.273 C 
BRANCH   3   4
HETATM    4  N           1     -21.098  -8.019  -3.029  0.00  0.00     0.098 N 
HETATM    5  H           1     -21.203  -7.044  -3.309  0.00  0.00     0.317 HD
BRANCH   4   6
HETATM    6  C           1     -21.652  -8.205  -1.715  0.00  0.00     0.320 C 
BRANCH   6   7
HETATM    7  C           1     -22.381  -6.951  -1.296  0.00  0.00     0.207 C 
HETATM    8  O           1     -23.076  -6.949  -0.257  0.00  0.00    -0.646 OA
HETATM    9  O           1     -22.290  -5.915  -1.990  0.00  0.00    -0.646 OA
ENDBRANCH   6   7
BRANCH   6  10
HETATM   10  C           1     -20.528  -8.492  -0.728  0.00  0.00     0.048 C 
BRANCH  10  11
HETATM   11  C           1     -20.959  -9.602   0.222  0.00  0.00     0.023 C 
BRANCH  11  12
HETATM   12  C           1     -21.429 -10.807  -0.583  0.00  0.00     0.138 C 
BRANCH  12  13
HETATM   13  N           1     -21.791 -11.898   0.333  0.00  0.00    -0.227 N 
HETATM   14  C           1     -23.005 -12.232   0.472  0.00  0.00     0.665 C 
HETATM   15  N           1     -23.906 -11.627  -0.179  0.00  0.00    -0.235 N 
HETATM   16  N           1     -23.325 -13.197   1.282  0.00  0.00    -0.235 N 
HETATM   17  H           1     -23.648 -10.847  -0.834  0.00  0.00     0.174 HD
HETATM   18  H           1     -24.912 -11.904  -0.064  0.00  0.00     0.174 HD
HETATM   19  H           1     -22.581 -13.696   1.819  0.00  0.00     0.174 HD
HETATM   20  H           1     -24.326 -13.472   1.396  0.00  0.00     0.174 HD
HETATM   21  H           1     -21.044 -12.400   0.873  0.00  0.00     0.177 HD
ENDBRANCH  12  13
ENDBRANCH  11  12
ENDBRANCH  10  11
ENDBRANCH   6  10
ENDBRANCH   4   6
ENDBRANCH   3   4
ENDBRANCH   2   3
ENDBRANCH   1   2
BRANCH   1  22
HETATM   22  C           1     -18.652  -8.937  -5.436  0.00  0.00     0.196 C 
HETATM   23  O           1     -18.155  -9.566  -4.478  0.00  0.00    -0.646 OA
HETATM   24  O           1     -18.153  -9.037  -6.577  0.00  0.00    -0.646 OA
ENDBRANCH   1  22
BRANCH   1  25
HETATM   25  N           1     -19.902  -7.032  -6.240  0.00  0.00    -0.345 N 
HETATM   26  C           1     -20.364  -5.780  -5.938  0.00  0.00     0.249 C 
HETATM   27  O           1     -20.735  -5.526  -4.817  0.00  0.00    -0.271 OA
HETATM   28  H           1     -19.590  -7.244  -7.180  0.00  0.00     0.163 HD
BRANCH  26  29
HETATM   29  C           1     -20.409  -4.714  -7.006  0.00  0.00     0.274 C 
BRANCH  29  30
HETATM   30  C           1     -21.351  -5.151  -8.121  0.00  0.00     0.044 C 
BRANCH  30  31
HETATM   31  C           1     -22.624  -4.317  -8.067  0.00  0.00     0.023 C 
BRANCH  31  32
HETATM   32  C           1     -23.258  -4.268  -9.452  0.00  0.00     0.138 C 
BRANCH  32  33
HETATM   33  N           1     -22.262  -3.812 -10.432  0.00  0.00    -0.227 N 
HETATM   34  C           1     -22.380  -4.132 -11.651  0.00  0.00     0.665 C 
HETATM   35  N           1     -23.382  -4.867 -12.035  0.00  0.00    -0.235 N 
HETATM   36  N           1     -21.523  -3.739 -12.495  0.00  0.00    -0.235 N 
HETATM   37  H           1     -23.479  -5.132 -13.042  0.00  0.00     0.174 HD
HETATM   38  H           1     -24.089  -5.192 -11.338  0.00  0.00     0.174 HD
HETATM   39  H           1     -21.621  -4.005 -13.506  0.00  0.00     0.174 HD
HETATM   40  H           1     -20.714  -3.146 -12.184  0.00  0.00     0.174 HD
HETATM   41  H           1     -21.454  -3.218 -10.121  0.00  0.00     0.177 HD
ENDBRANCH  32  33
ENDBRANCH  31  32
ENDBRANCH  30  31
ENDBRANCH  29  30
BRANCH  29  42
HETATM   42  N           1     -19.033  -4.512  -7.568  0.00  0.00    -0.067 N 
HETATM   43  H           1     -18.346  -4.428  -6.785  0.00  0.00     0.275 HD
HETATM   44  H           1     -18.778  -5.329  -8.167  0.00  0.00     0.275 HD
HETATM   45  H           1     -19.015  -3.638  -8.141  0.00  0.00     0.275 HD
ENDBRANCH  29  42
ENDBRANCH  26  29
ENDBRANCH   1  25
TORSDOF 17
ENDMDL
