MODEL 1
REMARK VINA RESULT:      -6.3      0.000      0.000
REMARK  3 active torsions:
REMARK  status: ('A' for Active; 'I' for Inactive)
REMARK    1  A    between atoms: N_1  and  C_7 
REMARK    2  A    between atoms: C_7  and  C_11 
REMARK       I    between atoms: C_11  and  N_12 
REMARK    3  A    between atoms: C_13  and  C_15 
ROOT
HETATM    1  O           1     -24.551  -4.021 -13.799  0.00  0.00    -0.272 OA
HETATM    2  C           1     -21.982  -2.467 -11.792  0.00  0.00     0.127 C 
HETATM    3  C           1     -21.059  -3.436 -11.071  0.00  0.00     0.022 C 
HETATM    4  C           1     -21.941  -4.624 -10.702  0.00  0.00     0.038 C 
HETATM    5  C           1     -23.673  -3.241 -13.518  0.00  0.00     0.246 C 
HETATM    6  N           1     -23.054  -3.318 -12.300  0.00  0.00    -0.336 N 
HETATM    7  C           1     -23.322  -4.269 -11.224  0.00  0.00     0.188 C 
ENDROOT
BRANCH   5   8
HETATM    8  C           1     -23.257  -2.183 -14.510  0.00  0.00     0.332 C 
BRANCH   8   9
HETATM    9  N           1     -24.147  -0.983 -14.365  0.00  0.00    -0.071 N 
HETATM   10  H           1     -23.693  -0.156 -14.815  0.00  0.00     0.274 HD
HETATM   11  H           1     -25.063  -1.173 -14.831  0.00  0.00     0.274 HD
HETATM   12  H           1     -24.303  -0.787 -13.351  0.00  0.00     0.274 HD
ENDBRANCH   8   9
ENDBRANCH   5   8
BRANCH   7  13
HETATM   13  C           1     -24.159  -3.633 -10.142  0.00  0.00     0.196 C 
HETATM   14  O           1     -25.253  -3.101 -10.429  0.00  0.00    -0.646 OA
HETATM   15  O           1     -23.758  -3.638  -8.957  0.00  0.00    -0.646 OA
ENDBRANCH   7  13
TORSDOF 3
ENDMDL
MODEL 2
REMARK VINA RESULT:      -5.2      2.740      4.818
REMARK  3 active torsions:
REMARK  status: ('A' for Active; 'I' for Inactive)
REMARK    1  A    between atoms: N_1  and  C_7 
REMARK    2  A    between atoms: C_7  and  C_11 
REMARK       I    between atoms: C_11  and  N_12 
REMARK    3  A    between atoms: C_13  and  C_15 
ROOT
HETATM    1  O           1     -22.487  -4.070  -7.562  0.00  0.00    -0.272 OA
HETATM    2  C           1     -20.549  -4.689 -10.546  0.00  0.00     0.127 C 
HETATM    3  C           1     -20.426  -3.503 -11.487  0.00  0.00     0.022 C 
HETATM    4  C           1     -21.757  -2.767 -11.375  0.00  0.00     0.038 C 
HETATM    5  C           1     -21.571  -4.480  -8.232  0.00  0.00     0.246 C 
HETATM    6  N           1     -21.565  -4.269  -9.585  0.00  0.00    -0.336 N 
HETATM    7  C           1     -22.573  -3.575 -10.381  0.00  0.00     0.188 C 
ENDROOT
BRANCH   5   8
HETATM    8  C           1     -20.431  -5.224  -7.580  0.00  0.00     0.332 C 
BRANCH   8   9
HETATM    9  N           1     -20.940  -6.509  -6.996  0.00  0.00    -0.071 N 
HETATM   10  H           1     -21.773  -6.313  -6.396  0.00  0.00     0.274 HD
HETATM   11  H           1     -21.214  -7.157  -7.769  0.00  0.00     0.274 HD
HETATM   12  H           1     -20.190  -6.950  -6.419  0.00  0.00     0.274 HD
ENDBRANCH   8   9
ENDBRANCH   5   8
BRANCH   7  13
HETATM   13  C           1     -23.465  -4.561 -11.095  0.00  0.00     0.196 C 
HETATM   14  O           1     -23.697  -4.424 -12.315  0.00  0.00    -0.646 OA
HETATM   15  O           1     -23.973  -5.515 -10.466  0.00  0.00    -0.646 OA
ENDBRANCH   7  13
TORSDOF 3
ENDMDL
MODEL 3
REMARK VINA RESULT:      -5.2      2.989      4.743
REMARK  3 active torsions:
REMARK  status: ('A' for Active; 'I' for Inactive)
REMARK    1  A    between atoms: N_1  and  C_7 
REMARK    2  A    between atoms: C_7  and  C_11 
REMARK       I    between atoms: C_11  and  N_12 
REMARK    3  A    between atoms: C_13  and  C_15 
ROOT
HETATM    1  O           1     -19.748  -5.036 -10.498  0.00  0.00    -0.272 OA
HETATM    2  C           1     -22.799  -3.837  -8.983  0.00  0.00     0.127 C 
HETATM    3  C           1     -24.063  -4.547  -9.439  0.00  0.00     0.022 C 
HETATM    4  C           1     -23.820  -4.888 -10.905  0.00  0.00     0.038 C 
HETATM    5  C           1     -20.483  -4.655  -9.619  0.00  0.00     0.246 C 
HETATM    6  N           1     -21.777  -4.314  -9.909  0.00  0.00    -0.336 N 
HETATM    7  C           1     -22.434  -4.348 -11.212  0.00  0.00     0.188 C 
ENDROOT
BRANCH   5   8
HETATM    8  C           1     -19.976  -4.555  -8.201  0.00  0.00     0.332 C 
BRANCH   8   9
HETATM    9  N           1     -20.033  -5.907  -7.553  0.00  0.00    -0.071 N 
HETATM   10  H           1     -19.489  -6.591  -8.126  0.00  0.00     0.274 HD
HETATM   11  H           1     -19.619  -5.850  -6.595  0.00  0.00     0.274 HD
HETATM   12  H           1     -21.028  -6.220  -7.487  0.00  0.00     0.274 HD
ENDBRANCH   8   9
ENDBRANCH   5   8
BRANCH   7  13
HETATM   13  C           1     -22.517  -2.964 -11.808  0.00  0.00     0.196 C 
HETATM   14  O           1     -23.586  -2.568 -12.322  0.00  0.00    -0.646 OA
HETATM   15  O           1     -21.518  -2.213 -11.788  0.00  0.00    -0.646 OA
ENDBRANCH   7  13
TORSDOF 3
ENDMDL
MODEL 4
REMARK VINA RESULT:      -4.9      2.060      2.825
REMARK  3 active torsions:
REMARK  status: ('A' for Active; 'I' for Inactive)
REMARK    1  A    between atoms: N_1  and  C_7 
REMARK    2  A    between atoms: C_7  and  C_11 
REMARK       I    between atoms: C_11  and  N_12 
REMARK    3  A    between atoms: C_13  and  C_15 
ROOT
HETATM    1  O           1     -24.184  -5.239 -10.425  0.00  0.00    -0.272 OA
HETATM    2  C           1     -21.450  -2.972 -11.084  0.00  0.00     0.127 C 
HETATM    3  C           1     -20.091  -3.635 -11.236  0.00  0.00     0.022 C 
HETATM    4  C           1     -20.114  -4.814 -10.269  0.00  0.00     0.038 C 
HETATM    5  C           1     -23.600  -4.312 -10.933  0.00  0.00     0.246 C 
HETATM    6  N           1     -22.306  -4.041 -10.578  0.00  0.00    -0.336 N 
HETATM    7  C           1     -21.481  -4.758  -9.610  0.00  0.00     0.188 C 
ENDROOT
BRANCH   5   8
HETATM    8  C           1     -24.295  -3.454 -11.962  0.00  0.00     0.332 C 
BRANCH   8   9
HETATM    9  N           1     -24.014  -3.992 -13.335  0.00  0.00    -0.071 N 
HETATM   10  H           1     -23.254  -4.708 -13.280  0.00  0.00     0.274 HD
HETATM   11  H           1     -24.880  -4.433 -13.718  0.00  0.00     0.274 HD
HETATM   12  H           1     -23.713  -3.210 -13.959  0.00  0.00     0.274 HD
ENDBRANCH   8   9
ENDBRANCH   5   8
BRANCH   7  13
HETATM   13  C           1     -21.417  -4.009  -8.301  0.00  0.00     0.196 C 
HETATM   14  O           1     -22.471  -3.683  -7.715  0.00  0.00    -0.646 OA
HETATM   15  O           1     -20.308  -3.716  -7.802  0.00  0.00    -0.646 OA
ENDBRANCH   7  13
TORSDOF 3
ENDMDL
MODEL 5
REMARK VINA RESULT:      -4.9      3.237      5.259
REMARK  3 active torsions:
REMARK  status: ('A' for Active; 'I' for Inactive)
REMARK    1  A    between atoms: N_1  and  C_7 
REMARK    2  A    between atoms: C_7  and  C_11 
REMARK       I    between atoms: C_11  and  N_12 
REMARK    3  A    between atoms: C_13  and  C_15 
ROOT
HETATM    1  O           1     -20.338  -5.466  -8.622  0.00  0.00    -0.272 OA
HETATM    2  C           1     -23.427  -3.649  -9.070  0.00  0.00     0.127 C 
HETATM    3  C           1     -24.367  -4.232 -10.112  0.00  0.00     0.022 C 
HETATM    4  C           1     -23.457  -4.805 -11.192  0.00  0.00     0.038 C 
HETATM    5  C           1     -21.335  -4.865  -8.304  0.00  0.00     0.246 C 
HETATM    6  N           1     -22.185  -4.390  -9.267  0.00  0.00    -0.336 N 
HETATM    7  C           1     -22.045  -4.514 -10.716  0.00  0.00     0.188 C 
ENDROOT
BRANCH   5   8
HETATM    8  C           1     -21.648  -4.640  -6.845  0.00  0.00     0.332 C 
BRANCH   8   9
HETATM    9  N           1     -20.389  -4.756  -6.039  0.00  0.00    -0.071 N 
HETATM   10  H           1     -20.036  -5.739  -6.082  0.00  0.00     0.274 HD
HETATM   11  H           1     -19.666  -4.110  -6.430  0.00  0.00     0.274 HD
HETATM   12  H           1     -20.587  -4.500  -5.045  0.00  0.00     0.274 HD
ENDBRANCH   8   9
ENDBRANCH   5   8
BRANCH   7  13
HETATM   13  C           1     -21.529  -3.229 -11.317  0.00  0.00     0.196 C 
HETATM   14  O           1     -20.355  -2.863 -11.095  0.00  0.00    -0.646 OA
HETATM   15  O           1     -22.276  -2.532 -12.037  0.00  0.00    -0.646 OA
ENDBRANCH   7  13
TORSDOF 3
ENDMDL
MODEL 6
REMARK VINA RESULT:      -4.7      3.298      4.378
REMARK  3 active torsions:
REMARK  status: ('A' for Active; 'I' for Inactive)
REMARK    1  A    between atoms: N_1  and  C_7 
REMARK    2  A    between atoms: C_7  and  C_11 
REMARK       I    between atoms: C_11  and  N_12 
REMARK    3  A    between atoms: C_13  and  C_15 
ROOT
HETATM    1  O           1     -22.810  -5.182 -10.108  0.00  0.00    -0.272 OA
HETATM    2  C           1     -20.214  -3.668  -8.105  0.00  0.00     0.127 C 
HETATM    3  C           1     -19.179  -4.638  -7.558  0.00  0.00     0.022 C 
HETATM    4  C           1     -19.951  -5.922  -7.271  0.00  0.00     0.038 C 
HETATM    5  C           1     -21.969  -4.374  -9.797  0.00  0.00     0.246 C 
HETATM    6  N           1     -21.260  -4.537  -8.637  0.00  0.00    -0.336 N 
HETATM    7  C           1     -21.386  -5.616  -7.661  0.00  0.00     0.188 C 
ENDROOT
BRANCH   5   8
HETATM    8  C           1     -21.697  -3.186 -10.686  0.00  0.00     0.332 C 
BRANCH   8   9
HETATM    9  N           1     -20.653  -3.548 -11.701  0.00  0.00    -0.071 N 
HETATM   10  H           1     -20.296  -2.680 -12.160  0.00  0.00     0.274 HD
HETATM   11  H           1     -19.863  -4.040 -11.225  0.00  0.00     0.274 HD
HETATM   12  H           1     -21.073  -4.177 -12.423  0.00  0.00     0.274 HD
ENDBRANCH   8   9
ENDBRANCH   5   8
BRANCH   7  13
HETATM   13  C           1     -22.184  -5.166  -6.463  0.00  0.00     0.196 C 
HETATM   14  O           1     -23.288  -4.601  -6.623  0.00  0.00    -0.646 OA
HETATM   15  O           1     -21.743  -5.359  -5.309  0.00  0.00    -0.646 OA
ENDBRANCH   7  13
TORSDOF 3
ENDMDL
MODEL 7
REMARK VINA RESULT:      -4.5     11.393     13.100
REMARK  3 active torsions:
REMARK  status: ('A' for Active; 'I' for Inactive)
REMARK    1  A    between atoms: N_1  and  C_7 
REMARK    2  A    between atoms: C_7  and  C_11 
REMARK       I    between atoms: C_11  and  N_12 
REMARK    3  A    between atoms: C_13  and  C_15 
ROOT
HETATM    1  O           1     -22.315  -7.430   0.129  0.00  0.00    -0.272 OA
HETATM    2  C           1     -21.974 -10.125  -2.252  0.00  0.00     0.127 C 
HETATM    3  C           1     -23.133 -11.107  -2.278  0.00  0.00     0.022 C 
HETATM    4  C           1     -23.614 -11.193  -0.833  0.00  0.00     0.038 C 
HETATM    5  C           1     -22.061  -7.964  -0.924  0.00  0.00     0.246 C 
HETATM    6  N           1     -22.228  -9.316  -1.063  0.00  0.00    -0.336 N 
HETATM    7  C           1     -22.700 -10.262  -0.056  0.00  0.00     0.188 C 
ENDROOT
BRANCH   5   8
HETATM    8  C           1     -21.560  -7.142  -2.086  0.00  0.00     0.332 C 
BRANCH   8   9
HETATM    9  N           1     -22.346  -5.868  -2.174  0.00  0.00    -0.071 N 
HETATM   10  H           1     -21.927  -5.249  -2.904  0.00  0.00     0.274 HD
HETATM   11  H           1     -23.335  -6.088  -2.431  0.00  0.00     0.274 HD
HETATM   12  H           1     -22.324  -5.381  -1.250  0.00  0.00     0.274 HD
ENDBRANCH   8   9
ENDBRANCH   5   8
BRANCH   7  13
HETATM   13  C           1     -21.545 -11.024   0.547  0.00  0.00     0.196 C 
HETATM   14  O           1     -21.581 -12.272   0.604  0.00  0.00    -0.646 OA
HETATM   15  O           1     -20.551 -10.407   0.989  0.00  0.00    -0.646 OA
ENDBRANCH   7  13
TORSDOF 3
ENDMDL
MODEL 8
REMARK VINA RESULT:      -4.5     10.512     12.090
REMARK  3 active torsions:
REMARK  status: ('A' for Active; 'I' for Inactive)
REMARK    1  A    between atoms: N_1  and  C_7 
REMARK    2  A    between atoms: C_7  and  C_11 
REMARK       I    between atoms: C_11  and  N_12 
REMARK    3  A    between atoms: C_13  and  C_15 
ROOT
HETATM    1  O           1     -20.455  -8.296  -3.148  0.00  0.00    -0.272 OA
HETATM    2  C           1     -22.568  -7.536  -0.320  0.00  0.00     0.127 C 
HETATM    3  C           1     -22.017  -7.974   1.027  0.00  0.00     0.022 C 
HETATM    4  C           1     -21.264  -9.270   0.747  0.00  0.00     0.038 C 
HETATM    5  C           1     -21.186  -7.642  -2.445  0.00  0.00     0.246 C 
HETATM    6  N           1     -21.679  -8.176  -1.285  0.00  0.00    -0.336 N 
HETATM    7  C           1     -21.430  -9.509  -0.744  0.00  0.00     0.188 C 
ENDROOT
BRANCH   5   8
HETATM    8  C           1     -21.556  -6.234  -2.845  0.00  0.00     0.332 C 
BRANCH   8   9
HETATM    9  N           1     -22.227  -6.254  -4.186  0.00  0.00    -0.071 N 
HETATM   10  H           1     -23.228  -5.974  -4.079  0.00  0.00     0.274 HD
HETATM   11  H           1     -21.745  -5.582  -4.825  0.00  0.00     0.274 HD
HETATM   12  H           1     -22.175  -7.218  -4.587  0.00  0.00     0.274 HD
ENDBRANCH   8   9
ENDBRANCH   5   8
BRANCH   7  13
HETATM   13  C           1     -22.599 -10.424  -1.014  0.00  0.00     0.196 C 
HETATM   14  O           1     -23.261 -10.890  -0.061  0.00  0.00    -0.646 OA
HETATM   15  O           1     -22.905 -10.718  -2.190  0.00  0.00    -0.646 OA
ENDBRANCH   7  13
TORSDOF 3
ENDMDL
MODEL 9
REMARK VINA RESULT:      -4.3     15.093     16.489
REMARK  3 active torsions:
REMARK  status: ('A' for Active; 'I' for Inactive)
REMARK    1  A    between atoms: N_1  and  C_7 
REMARK    2  A    between atoms: C_7  and  C_11 
REMARK       I    between atoms: C_11  and  N_12 
REMARK    3  A    between atoms: C_13  and  C_15 
ROOT
HETATM    1  O           1     -29.731 -12.985 -19.229  0.00  0.00    -0.272 OA
HETATM    2  C           1     -30.065 -16.477 -20.091  0.00  0.00     0.127 C 
HETATM    3  C           1     -29.236 -16.924 -21.284  0.00  0.00     0.022 C 
HETATM    4  C           1     -29.220 -15.726 -22.228  0.00  0.00     0.038 C 
HETATM    5  C           1     -29.806 -14.177 -19.050  0.00  0.00     0.246 C 
HETATM    6  N           1     -29.957 -15.021 -20.117  0.00  0.00    -0.336 N 
HETATM    7  C           1     -30.047 -14.661 -21.529  0.00  0.00     0.188 C 
ENDROOT
BRANCH   5   8
HETATM    8  C           1     -29.731 -14.736 -17.650  0.00  0.00     0.332 C 
BRANCH   8   9
HETATM    9  N           1     -28.317 -15.130 -17.343  0.00  0.00    -0.071 N 
HETATM   10  H           1     -28.294 -15.688 -16.460  0.00  0.00     0.274 HD
HETATM   11  H           1     -27.939 -15.707 -18.128  0.00  0.00     0.274 HD
HETATM   12  H           1     -27.733 -14.271 -17.228  0.00  0.00     0.274 HD
ENDBRANCH   8   9
ENDBRANCH   5   8
BRANCH   7  13
HETATM   13  C           1     -31.479 -14.697 -22.002  0.00  0.00     0.196 C 
HETATM   14  O           1     -32.074 -13.632 -22.275  0.00  0.00    -0.646 OA
HETATM   15  O           1     -32.072 -15.791 -22.122  0.00  0.00    -0.646 OA
ENDBRANCH   7  13
TORSDOF 3
ENDMDL
