MODEL 1
REMARK VINA RESULT:      -7.4      0.000      0.000
REMARK  12 active torsions:
REMARK  status: ('A' for Active; 'I' for Inactive)
REMARK    1  A    between atoms: C_1  and  O_22 
REMARK    2  A    between atoms: C_4  and  C_5 
REMARK    3  A    between atoms: C_5  and  C_26 
REMARK    4  A    between atoms: N_8  and  C_13 
REMARK    5  A    between atoms: Se_10  and  C_11 
REMARK    6  A    between atoms: C_11  and  C_12 
REMARK    7  A    between atoms: C_12  and  C_13 
REMARK    8  A    between atoms: C_13  and  C_14 
REMARK       I    between atoms: C_14  and  N_15 
REMARK    9  A    between atoms: N_15  and  C_26 
REMARK   10  A    between atoms: O_19  and  P_21 
REMARK   11  A    between atoms: P_21  and  O_22 
REMARK   12  A    between atoms: C_24  and  C_26 
ROOT
HETATM    1  C           1     -32.407  -4.500 -16.310  0.00  0.00     0.189 C 
ENDROOT
BRANCH   1   2
HETATM    2  C           1     -32.001  -5.769 -17.049  0.00  0.00     0.074 C 
BRANCH   2   3
HETATM    3  C           1     -30.641  -6.198 -16.596  0.00  0.00    -0.056 A 
HETATM    4  C           1     -30.032  -5.560 -15.515  0.00  0.00     0.010 A 
HETATM    5  C           1     -28.764  -5.959 -15.092  0.00  0.00     0.038 A 
HETATM    6  C           1     -28.106  -6.998 -15.750  0.00  0.00     0.081 A 
HETATM    7  C           1     -28.714  -7.637 -16.830  0.00  0.00     0.038 A 
HETATM    8  C           1     -29.981  -7.236 -17.252  0.00  0.00     0.010 A 
BRANCH   6   9
HETATM    9  O           1     -26.874  -7.386 -15.339  0.00  0.00    -0.247 OA
BRANCH   9  10
HETATM   10  P           1     -25.590  -6.697 -16.036  0.00  0.00     0.411 P 
HETATM   11  O           1     -24.577  -7.733 -16.337  0.00  0.00    -0.624 OA
HETATM   12  O           1     -26.006  -6.036 -17.293  0.00  0.00    -0.624 OA
BRANCH  10  13
HETATM   13  O           1     -24.959  -5.599 -15.034  0.00  0.00    -0.300 OA
HETATM   14  H           1     -24.052  -5.534 -15.284  0.00  0.00     0.223 HD
ENDBRANCH  10  13
ENDBRANCH   9  10
ENDBRANCH   6   9
ENDBRANCH   2   3
ENDBRANCH   1   2
BRANCH   1  15
HETATM   15  N           1     -33.736  -4.669 -15.757  0.00  0.00    -0.344 N 
HETATM   16  C           1     -34.069  -4.059 -14.577  0.00  0.00     0.249 C 
HETATM   17  O           1     -34.540  -2.947 -14.583  0.00  0.00    -0.271 OA
HETATM   18  H           1     -34.419  -5.236 -16.243  0.00  0.00     0.163 HD
BRANCH  16  19
HETATM   19  C           1     -33.845  -4.776 -13.269  0.00  0.00     0.274 C 
BRANCH  19  20
HETATM   20  N           1     -32.435  -4.550 -12.809  0.00  0.00    -0.067 N 
HETATM   21  H           1     -31.771  -4.971 -13.499  0.00  0.00     0.275 HD
HETATM   22  H           1     -32.253  -3.523 -12.735  0.00  0.00     0.275 HD
HETATM   23  H           1     -32.297  -4.998 -11.875  0.00  0.00     0.275 HD
ENDBRANCH  19  20
BRANCH  19  24
HETATM   24  C           1     -34.811  -4.237 -12.221  0.00  0.00     0.042 C 
BRANCH  24  25
HETATM   25  C           1     -34.072  -4.037 -10.904  0.00  0.00     0.003 C 
BRANCH  25  26
HETATM   26 Se           1     -33.872  -2.130 -10.555  0.00  0.00     0.000 Se
HETATM   27  C           1     -35.512  -1.622 -11.477  0.00  0.00     0.000 C 
ENDBRANCH  25  26
ENDBRANCH  24  25
ENDBRANCH  19  24
ENDBRANCH  16  19
ENDBRANCH   1  15
BRANCH   1  28
HETATM   28  C           1     -32.406  -3.337 -17.271  0.00  0.00     0.197 C 
HETATM   29  O           1     -33.484  -2.792 -17.593  0.00  0.00    -0.646 OA
HETATM   30  O           1     -31.328  -2.917 -17.745  0.00  0.00    -0.646 OA
ENDBRANCH   1  28
TORSDOF 12
ENDMDL
MODEL 2
REMARK VINA RESULT:      -7.1     12.059     14.420
REMARK  12 active torsions:
REMARK  status: ('A' for Active; 'I' for Inactive)
REMARK    1  A    between atoms: C_1  and  O_22 
REMARK    2  A    between atoms: C_4  and  C_5 
REMARK    3  A    between atoms: C_5  and  C_26 
REMARK    4  A    between atoms: N_8  and  C_13 
REMARK    5  A    between atoms: Se_10  and  C_11 
REMARK    6  A    between atoms: C_11  and  C_12 
REMARK    7  A    between atoms: C_12  and  C_13 
REMARK    8  A    between atoms: C_13  and  C_14 
REMARK       I    between atoms: C_14  and  N_15 
REMARK    9  A    between atoms: N_15  and  C_26 
REMARK   10  A    between atoms: O_19  and  P_21 
REMARK   11  A    between atoms: P_21  and  O_22 
REMARK   12  A    between atoms: C_24  and  C_26 
ROOT
HETATM    1  C           1     -21.643  -6.836  -5.396  0.00  0.00     0.189 C 
ENDROOT
BRANCH   1   2
HETATM    2  C           1     -20.665  -5.735  -5.788  0.00  0.00     0.074 C 
BRANCH   2   3
HETATM    3  C           1     -21.125  -5.088  -7.057  0.00  0.00    -0.056 A 
HETATM    4  C           1     -20.299  -5.089  -8.181  0.00  0.00     0.010 A 
HETATM    5  C           1     -20.728  -4.486  -9.363  0.00  0.00     0.038 A 
HETATM    6  C           1     -21.984  -3.882  -9.421  0.00  0.00     0.081 A 
HETATM    7  C           1     -22.811  -3.880  -8.298  0.00  0.00     0.038 A 
HETATM    8  C           1     -22.381  -4.484  -7.116  0.00  0.00     0.010 A 
BRANCH   6   9
HETATM    9  O           1     -22.401  -3.296 -10.570  0.00  0.00    -0.247 OA
BRANCH   9  10
HETATM   10  P           1     -23.693  -3.918 -11.312  0.00  0.00     0.411 P 
HETATM   11  O           1     -23.586  -3.683 -12.769  0.00  0.00    -0.624 OA
HETATM   12  O           1     -23.759  -5.374 -11.052  0.00  0.00    -0.624 OA
BRANCH  10  13
HETATM   13  O           1     -25.031  -3.210 -10.748  0.00  0.00    -0.300 OA
HETATM   14  H           1     -25.676  -3.896 -10.720  0.00  0.00     0.223 HD
ENDBRANCH  10  13
ENDBRANCH   9  10
ENDBRANCH   6   9
ENDBRANCH   2   3
ENDBRANCH   1   2
BRANCH   1  15
HETATM   15  N           1     -22.381  -6.427  -4.217  0.00  0.00    -0.344 N 
HETATM   16  C           1     -21.742  -6.327  -3.011  0.00  0.00     0.249 C 
HETATM   17  O           1     -21.230  -5.283  -2.682  0.00  0.00    -0.271 OA
HETATM   18  H           1     -23.368  -6.215  -4.286  0.00  0.00     0.163 HD
BRANCH  16  19
HETATM   19  C           1     -21.676  -7.522  -2.091  0.00  0.00     0.274 C 
BRANCH  19  20
HETATM   20  N           1     -20.241  -7.865  -1.820  0.00  0.00    -0.067 N 
HETATM   21  H           1     -20.174  -8.414  -0.933  0.00  0.00     0.275 HD
HETATM   22  H           1     -19.865  -8.436  -2.611  0.00  0.00     0.275 HD
HETATM   23  H           1     -19.684  -6.986  -1.729  0.00  0.00     0.275 HD
ENDBRANCH  19  20
BRANCH  19  24
HETATM   24  C           1     -22.374  -7.193  -0.778  0.00  0.00     0.042 C 
BRANCH  24  25
HETATM   25  C           1     -22.113  -8.305   0.229  0.00  0.00     0.003 C 
BRANCH  25  26
HETATM   26 Se           1     -22.932  -9.957  -0.401  0.00  0.00     0.000 Se
HETATM   27  C           1     -21.507 -11.109   0.262  0.00  0.00     0.000 C 
ENDBRANCH  25  26
ENDBRANCH  24  25
ENDBRANCH  19  24
ENDBRANCH  16  19
ENDBRANCH   1  15
BRANCH   1  28
HETATM   28  C           1     -20.881  -8.104  -5.098  0.00  0.00     0.197 C 
HETATM   29  O           1     -21.487  -9.195  -5.028  0.00  0.00    -0.646 OA
HETATM   30  O           1     -19.644  -8.063  -4.921  0.00  0.00    -0.646 OA
ENDBRANCH   1  28
TORSDOF 12
ENDMDL
MODEL 3
REMARK VINA RESULT:      -6.9     11.980     14.467
REMARK  12 active torsions:
REMARK  status: ('A' for Active; 'I' for Inactive)
REMARK    1  A    between atoms: C_1  and  O_22 
REMARK    2  A    between atoms: C_4  and  C_5 
REMARK    3  A    between atoms: C_5  and  C_26 
REMARK    4  A    between atoms: N_8  and  C_13 
REMARK    5  A    between atoms: Se_10  and  C_11 
REMARK    6  A    between atoms: C_11  and  C_12 
REMARK    7  A    between atoms: C_12  and  C_13 
REMARK    8  A    between atoms: C_13  and  C_14 
REMARK       I    between atoms: C_14  and  N_15 
REMARK    9  A    between atoms: N_15  and  C_26 
REMARK   10  A    between atoms: O_19  and  P_21 
REMARK   11  A    between atoms: P_21  and  O_22 
REMARK   12  A    between atoms: C_24  and  C_26 
ROOT
HETATM    1  C           1     -20.671  -7.428  -5.800  0.00  0.00     0.189 C 
ENDROOT
BRANCH   1   2
HETATM    2  C           1     -20.375  -5.935  -5.733  0.00  0.00     0.074 C 
BRANCH   2   3
HETATM    3  C           1     -20.892  -5.268  -6.969  0.00  0.00    -0.056 A 
HETATM    4  C           1     -20.125  -5.263  -8.134  0.00  0.00     0.010 A 
HETATM    5  C           1     -20.607  -4.642  -9.285  0.00  0.00     0.038 A 
HETATM    6  C           1     -21.859  -4.027  -9.273  0.00  0.00     0.081 A 
HETATM    7  C           1     -22.628  -4.033  -8.110  0.00  0.00     0.038 A 
HETATM    8  C           1     -22.144  -4.654  -6.958  0.00  0.00     0.010 A 
BRANCH   6   9
HETATM    9  O           1     -22.328  -3.424 -10.392  0.00  0.00    -0.247 OA
BRANCH   9  10
HETATM   10  P           1     -23.650  -4.040 -11.087  0.00  0.00     0.411 P 
HETATM   11  O           1     -23.898  -5.399 -10.557  0.00  0.00    -0.624 OA
HETATM   12  O           1     -24.814  -3.175 -10.790  0.00  0.00    -0.624 OA
BRANCH  10  13
HETATM   13  O           1     -23.430  -4.115 -12.686  0.00  0.00    -0.300 OA
HETATM   14  H           1     -23.444  -3.219 -12.976  0.00  0.00     0.223 HD
ENDBRANCH  10  13
ENDBRANCH   9  10
ENDBRANCH   6   9
ENDBRANCH   2   3
ENDBRANCH   1   2
BRANCH   1  15
HETATM   15  N           1     -21.581  -7.787  -4.730  0.00  0.00    -0.344 N 
HETATM   16  C           1     -22.066  -6.821  -3.891  0.00  0.00     0.249 C 
HETATM   17  O           1     -23.092  -6.244  -4.162  0.00  0.00    -0.271 OA
HETATM   18  H           1     -21.858  -8.753  -4.604  0.00  0.00     0.163 HD
BRANCH  16  19
HETATM   19  C           1     -21.318  -6.475  -2.627  0.00  0.00     0.274 C 
BRANCH  19  20
HETATM   20  N           1     -22.214  -5.691  -1.714  0.00  0.00    -0.067 N 
HETATM   21  H           1     -22.552  -4.833  -2.208  0.00  0.00     0.275 HD
HETATM   22  H           1     -23.034  -6.280  -1.441  0.00  0.00     0.275 HD
HETATM   23  H           1     -21.683  -5.414  -0.859  0.00  0.00     0.275 HD
ENDBRANCH  19  20
BRANCH  19  24
HETATM   24  C           1     -20.879  -7.755  -1.928  0.00  0.00     0.042 C 
BRANCH  24  25
HETATM   25  C           1     -22.041  -8.318  -1.121  0.00  0.00     0.003 C 
BRANCH  25  26
HETATM   26 Se           1     -21.521  -8.463   0.752  0.00  0.00     0.000 Se
HETATM   27  C           1     -20.938 -10.317   0.616  0.00  0.00     0.000 C 
ENDBRANCH  25  26
ENDBRANCH  24  25
ENDBRANCH  19  24
ENDBRANCH  16  19
ENDBRANCH   1  15
BRANCH   1  28
HETATM   28  C           1     -19.385  -8.204  -5.647  0.00  0.00     0.197 C 
HETATM   29  O           1     -18.510  -8.144  -6.538  0.00  0.00    -0.646 OA
HETATM   30  O           1     -19.195  -8.904  -4.630  0.00  0.00    -0.646 OA
ENDBRANCH   1  28
TORSDOF 12
ENDMDL
MODEL 4
REMARK VINA RESULT:      -6.1     12.564     15.002
REMARK  12 active torsions:
REMARK  status: ('A' for Active; 'I' for Inactive)
REMARK    1  A    between atoms: C_1  and  O_22 
REMARK    2  A    between atoms: C_4  and  C_5 
REMARK    3  A    between atoms: C_5  and  C_26 
REMARK    4  A    between atoms: N_8  and  C_13 
REMARK    5  A    between atoms: Se_10  and  C_11 
REMARK    6  A    between atoms: C_11  and  C_12 
REMARK    7  A    between atoms: C_12  and  C_13 
REMARK    8  A    between atoms: C_13  and  C_14 
REMARK       I    between atoms: C_14  and  N_15 
REMARK    9  A    between atoms: N_15  and  C_26 
REMARK   10  A    between atoms: O_19  and  P_21 
REMARK   11  A    between atoms: P_21  and  O_22 
REMARK   12  A    between atoms: C_24  and  C_26 
ROOT
HETATM    1  C           1     -20.959  -7.220  -3.803  0.00  0.00     0.189 C 
ENDROOT
BRANCH   1   2
HETATM    2  C           1     -22.041  -7.150  -4.873  0.00  0.00     0.074 C 
BRANCH   2   3
HETATM    3  C           1     -21.612  -6.208  -5.954  0.00  0.00    -0.056 A 
HETATM    4  C           1     -20.332  -6.307  -6.501  0.00  0.00     0.010 A 
HETATM    5  C           1     -19.933  -5.430  -7.509  0.00  0.00     0.038 A 
HETATM    6  C           1     -20.815  -4.452  -7.971  0.00  0.00     0.081 A 
HETATM    7  C           1     -22.094  -4.352  -7.426  0.00  0.00     0.038 A 
HETATM    8  C           1     -22.493  -5.230  -6.417  0.00  0.00     0.010 A 
BRANCH   6   9
HETATM    9  O           1     -20.427  -3.600  -8.950  0.00  0.00    -0.247 OA
BRANCH   9  10
HETATM   10  P           1     -20.641  -4.060 -10.484  0.00  0.00     0.411 P 
HETATM   11  O           1     -19.646  -5.100 -10.830  0.00  0.00    -0.624 OA
HETATM   12  O           1     -22.005  -4.609 -10.649  0.00  0.00    -0.624 OA
BRANCH  10  13
HETATM   13  O           1     -20.452  -2.786 -11.459  0.00  0.00    -0.300 OA
HETATM   14  H           1     -19.553  -2.828 -11.742  0.00  0.00     0.223 HD
ENDBRANCH  10  13
ENDBRANCH   9  10
ENDBRANCH   6   9
ENDBRANCH   2   3
ENDBRANCH   1   2
BRANCH   1  15
HETATM   15  N           1     -20.471  -8.582  -3.700  0.00  0.00    -0.344 N 
HETATM   16  C           1     -20.998  -9.560  -4.499  0.00  0.00     0.249 C 
HETATM   17  O           1     -20.509  -9.787  -5.580  0.00  0.00    -0.271 OA
HETATM   18  H           1     -19.740  -8.809  -3.038  0.00  0.00     0.163 HD
BRANCH  16  19
HETATM   19  C           1     -22.193 -10.354  -4.030  0.00  0.00     0.274 C 
BRANCH  19  20
HETATM   20  N           1     -22.166 -11.716  -4.658  0.00  0.00    -0.067 N 
HETATM   21  H           1     -22.728 -12.380  -4.079  0.00  0.00     0.275 HD
HETATM   22  H           1     -22.572 -11.664  -5.620  0.00  0.00     0.275 HD
HETATM   23  H           1     -21.178 -12.054  -4.715  0.00  0.00     0.275 HD
ENDBRANCH  19  20
BRANCH  19  24
HETATM   24  C           1     -22.148 -10.495  -2.514  0.00  0.00     0.042 C 
BRANCH  24  25
HETATM   25  C           1     -23.056 -11.639  -2.083  0.00  0.00     0.003 C 
BRANCH  25  26
HETATM   26 Se           1     -23.257 -11.613  -0.145  0.00  0.00     0.000 Se
HETATM   27  C           1     -21.623 -10.601   0.176  0.00  0.00     0.000 C 
ENDBRANCH  25  26
ENDBRANCH  24  25
ENDBRANCH  19  24
ENDBRANCH  16  19
ENDBRANCH   1  15
BRANCH   1  28
HETATM   28  C           1     -21.535  -6.791  -2.476  0.00  0.00     0.197 C 
HETATM   29  O           1     -22.403  -5.893  -2.433  0.00  0.00    -0.646 OA
HETATM   30  O           1     -21.144  -7.334  -1.420  0.00  0.00    -0.646 OA
ENDBRANCH   1  28
TORSDOF 12
ENDMDL
MODEL 5
REMARK VINA RESULT:      -6.0     12.907     15.268
REMARK  12 active torsions:
REMARK  status: ('A' for Active; 'I' for Inactive)
REMARK    1  A    between atoms: C_1  and  O_22 
REMARK    2  A    between atoms: C_4  and  C_5 
REMARK    3  A    between atoms: C_5  and  C_26 
REMARK    4  A    between atoms: N_8  and  C_13 
REMARK    5  A    between atoms: Se_10  and  C_11 
REMARK    6  A    between atoms: C_11  and  C_12 
REMARK    7  A    between atoms: C_12  and  C_13 
REMARK    8  A    between atoms: C_13  and  C_14 
REMARK       I    between atoms: C_14  and  N_15 
REMARK    9  A    between atoms: N_15  and  C_26 
REMARK   10  A    between atoms: O_19  and  P_21 
REMARK   11  A    between atoms: P_21  and  O_22 
REMARK   12  A    between atoms: C_24  and  C_26 
ROOT
HETATM    1  C           1     -21.079  -7.051  -5.970  0.00  0.00     0.189 C 
ENDROOT
BRANCH   1   2
HETATM    2  C           1     -19.905  -7.733  -5.280  0.00  0.00     0.074 C 
BRANCH   2   3
HETATM    3  C           1     -20.420  -8.737  -4.296  0.00  0.00    -0.056 A 
HETATM    4  C           1     -21.560  -9.484  -4.592  0.00  0.00     0.010 A 
HETATM    5  C           1     -22.038 -10.420  -3.675  0.00  0.00     0.038 A 
HETATM    6  C           1     -21.377 -10.608  -2.461  0.00  0.00     0.081 A 
HETATM    7  C           1     -20.237  -9.862  -2.165  0.00  0.00     0.038 A 
HETATM    8  C           1     -19.759  -8.926  -3.082  0.00  0.00     0.010 A 
BRANCH   6   9
HETATM    9  O           1     -21.843 -11.517  -1.571  0.00  0.00    -0.247 OA
BRANCH   9  10
HETATM   10  P           1     -22.433 -10.971  -0.170  0.00  0.00     0.411 P 
HETATM   11  O           1     -23.077  -9.656  -0.385  0.00  0.00    -0.624 OA
HETATM   12  O           1     -23.432 -11.930   0.352  0.00  0.00    -0.624 OA
BRANCH  10  13
HETATM   13  O           1     -21.229 -10.815   0.896  0.00  0.00    -0.300 OA
HETATM   14  H           1     -20.494 -11.251   0.499  0.00  0.00     0.223 HD
ENDBRANCH  10  13
ENDBRANCH   9  10
ENDBRANCH   6   9
ENDBRANCH   2   3
ENDBRANCH   1   2
BRANCH   1  15
HETATM   15  N           1     -20.588  -6.245  -7.071  0.00  0.00    -0.344 N 
HETATM   16  C           1     -21.133  -5.013  -7.314  0.00  0.00     0.249 C 
HETATM   17  O           1     -20.669  -4.032  -6.785  0.00  0.00    -0.271 OA
HETATM   18  H           1     -19.842  -6.593  -7.660  0.00  0.00     0.163 HD
BRANCH  16  19
HETATM   19  C           1     -22.316  -4.881  -8.241  0.00  0.00     0.274 C 
BRANCH  19  20
HETATM   20  N           1     -23.445  -4.206  -7.520  0.00  0.00    -0.067 N 
HETATM   21  H           1     -24.258  -4.098  -8.167  0.00  0.00     0.275 HD
HETATM   22  H           1     -23.729  -4.786  -6.698  0.00  0.00     0.275 HD
HETATM   23  H           1     -23.133  -3.264  -7.191  0.00  0.00     0.275 HD
ENDBRANCH  19  20
BRANCH  19  24
HETATM   24  C           1     -21.921  -4.050  -9.455  0.00  0.00     0.042 C 
BRANCH  24  25
HETATM   25  C           1     -22.708  -4.520 -10.671  0.00  0.00     0.003 C 
BRANCH  25  26
HETATM   26 Se           1     -24.201  -3.307 -10.987  0.00  0.00     0.000 Se
HETATM   27  C           1     -23.807  -3.053 -12.879  0.00  0.00     0.000 C 
ENDBRANCH  25  26
ENDBRANCH  24  25
ENDBRANCH  19  24
ENDBRANCH  16  19
ENDBRANCH   1  15
BRANCH   1  28
HETATM   28  C           1     -21.799  -6.166  -4.982  0.00  0.00     0.197 C 
HETATM   29  O           1     -23.041  -6.043  -5.044  0.00  0.00    -0.646 OA
HETATM   30  O           1     -21.153  -5.557  -4.102  0.00  0.00    -0.646 OA
ENDBRANCH   1  28
TORSDOF 12
ENDMDL
MODEL 6
REMARK VINA RESULT:      -6.0     12.772     15.683
REMARK  12 active torsions:
REMARK  status: ('A' for Active; 'I' for Inactive)
REMARK    1  A    between atoms: C_1  and  O_22 
REMARK    2  A    between atoms: C_4  and  C_5 
REMARK    3  A    between atoms: C_5  and  C_26 
REMARK    4  A    between atoms: N_8  and  C_13 
REMARK    5  A    between atoms: Se_10  and  C_11 
REMARK    6  A    between atoms: C_11  and  C_12 
REMARK    7  A    between atoms: C_12  and  C_13 
REMARK    8  A    between atoms: C_13  and  C_14 
REMARK       I    between atoms: C_14  and  N_15 
REMARK    9  A    between atoms: N_15  and  C_26 
REMARK   10  A    between atoms: O_19  and  P_21 
REMARK   11  A    between atoms: P_21  and  O_22 
REMARK   12  A    between atoms: C_24  and  C_26 
ROOT
HETATM    1  C           1     -20.872  -7.448  -3.805  0.00  0.00     0.189 C 
ENDROOT
BRANCH   1   2
HETATM    2  C           1     -21.949  -7.381  -4.881  0.00  0.00     0.074 C 
BRANCH   2   3
HETATM    3  C           1     -21.544  -6.394  -5.931  0.00  0.00    -0.056 A 
HETATM    4  C           1     -22.453  -5.433  -6.375  0.00  0.00     0.010 A 
HETATM    5  C           1     -22.075  -4.514  -7.353  0.00  0.00     0.038 A 
HETATM    6  C           1     -20.787  -4.556  -7.888  0.00  0.00     0.081 A 
HETATM    7  C           1     -19.878  -5.515  -7.444  0.00  0.00     0.038 A 
HETATM    8  C           1     -20.257  -6.434  -6.466  0.00  0.00     0.010 A 
BRANCH   6   9
HETATM    9  O           1     -20.420  -3.662  -8.838  0.00  0.00    -0.247 OA
BRANCH   9  10
HETATM   10  P           1     -20.627  -4.075 -10.386  0.00  0.00     0.411 P 
HETATM   11  O           1     -19.626  -5.098 -10.762  0.00  0.00    -0.624 OA
HETATM   12  O           1     -21.988  -4.625 -10.573  0.00  0.00    -0.624 OA
BRANCH  10  13
HETATM   13  O           1     -20.441  -2.770 -11.320  0.00  0.00    -0.300 OA
HETATM   14  H           1     -20.004  -3.085 -12.094  0.00  0.00     0.223 HD
ENDBRANCH  10  13
ENDBRANCH   9  10
ENDBRANCH   6   9
ENDBRANCH   2   3
ENDBRANCH   1   2
BRANCH   1  15
HETATM   15  N           1     -20.492  -8.830  -3.589  0.00  0.00    -0.344 N 
HETATM   16  C           1     -19.279  -9.284  -4.033  0.00  0.00     0.249 C 
HETATM   17  O           1     -18.311  -9.221  -3.314  0.00  0.00    -0.271 OA
HETATM   18  H           1     -21.124  -9.460  -3.110  0.00  0.00     0.163 HD
BRANCH  16  19
HETATM   19  C           1     -19.152  -9.861  -5.420  0.00  0.00     0.274 C 
BRANCH  19  20
HETATM   20  N           1     -18.128  -9.084  -6.194  0.00  0.00    -0.067 N 
HETATM   21  H           1     -17.173  -9.447  -5.973  0.00  0.00     0.275 HD
HETATM   22  H           1     -18.312  -9.188  -7.218  0.00  0.00     0.275 HD
HETATM   23  H           1     -18.186  -8.074  -5.930  0.00  0.00     0.275 HD
ENDBRANCH  19  20
BRANCH  19  24
HETATM   24  C           1     -18.717 -11.318  -5.328  0.00  0.00     0.042 C 
BRANCH  24  25
HETATM   25  C           1     -17.356 -11.485  -5.991  0.00  0.00     0.003 C 
BRANCH  25  26
HETATM   26 Se           1     -17.432 -12.952  -7.272  0.00  0.00     0.000 Se
HETATM   27  C           1     -19.247 -12.559  -7.862  0.00  0.00     0.000 C 
ENDBRANCH  25  26
ENDBRANCH  24  25
ENDBRANCH  19  24
ENDBRANCH  16  19
ENDBRANCH   1  15
BRANCH   1  28
HETATM   28  C           1     -21.409  -6.868  -2.519  0.00  0.00     0.197 C 
HETATM   29  O           1     -21.052  -7.347  -1.421  0.00  0.00    -0.646 OA
HETATM   30  O           1     -22.210  -5.908  -2.552  0.00  0.00    -0.646 OA
ENDBRANCH   1  28
TORSDOF 12
ENDMDL
MODEL 7
REMARK VINA RESULT:      -6.0     10.572     13.191
REMARK  12 active torsions:
REMARK  status: ('A' for Active; 'I' for Inactive)
REMARK    1  A    between atoms: C_1  and  O_22 
REMARK    2  A    between atoms: C_4  and  C_5 
REMARK    3  A    between atoms: C_5  and  C_26 
REMARK    4  A    between atoms: N_8  and  C_13 
REMARK    5  A    between atoms: Se_10  and  C_11 
REMARK    6  A    between atoms: C_11  and  C_12 
REMARK    7  A    between atoms: C_12  and  C_13 
REMARK    8  A    between atoms: C_13  and  C_14 
REMARK       I    between atoms: C_14  and  N_15 
REMARK    9  A    between atoms: N_15  and  C_26 
REMARK   10  A    between atoms: O_19  and  P_21 
REMARK   11  A    between atoms: P_21  and  O_22 
REMARK   12  A    between atoms: C_24  and  C_26 
ROOT
HETATM    1  C           1     -21.584  -4.843  -6.921  0.00  0.00     0.189 C 
ENDROOT
BRANCH   1   2
HETATM    2  C           1     -21.575  -5.622  -8.231  0.00  0.00     0.074 C 
BRANCH   2   3
HETATM    3  C           1     -21.841  -4.687  -9.369  0.00  0.00    -0.056 A 
HETATM    4  C           1     -23.129  -4.193  -9.581  0.00  0.00     0.010 A 
HETATM    5  C           1     -23.376  -3.321 -10.641  0.00  0.00     0.038 A 
HETATM    6  C           1     -22.336  -2.943 -11.490  0.00  0.00     0.081 A 
HETATM    7  C           1     -21.049  -3.435 -11.278  0.00  0.00     0.038 A 
HETATM    8  C           1     -20.802  -4.307 -10.218  0.00  0.00     0.010 A 
BRANCH   6   9
HETATM    9  O           1     -22.577  -2.096 -12.520  0.00  0.00    -0.247 OA
BRANCH   9  10
HETATM   10  P           1     -23.506  -2.622 -13.732  0.00  0.00     0.411 P 
HETATM   11  O           1     -22.672  -2.830 -14.937  0.00  0.00    -0.624 OA
HETATM   12  O           1     -24.143  -3.901 -13.347  0.00  0.00    -0.624 OA
BRANCH  10  13
HETATM   13  O           1     -24.648  -1.526 -14.049  0.00  0.00    -0.300 OA
HETATM   14  H           1     -24.203  -0.695 -14.022  0.00  0.00     0.223 HD
ENDBRANCH  10  13
ENDBRANCH   9  10
ENDBRANCH   6   9
ENDBRANCH   2   3
ENDBRANCH   1   2
BRANCH   1  15
HETATM   15  N           1     -20.446  -5.239  -6.116  0.00  0.00    -0.344 N 
HETATM   16  C           1     -19.953  -6.513  -6.208  0.00  0.00     0.249 C 
HETATM   17  O           1     -19.091  -6.772  -7.013  0.00  0.00    -0.271 OA
HETATM   18  H           1     -20.014  -4.574  -5.488  0.00  0.00     0.163 HD
BRANCH  16  19
HETATM   19  C           1     -20.489  -7.595  -5.302  0.00  0.00     0.274 C 
BRANCH  19  20
HETATM   20  N           1     -21.416  -8.483  -6.079  0.00  0.00    -0.067 N 
HETATM   21  H           1     -21.847  -9.185  -5.436  0.00  0.00     0.275 HD
HETATM   22  H           1     -22.169  -7.904  -6.515  0.00  0.00     0.275 HD
HETATM   23  H           1     -20.879  -8.978  -6.826  0.00  0.00     0.275 HD
ENDBRANCH  19  20
BRANCH  19  24
HETATM   24  C           1     -19.332  -8.423  -4.758  0.00  0.00     0.042 C 
BRANCH  24  25
HETATM   25  C           1     -19.861  -9.749  -4.229  0.00  0.00     0.003 C 
BRANCH  25  26
HETATM   26 Se           1     -19.777  -9.752  -2.282  0.00  0.00     0.000 Se
HETATM   27  C           1     -21.591  -9.081  -2.039  0.00  0.00     0.000 C 
ENDBRANCH  25  26
ENDBRANCH  24  25
ENDBRANCH  19  24
ENDBRANCH  16  19
ENDBRANCH   1  15
BRANCH   1  28
HETATM   28  C           1     -22.859  -5.139  -6.169  0.00  0.00     0.197 C 
HETATM   29  O           1     -23.927  -4.584  -6.507  0.00  0.00    -0.646 OA
HETATM   30  O           1     -22.846  -5.939  -5.209  0.00  0.00    -0.646 OA
ENDBRANCH   1  28
TORSDOF 12
ENDMDL
MODEL 8
REMARK VINA RESULT:      -5.9     13.987     16.305
REMARK  12 active torsions:
REMARK  status: ('A' for Active; 'I' for Inactive)
REMARK    1  A    between atoms: C_1  and  O_22 
REMARK    2  A    between atoms: C_4  and  C_5 
REMARK    3  A    between atoms: C_5  and  C_26 
REMARK    4  A    between atoms: N_8  and  C_13 
REMARK    5  A    between atoms: Se_10  and  C_11 
REMARK    6  A    between atoms: C_11  and  C_12 
REMARK    7  A    between atoms: C_12  and  C_13 
REMARK    8  A    between atoms: C_13  and  C_14 
REMARK       I    between atoms: C_14  and  N_15 
REMARK    9  A    between atoms: N_15  and  C_26 
REMARK   10  A    between atoms: O_19  and  P_21 
REMARK   11  A    between atoms: P_21  and  O_22 
REMARK   12  A    between atoms: C_24  and  C_26 
ROOT
HETATM    1  C           1     -21.355  -7.704  -2.381  0.00  0.00     0.189 C 
ENDROOT
BRANCH   1   2
HETATM    2  C           1     -19.906  -8.036  -2.047  0.00  0.00     0.074 C 
BRANCH   2   3
HETATM    3  C           1     -19.473  -9.230  -2.839  0.00  0.00    -0.056 A 
HETATM    4  C           1     -20.426 -10.096  -3.375  0.00  0.00     0.010 A 
HETATM    5  C           1     -20.023 -11.208  -4.114  0.00  0.00     0.038 A 
HETATM    6  C           1     -18.665 -11.453  -4.318  0.00  0.00     0.081 A 
HETATM    7  C           1     -17.711 -10.588  -3.783  0.00  0.00     0.038 A 
HETATM    8  C           1     -18.116  -9.476  -3.044  0.00  0.00     0.010 A 
BRANCH   6   9
HETATM    9  O           1     -18.272 -12.534  -5.036  0.00  0.00    -0.247 OA
BRANCH   9  10
HETATM   10  P           1     -17.912 -12.317  -6.595  0.00  0.00     0.411 P 
HETATM   11  O           1     -16.454 -12.104  -6.739  0.00  0.00    -0.624 OA
HETATM   12  O           1     -18.313 -13.515  -7.366  0.00  0.00    -0.624 OA
BRANCH  10  13
HETATM   13  O           1     -18.704 -11.026  -7.156  0.00  0.00    -0.300 OA
HETATM   14  H           1     -18.288 -10.287  -6.743  0.00  0.00     0.223 HD
ENDBRANCH  10  13
ENDBRANCH   9  10
ENDBRANCH   6   9
ENDBRANCH   2   3
ENDBRANCH   1   2
BRANCH   1  15
HETATM   15  N           1     -21.421  -6.388  -2.986  0.00  0.00    -0.344 N 
HETATM   16  C           1     -21.637  -6.264  -4.332  0.00  0.00     0.249 C 
HETATM   17  O           1     -22.764  -6.184  -4.758  0.00  0.00    -0.271 OA
HETATM   18  H           1     -21.307  -5.561  -2.414  0.00  0.00     0.163 HD
BRANCH  16  19
HETATM   19  C           1     -20.467  -6.227  -5.284  0.00  0.00     0.274 C 
BRANCH  19  20
HETATM   20  N           1     -20.663  -7.256  -6.357  0.00  0.00    -0.067 N 
HETATM   21  H           1     -21.681  -7.345  -6.575  0.00  0.00     0.275 HD
HETATM   22  H           1     -20.148  -6.963  -7.219  0.00  0.00     0.275 HD
HETATM   23  H           1     -20.295  -8.177  -6.027  0.00  0.00     0.275 HD
ENDBRANCH  19  20
BRANCH  19  24
HETATM   24  C           1     -20.370  -4.846  -5.919  0.00  0.00     0.042 C 
BRANCH  24  25
HETATM   25  C           1     -19.449  -4.907  -7.130  0.00  0.00     0.003 C 
BRANCH  25  26
HETATM   26 Se           1     -20.422  -4.325  -8.715  0.00  0.00     0.000 Se
HETATM   27  C           1     -22.111  -4.058  -7.781  0.00  0.00     0.000 C 
ENDBRANCH  25  26
ENDBRANCH  24  25
ENDBRANCH  19  24
ENDBRANCH  16  19
ENDBRANCH   1  15
BRANCH   1  28
HETATM   28  C           1     -22.178  -7.716  -1.116  0.00  0.00     0.197 C 
HETATM   29  O           1     -22.758  -6.676  -0.738  0.00  0.00    -0.646 OA
HETATM   30  O           1     -22.280  -8.767  -0.447  0.00  0.00    -0.646 OA
ENDBRANCH   1  28
TORSDOF 12
ENDMDL
MODEL 9
REMARK VINA RESULT:      -5.8     15.186     17.973
REMARK  12 active torsions:
REMARK  status: ('A' for Active; 'I' for Inactive)
REMARK    1  A    between atoms: C_1  and  O_22 
REMARK    2  A    between atoms: C_4  and  C_5 
REMARK    3  A    between atoms: C_5  and  C_26 
REMARK    4  A    between atoms: N_8  and  C_13 
REMARK    5  A    between atoms: Se_10  and  C_11 
REMARK    6  A    between atoms: C_11  and  C_12 
REMARK    7  A    between atoms: C_12  and  C_13 
REMARK    8  A    between atoms: C_13  and  C_14 
REMARK       I    between atoms: C_14  and  N_15 
REMARK    9  A    between atoms: N_15  and  C_26 
REMARK   10  A    between atoms: O_19  and  P_21 
REMARK   11  A    between atoms: P_21  and  O_22 
REMARK   12  A    between atoms: C_24  and  C_26 
ROOT
HETATM    1  C           1     -20.653  -9.735  -1.178  0.00  0.00     0.189 C 
ENDROOT
BRANCH   1   2
HETATM    2  C           1     -21.833  -9.435  -2.094  0.00  0.00     0.074 C 
BRANCH   2   3
HETATM    3  C           1     -21.476  -8.309  -3.014  0.00  0.00    -0.056 A 
HETATM    4  C           1     -21.069  -8.578  -4.321  0.00  0.00     0.010 A 
HETATM    5  C           1     -20.737  -7.529  -5.178  0.00  0.00     0.038 A 
HETATM    6  C           1     -20.812  -6.211  -4.728  0.00  0.00     0.081 A 
HETATM    7  C           1     -21.219  -5.941  -3.423  0.00  0.00     0.038 A 
HETATM    8  C           1     -21.551  -6.991  -2.566  0.00  0.00     0.010 A 
BRANCH   6   9
HETATM    9  O           1     -20.489  -5.192  -5.562  0.00  0.00    -0.247 OA
BRANCH   9  10
HETATM   10  P           1     -21.529  -4.818  -6.739  0.00  0.00     0.411 P 
HETATM   11  O           1     -21.392  -3.384  -7.081  0.00  0.00    -0.624 OA
HETATM   12  O           1     -21.238  -5.639  -7.935  0.00  0.00    -0.624 OA
BRANCH  10  13
HETATM   13  O           1     -23.036  -5.111  -6.239  0.00  0.00    -0.300 OA
HETATM   14  H           1     -23.063  -6.040  -6.079  0.00  0.00     0.223 HD
ENDBRANCH  10  13
ENDBRANCH   9  10
ENDBRANCH   6   9
ENDBRANCH   2   3
ENDBRANCH   1   2
BRANCH   1  15
HETATM   15  N           1     -20.145 -11.062  -1.467  0.00  0.00    -0.344 N 
HETATM   16  C           1     -18.797 -11.270  -1.577  0.00  0.00     0.249 C 
HETATM   17  O           1     -18.148 -11.562  -0.601  0.00  0.00    -0.271 OA
HETATM   18  H           1     -20.787 -11.835  -1.586  0.00  0.00     0.163 HD
BRANCH  16  19
HETATM   19  C           1     -18.120 -11.132  -2.918  0.00  0.00     0.274 C 
BRANCH  19  20
HETATM   20  N           1     -19.084 -11.502  -4.006  0.00  0.00    -0.067 N 
HETATM   21  H           1     -19.617 -10.654  -4.304  0.00  0.00     0.275 HD
HETATM   22  H           1     -18.556 -11.886  -4.823  0.00  0.00     0.275 HD
HETATM   23  H           1     -19.750 -12.225  -3.649  0.00  0.00     0.275 HD
ENDBRANCH  19  20
BRANCH  19  24
HETATM   24  C           1     -17.666  -9.690  -3.114  0.00  0.00     0.042 C 
BRANCH  24  25
HETATM   25  C           1     -16.158  -9.656  -3.319  0.00  0.00     0.003 C 
BRANCH  25  26
HETATM   26 Se           1     -15.750  -9.986  -5.196  0.00  0.00     0.000 Se
HETATM   27  C           1     -14.851 -11.685  -4.871  0.00  0.00     0.000 C 
ENDBRANCH  25  26
ENDBRANCH  24  25
ENDBRANCH  19  24
ENDBRANCH  16  19
ENDBRANCH   1  15
BRANCH   1  28
HETATM   28  C           1     -21.105  -9.672   0.261  0.00  0.00     0.197 C 
HETATM   29  O           1     -21.606  -8.620   0.712  0.00  0.00    -0.646 OA
HETATM   30  O           1     -20.977 -10.672   1.000  0.00  0.00    -0.646 OA
ENDBRANCH   1  28
TORSDOF 12
ENDMDL
