MODEL 1
REMARK VINA RESULT:      -5.4      0.000      0.000
REMARK  9 active torsions:
REMARK  status: ('A' for Active; 'I' for Inactive)
REMARK    1  A    between atoms: C_1  and  O_15 
REMARK    2  A    between atoms: C_1  and  C_2 
REMARK    3  A    between atoms: C_2  and  C_3 
REMARK    4  A    between atoms: C_2  and  N_14 
REMARK       I    between atoms: C_6  and  N_14 
REMARK    5  A    between atoms: C_6  and  C_7 
REMARK    6  A    between atoms: C_7  and  C_8 
REMARK    7  A    between atoms: C_7  and  N_17 
REMARK    8  A    between atoms: C_8  and  C_12 
REMARK    9  A    between atoms: S_11  and  C_12 
ROOT
HETATM    1  C           1     -21.615  -4.660  -7.522  0.00  0.00     0.249 C 
HETATM    2  H           1     -22.526  -5.701  -9.062  0.00  0.00     0.163 HD
HETATM    3  O           1     -21.384  -3.565  -7.068  0.00  0.00    -0.271 OA
HETATM    4  N           1     -22.333  -4.784  -8.681  0.00  0.00    -0.343 N 
ENDROOT
BRANCH   1   5
HETATM    5  C           1     -21.111  -5.892  -6.811  0.00  0.00     0.275 C 
BRANCH   5   6
HETATM    6  C           1     -21.053  -5.626  -5.313  0.00  0.00     0.053 C 
BRANCH   6   7
HETATM    7  C           1     -22.051  -6.527  -4.597  0.00  0.00     0.076 C 
BRANCH   7   8
HETATM    8  S           1     -21.275  -7.234  -3.117  0.00  0.00    -0.173 SA
HETATM    9  C           1     -22.194  -6.232  -1.913  0.00  0.00     0.089 C 
ENDBRANCH   7   8
ENDBRANCH   6   7
ENDBRANCH   5   6
BRANCH   5  10
HETATM   10  N           1     -19.739  -6.232  -7.313  0.00  0.00    -0.066 N 
HETATM   11  H           1     -19.798  -6.533  -8.311  0.00  0.00     0.275 HD
HETATM   12  H           1     -19.123  -5.391  -7.239  0.00  0.00     0.275 HD
HETATM   13  H           1     -19.340  -7.008  -6.737  0.00  0.00     0.275 HD
ENDBRANCH   5  10
ENDBRANCH   1   5
BRANCH   4  14
HETATM   14  C           1     -22.817  -3.599  -9.364  0.00  0.00     0.209 C 
BRANCH  14  15
HETATM   15  C           1     -22.054  -3.421 -10.670  0.00  0.00     0.200 C 
BRANCH  15  16
HETATM   16  O           1     -22.922  -2.929 -11.655  0.00  0.00    -0.398 OA
HETATM   17  H           1     -23.784  -2.911 -11.276  0.00  0.00     0.209 HD
ENDBRANCH  15  16
ENDBRANCH  14  15
BRANCH  14  18
HETATM   18  C           1     -24.289  -3.754  -9.657  0.00  0.00     0.198 C 
HETATM   19  O           1     -25.058  -2.778  -9.523  0.00  0.00    -0.646 OA
HETATM   20  O           1     -24.738  -4.858 -10.033  0.00  0.00    -0.646 OA
ENDBRANCH  14  18
ENDBRANCH   4  14
TORSDOF 9
ENDMDL
MODEL 2
REMARK VINA RESULT:      -5.3      1.719      2.016
REMARK  9 active torsions:
REMARK  status: ('A' for Active; 'I' for Inactive)
REMARK    1  A    between atoms: C_1  and  O_15 
REMARK    2  A    between atoms: C_1  and  C_2 
REMARK    3  A    between atoms: C_2  and  C_3 
REMARK    4  A    between atoms: C_2  and  N_14 
REMARK       I    between atoms: C_6  and  N_14 
REMARK    5  A    between atoms: C_6  and  C_7 
REMARK    6  A    between atoms: C_7  and  C_8 
REMARK    7  A    between atoms: C_7  and  N_17 
REMARK    8  A    between atoms: C_8  and  C_12 
REMARK    9  A    between atoms: S_11  and  C_12 
ROOT
HETATM    1  C           1     -21.952  -3.931  -8.580  0.00  0.00     0.249 C 
HETATM    2  H           1     -23.983  -3.940  -8.980  0.00  0.00     0.163 HD
HETATM    3  O           1     -20.852  -3.741  -9.042  0.00  0.00    -0.271 OA
HETATM    4  N           1     -23.062  -3.779  -9.367  0.00  0.00    -0.343 N 
ENDROOT
BRANCH   1   5
HETATM    5  C           1     -22.102  -4.338  -7.134  0.00  0.00     0.275 C 
BRANCH   5   6
HETATM    6  C           1     -21.321  -5.621  -6.884  0.00  0.00     0.053 C 
BRANCH   6   7
HETATM    7  C           1     -20.855  -5.658  -5.434  0.00  0.00     0.076 C 
BRANCH   7   8
HETATM    8  S           1     -21.758  -6.953  -4.540  0.00  0.00    -0.173 SA
HETATM    9  C           1     -21.585  -6.214  -2.891  0.00  0.00     0.089 C 
ENDBRANCH   7   8
ENDBRANCH   6   7
ENDBRANCH   5   6
BRANCH   5  10
HETATM   10  N           1     -23.553  -4.567  -6.829  0.00  0.00    -0.066 N 
HETATM   11  H           1     -23.836  -5.512  -7.175  0.00  0.00     0.275 HD
HETATM   12  H           1     -23.704  -4.515  -5.797  0.00  0.00     0.275 HD
HETATM   13  H           1     -24.128  -3.835  -7.304  0.00  0.00     0.275 HD
ENDBRANCH   5  10
ENDBRANCH   1   5
BRANCH   4  14
HETATM   14  C           1     -22.917  -3.389 -10.756  0.00  0.00     0.209 C 
BRANCH  14  15
HETATM   15  C           1     -22.198  -4.493 -11.520  0.00  0.00     0.200 C 
BRANCH  15  16
HETATM   16  O           1     -21.575  -3.950 -12.652  0.00  0.00    -0.398 OA
HETATM   17  H           1     -22.249  -3.537 -13.164  0.00  0.00     0.209 HD
ENDBRANCH  15  16
ENDBRANCH  14  15
BRANCH  14  18
HETATM   18  C           1     -24.281  -3.165 -11.360  0.00  0.00     0.198 C 
HETATM   19  O           1     -25.300  -3.211 -10.637  0.00  0.00    -0.646 OA
HETATM   20  O           1     -24.393  -2.932 -12.583  0.00  0.00    -0.646 OA
ENDBRANCH  14  18
ENDBRANCH   4  14
TORSDOF 9
ENDMDL
MODEL 3
REMARK VINA RESULT:      -5.1      3.864      6.697
REMARK  9 active torsions:
REMARK  status: ('A' for Active; 'I' for Inactive)
REMARK    1  A    between atoms: C_1  and  O_15 
REMARK    2  A    between atoms: C_1  and  C_2 
REMARK    3  A    between atoms: C_2  and  C_3 
REMARK    4  A    between atoms: C_2  and  N_14 
REMARK       I    between atoms: C_6  and  N_14 
REMARK    5  A    between atoms: C_6  and  C_7 
REMARK    6  A    between atoms: C_7  and  C_8 
REMARK    7  A    between atoms: C_7  and  N_17 
REMARK    8  A    between atoms: C_8  and  C_12 
REMARK    9  A    between atoms: S_11  and  C_12 
ROOT
HETATM    1  C           1     -22.582  -4.577  -9.995  0.00  0.00     0.249 C 
HETATM    2  H           1     -23.384  -4.893  -8.113  0.00  0.00     0.163 HD
HETATM    3  O           1     -21.562  -4.528 -10.642  0.00  0.00    -0.271 OA
HETATM    4  N           1     -22.530  -4.853  -8.655  0.00  0.00    -0.343 N 
ENDROOT
BRANCH   1   5
HETATM    5  C           1     -23.912  -4.333 -10.665  0.00  0.00     0.275 C 
BRANCH   5   6
HETATM    6  C           1     -23.859  -3.022 -11.438  0.00  0.00     0.053 C 
BRANCH   6   7
HETATM    7  C           1     -24.350  -3.251 -12.861  0.00  0.00     0.076 C 
BRANCH   7   8
HETATM    8  S           1     -23.032  -2.824 -14.033  0.00  0.00    -0.173 SA
HETATM    9  C           1     -23.861  -1.375 -14.745  0.00  0.00     0.089 C 
ENDBRANCH   7   8
ENDBRANCH   6   7
ENDBRANCH   5   6
BRANCH   5  10
HETATM   10  N           1     -24.988  -4.256  -9.622  0.00  0.00    -0.066 N 
HETATM   11  H           1     -25.154  -5.207  -9.222  0.00  0.00     0.275 HD
HETATM   12  H           1     -24.691  -3.606  -8.862  0.00  0.00     0.275 HD
HETATM   13  H           1     -25.870  -3.904 -10.059  0.00  0.00     0.275 HD
ENDBRANCH   5  10
ENDBRANCH   1   5
BRANCH   4  14
HETATM   14  C           1     -21.251  -5.087  -8.012  0.00  0.00     0.209 C 
BRANCH  14  15
HETATM   15  C           1     -20.623  -3.752  -7.634  0.00  0.00     0.200 C 
BRANCH  15  16
HETATM   16  O           1     -21.613  -2.896  -7.130  0.00  0.00    -0.398 OA
HETATM   17  H           1     -21.242  -2.031  -7.108  0.00  0.00     0.209 HD
ENDBRANCH  15  16
ENDBRANCH  14  15
BRANCH  14  18
HETATM   18  C           1     -21.458  -5.917  -6.769  0.00  0.00     0.198 C 
HETATM   19  O           1     -22.120  -5.456  -5.813  0.00  0.00    -0.646 OA
HETATM   20  O           1     -20.969  -7.064  -6.695  0.00  0.00    -0.646 OA
ENDBRANCH  14  18
ENDBRANCH   4  14
TORSDOF 9
ENDMDL
MODEL 4
REMARK VINA RESULT:      -4.8     18.988     20.428
REMARK  9 active torsions:
REMARK  status: ('A' for Active; 'I' for Inactive)
REMARK    1  A    between atoms: C_1  and  O_15 
REMARK    2  A    between atoms: C_1  and  C_2 
REMARK    3  A    between atoms: C_2  and  C_3 
REMARK    4  A    between atoms: C_2  and  N_14 
REMARK       I    between atoms: C_6  and  N_14 
REMARK    5  A    between atoms: C_6  and  C_7 
REMARK    6  A    between atoms: C_7  and  C_8 
REMARK    7  A    between atoms: C_7  and  N_17 
REMARK    8  A    between atoms: C_8  and  C_12 
REMARK    9  A    between atoms: S_11  and  C_12 
ROOT
HETATM    1  C           1     -13.012   6.225 -21.172  0.00  0.00     0.249 C 
HETATM    2  H           1     -12.318   6.025 -19.233  0.00  0.00     0.163 HD
HETATM    3  O           1     -12.806   6.729 -22.251  0.00  0.00    -0.271 OA
HETATM    4  N           1     -12.145   6.446 -20.136  0.00  0.00    -0.343 N 
ENDROOT
BRANCH   1   5
HETATM    5  C           1     -14.226   5.352 -20.968  0.00  0.00     0.275 C 
BRANCH   5   6
HETATM    6  C           1     -13.812   4.059 -20.279  0.00  0.00     0.053 C 
BRANCH   6   7
HETATM    7  C           1     -13.184   3.118 -21.299  0.00  0.00     0.076 C 
BRANCH   7   8
HETATM    8  S           1     -11.439   2.849 -20.880  0.00  0.00    -0.173 SA
HETATM    9  C           1     -10.753   3.732 -22.311  0.00  0.00     0.089 C 
ENDBRANCH   7   8
ENDBRANCH   6   7
ENDBRANCH   5   6
BRANCH   5  10
HETATM   10  N           1     -14.842   5.035 -22.299  0.00  0.00    -0.066 N 
HETATM   11  H           1     -15.863   4.851 -22.175  0.00  0.00     0.275 HD
HETATM   12  H           1     -14.710   5.845 -22.945  0.00  0.00     0.275 HD
HETATM   13  H           1     -14.382   4.188 -22.702  0.00  0.00     0.275 HD
ENDBRANCH   5  10
ENDBRANCH   1   5
BRANCH   4  14
HETATM   14  C           1     -10.979   7.285 -20.333  0.00  0.00     0.209 C 
BRANCH  14  15
HETATM   15  C           1     -11.083   8.515 -19.441  0.00  0.00     0.200 C 
BRANCH  15  16
HETATM   16  O           1     -10.154   8.414 -18.396  0.00  0.00    -0.398 OA
HETATM   17  H           1     -10.333   7.605 -17.947  0.00  0.00     0.209 HD
ENDBRANCH  15  16
ENDBRANCH  14  15
BRANCH  14  18
HETATM   18  C           1      -9.735   6.508 -19.977  0.00  0.00     0.198 C 
HETATM   19  O           1      -9.757   5.695 -19.027  0.00  0.00    -0.646 OA
HETATM   20  O           1      -8.684   6.677 -20.632  0.00  0.00    -0.646 OA
ENDBRANCH  14  18
ENDBRANCH   4  14
TORSDOF 9
ENDMDL
MODEL 5
REMARK VINA RESULT:      -4.7      2.894      4.457
REMARK  9 active torsions:
REMARK  status: ('A' for Active; 'I' for Inactive)
REMARK    1  A    between atoms: C_1  and  O_15 
REMARK    2  A    between atoms: C_1  and  C_2 
REMARK    3  A    between atoms: C_2  and  C_3 
REMARK    4  A    between atoms: C_2  and  N_14 
REMARK       I    between atoms: C_6  and  N_14 
REMARK    5  A    between atoms: C_6  and  C_7 
REMARK    6  A    between atoms: C_7  and  C_8 
REMARK    7  A    between atoms: C_7  and  N_17 
REMARK    8  A    between atoms: C_8  and  C_12 
REMARK    9  A    between atoms: S_11  and  C_12 
ROOT
HETATM    1  C           1     -21.458  -6.712  -4.396  0.00  0.00     0.249 C 
HETATM    2  H           1     -21.437  -4.653  -4.605  0.00  0.00     0.163 HD
HETATM    3  O           1     -21.525  -7.766  -4.983  0.00  0.00    -0.271 OA
HETATM    4  N           1     -21.493  -5.536  -5.096  0.00  0.00    -0.343 N 
ENDROOT
BRANCH   1   5
HETATM    5  C           1     -21.336  -6.693  -2.892  0.00  0.00     0.275 C 
BRANCH   5   6
HETATM    6  C           1     -21.436  -8.115  -2.356  0.00  0.00     0.053 C 
BRANCH   6   7
HETATM    7  C           1     -20.845  -8.172  -0.954  0.00  0.00     0.076 C 
BRANCH   7   8
HETATM    8  S           1     -21.827  -9.303   0.071  0.00  0.00    -0.173 SA
HETATM    9  C           1     -23.136  -8.112   0.482  0.00  0.00     0.089 C 
ENDBRANCH   7   8
ENDBRANCH   6   7
ENDBRANCH   5   6
BRANCH   5  10
HETATM   10  N           1     -22.441  -5.861  -2.313  0.00  0.00    -0.066 N 
HETATM   11  H           1     -22.508  -4.958  -2.836  0.00  0.00     0.275 HD
HETATM   12  H           1     -23.345  -6.377  -2.393  0.00  0.00     0.275 HD
HETATM   13  H           1     -22.239  -5.666  -1.306  0.00  0.00     0.275 HD
ENDBRANCH   5  10
ENDBRANCH   1   5
BRANCH   4  14
HETATM   14  C           1     -21.610  -5.555  -6.541  0.00  0.00     0.209 C 
BRANCH  14  15
HETATM   15  C           1     -22.665  -4.546  -6.977  0.00  0.00     0.200 C 
BRANCH  15  16
HETATM   16  O           1     -22.036  -3.370  -7.409  0.00  0.00    -0.398 OA
HETATM   17  H           1     -21.618  -2.990  -6.655  0.00  0.00     0.209 HD
ENDBRANCH  15  16
ENDBRANCH  14  15
BRANCH  14  18
HETATM   18  C           1     -20.282  -5.194  -7.158  0.00  0.00     0.198 C 
HETATM   19  O           1     -19.391  -4.665  -6.458  0.00  0.00    -0.646 OA
HETATM   20  O           1     -20.071  -5.424  -8.368  0.00  0.00    -0.646 OA
ENDBRANCH  14  18
ENDBRANCH   4  14
TORSDOF 9
ENDMDL
MODEL 6
REMARK VINA RESULT:      -4.6     19.335     20.388
REMARK  9 active torsions:
REMARK  status: ('A' for Active; 'I' for Inactive)
REMARK    1  A    between atoms: C_1  and  O_15 
REMARK    2  A    between atoms: C_1  and  C_2 
REMARK    3  A    between atoms: C_2  and  C_3 
REMARK    4  A    between atoms: C_2  and  N_14 
REMARK       I    between atoms: C_6  and  N_14 
REMARK    5  A    between atoms: C_6  and  C_7 
REMARK    6  A    between atoms: C_7  and  C_8 
REMARK    7  A    between atoms: C_7  and  N_17 
REMARK    8  A    between atoms: C_8  and  C_12 
REMARK    9  A    between atoms: S_11  and  C_12 
ROOT
HETATM    1  C           1     -11.616   5.486 -19.723  0.00  0.00     0.249 C 
HETATM    2  H           1     -11.919   6.064 -21.688  0.00  0.00     0.163 HD
HETATM    3  O           1     -12.035   4.810 -18.815  0.00  0.00    -0.271 OA
HETATM    4  N           1     -12.270   5.497 -20.927  0.00  0.00    -0.343 N 
ENDROOT
BRANCH   1   5
HETATM    5  C           1     -10.373   6.320 -19.532  0.00  0.00     0.275 C 
BRANCH   5   6
HETATM    6  C           1      -9.736   6.600 -20.886  0.00  0.00     0.053 C 
BRANCH   6   7
HETATM    7  C           1      -9.410   8.084 -20.998  0.00  0.00     0.076 C 
BRANCH   7   8
HETATM    8  S           1     -10.647   8.899 -22.046  0.00  0.00    -0.173 SA
HETATM    9  C           1     -11.529   9.735 -20.697  0.00  0.00     0.089 C 
ENDBRANCH   7   8
ENDBRANCH   6   7
ENDBRANCH   5   6
BRANCH   5  10
HETATM   10  N           1      -9.401   5.574 -18.666  0.00  0.00    -0.066 N 
HETATM   11  H           1      -8.939   6.240 -18.007  0.00  0.00     0.275 HD
HETATM   12  H           1      -9.909   4.842 -18.122  0.00  0.00     0.275 HD
HETATM   13  H           1      -8.676   5.121 -19.268  0.00  0.00     0.275 HD
ENDBRANCH   5  10
ENDBRANCH   1   5
BRANCH   4  14
HETATM   14  C           1     -13.464   4.696 -21.110  0.00  0.00     0.209 C 
BRANCH  14  15
HETATM   15  C           1     -14.496   5.498 -21.892  0.00  0.00     0.200 C 
BRANCH  15  16
HETATM   16  O           1     -15.093   4.676 -22.858  0.00  0.00    -0.398 OA
HETATM   17  H           1     -15.792   5.173 -23.247  0.00  0.00     0.209 HD
ENDBRANCH  15  16
ENDBRANCH  14  15
BRANCH  14  18
HETATM   18  C           1     -13.116   3.442 -21.874  0.00  0.00     0.198 C 
HETATM   19  O           1     -12.389   3.511 -22.889  0.00  0.00    -0.646 OA
HETATM   20  O           1     -13.554   2.335 -21.492  0.00  0.00    -0.646 OA
ENDBRANCH  14  18
ENDBRANCH   4  14
TORSDOF 9
ENDMDL
MODEL 7
REMARK VINA RESULT:      -4.5     18.645     20.238
REMARK  9 active torsions:
REMARK  status: ('A' for Active; 'I' for Inactive)
REMARK    1  A    between atoms: C_1  and  O_15 
REMARK    2  A    between atoms: C_1  and  C_2 
REMARK    3  A    between atoms: C_2  and  C_3 
REMARK    4  A    between atoms: C_2  and  N_14 
REMARK       I    between atoms: C_6  and  N_14 
REMARK    5  A    between atoms: C_6  and  C_7 
REMARK    6  A    between atoms: C_7  and  C_8 
REMARK    7  A    between atoms: C_7  and  N_17 
REMARK    8  A    between atoms: C_8  and  C_12 
REMARK    9  A    between atoms: S_11  and  C_12 
ROOT
HETATM    1  C           1     -11.119   5.780 -20.836  0.00  0.00     0.249 C 
HETATM    2  H           1     -12.549   5.473 -19.371  0.00  0.00     0.163 HD
HETATM    3  O           1     -10.847   5.623 -22.003  0.00  0.00    -0.271 OA
HETATM    4  N           1     -12.321   5.342 -20.348  0.00  0.00    -0.343 N 
ENDROOT
BRANCH   1   5
HETATM    5  C           1     -10.133   6.458 -19.916  0.00  0.00     0.275 C 
BRANCH   5   6
HETATM    6  C           1      -9.169   7.301 -20.739  0.00  0.00     0.053 C 
BRANCH   6   7
HETATM    7  C           1      -9.650   8.746 -20.764  0.00  0.00     0.076 C 
BRANCH   7   8
HETATM    8  S           1     -10.594   9.097 -19.254  0.00  0.00    -0.173 SA
HETATM    9  C           1     -12.122   9.607 -20.090  0.00  0.00     0.089 C 
ENDBRANCH   7   8
ENDBRANCH   6   7
ENDBRANCH   5   6
BRANCH   5  10
HETATM   10  N           1      -9.365   5.418 -19.155  0.00  0.00    -0.066 N 
HETATM   11  H           1     -10.032   4.801 -18.640  0.00  0.00     0.275 HD
HETATM   12  H           1      -8.802   4.844 -19.821  0.00  0.00     0.275 HD
HETATM   13  H           1      -8.727   5.888 -18.473  0.00  0.00     0.275 HD
ENDBRANCH   5  10
ENDBRANCH   1   5
BRANCH   4  14
HETATM   14  C           1     -13.268   4.691 -21.232  0.00  0.00     0.209 C 
BRANCH  14  15
HETATM   15  C           1     -13.132   3.180 -21.095  0.00  0.00     0.200 C 
BRANCH  15  16
HETATM   16  O           1     -13.930   2.549 -22.060  0.00  0.00    -0.398 OA
HETATM   17  H           1     -14.432   3.224 -22.484  0.00  0.00     0.209 HD
ENDBRANCH  15  16
ENDBRANCH  14  15
BRANCH  14  18
HETATM   18  C           1     -14.670   5.106 -20.860  0.00  0.00     0.198 C 
HETATM   19  O           1     -14.976   5.269 -19.659  0.00  0.00    -0.646 OA
HETATM   20  O           1     -15.526   5.287 -21.753  0.00  0.00    -0.646 OA
ENDBRANCH  14  18
ENDBRANCH   4  14
TORSDOF 9
ENDMDL
MODEL 8
REMARK VINA RESULT:      -4.5      3.602      6.596
REMARK  9 active torsions:
REMARK  status: ('A' for Active; 'I' for Inactive)
REMARK    1  A    between atoms: C_1  and  O_15 
REMARK    2  A    between atoms: C_1  and  C_2 
REMARK    3  A    between atoms: C_2  and  C_3 
REMARK    4  A    between atoms: C_2  and  N_14 
REMARK       I    between atoms: C_6  and  N_14 
REMARK    5  A    between atoms: C_6  and  C_7 
REMARK    6  A    between atoms: C_7  and  C_8 
REMARK    7  A    between atoms: C_7  and  N_17 
REMARK    8  A    between atoms: C_8  and  C_12 
REMARK    9  A    between atoms: S_11  and  C_12 
ROOT
HETATM    1  C           1     -21.429  -5.387  -5.739  0.00  0.00     0.249 C 
HETATM    2  H           1     -19.828  -6.140  -4.665  0.00  0.00     0.163 HD
HETATM    3  O           1     -22.619  -5.471  -5.933  0.00  0.00    -0.271 OA
HETATM    4  N           1     -20.824  -6.210  -4.827  0.00  0.00    -0.343 N 
ENDROOT
BRANCH   1   5
HETATM    5  C           1     -20.611  -4.374  -6.501  0.00  0.00     0.275 C 
BRANCH   5   6
HETATM    6  C           1     -21.481  -3.710  -7.559  0.00  0.00     0.053 C 
BRANCH   6   7
HETATM    7  C           1     -21.104  -4.242  -8.935  0.00  0.00     0.076 C 
BRANCH   7   8
HETATM    8  S           1     -22.580  -4.300  -9.989  0.00  0.00    -0.173 SA
HETATM    9  C           1     -21.696  -4.228 -11.573  0.00  0.00     0.089 C 
ENDBRANCH   7   8
ENDBRANCH   6   7
ENDBRANCH   5   6
BRANCH   5  10
HETATM   10  N           1     -19.455  -5.063  -7.164  0.00  0.00    -0.066 N 
HETATM   11  H           1     -19.655  -5.175  -8.183  0.00  0.00     0.275 HD
HETATM   12  H           1     -18.591  -4.492  -7.039  0.00  0.00     0.275 HD
HETATM   13  H           1     -19.317  -6.005  -6.730  0.00  0.00     0.275 HD
ENDBRANCH   5  10
ENDBRANCH   1   5
BRANCH   4  14
HETATM   14  C           1     -21.612  -7.184  -4.095  0.00  0.00     0.209 C 
BRANCH  14  15
HETATM   15  C           1     -20.994  -8.565  -4.266  0.00  0.00     0.200 C 
BRANCH  15  16
HETATM   16  O           1     -19.600  -8.447  -4.359  0.00  0.00    -0.398 OA
HETATM   17  H           1     -19.339  -8.892  -5.147  0.00  0.00     0.209 HD
ENDBRANCH  15  16
ENDBRANCH  14  15
BRANCH  14  18
HETATM   18  C           1     -21.629  -6.817  -2.632  0.00  0.00     0.198 C 
HETATM   19  O           1     -22.416  -5.938  -2.217  0.00  0.00    -0.646 OA
HETATM   20  O           1     -20.857  -7.392  -1.834  0.00  0.00    -0.646 OA
ENDBRANCH  14  18
ENDBRANCH   4  14
TORSDOF 9
ENDMDL
MODEL 9
REMARK VINA RESULT:      -4.4      3.975      6.414
REMARK  9 active torsions:
REMARK  status: ('A' for Active; 'I' for Inactive)
REMARK    1  A    between atoms: C_1  and  O_15 
REMARK    2  A    between atoms: C_1  and  C_2 
REMARK    3  A    between atoms: C_2  and  C_3 
REMARK    4  A    between atoms: C_2  and  N_14 
REMARK       I    between atoms: C_6  and  N_14 
REMARK    5  A    between atoms: C_6  and  C_7 
REMARK    6  A    between atoms: C_7  and  C_8 
REMARK    7  A    between atoms: C_7  and  N_17 
REMARK    8  A    between atoms: C_8  and  C_12 
REMARK    9  A    between atoms: S_11  and  C_12 
ROOT
HETATM    1  C           1     -21.188  -4.984  -8.793  0.00  0.00     0.249 C 
HETATM    2  H           1     -22.642  -5.499  -7.413  0.00  0.00     0.163 HD
HETATM    3  O           1     -20.003  -4.979  -9.029  0.00  0.00    -0.271 OA
HETATM    4  N           1     -21.649  -5.497  -7.610  0.00  0.00    -0.343 N 
ENDROOT
BRANCH   1   5
HETATM    5  C           1     -22.160  -4.423  -9.803  0.00  0.00     0.275 C 
BRANCH   5   6
HETATM    6  C           1     -21.394  -3.913 -11.016  0.00  0.00     0.053 C 
BRANCH   6   7
HETATM    7  C           1     -22.089  -2.678 -11.574  0.00  0.00     0.076 C 
BRANCH   7   8
HETATM    8  S           1     -22.900  -3.097 -13.142  0.00  0.00    -0.173 SA
HETATM    9  C           1     -24.599  -3.057 -12.503  0.00  0.00     0.089 C 
ENDBRANCH   7   8
ENDBRANCH   6   7
ENDBRANCH   5   6
BRANCH   5  10
HETATM   10  N           1     -22.926  -3.292  -9.183  0.00  0.00    -0.066 N 
HETATM   11  H           1     -23.844  -3.646  -8.831  0.00  0.00     0.275 HD
HETATM   12  H           1     -22.378  -2.894  -8.388  0.00  0.00     0.275 HD
HETATM   13  H           1     -23.091  -2.550  -9.900  0.00  0.00     0.275 HD
ENDBRANCH   5  10
ENDBRANCH   1   5
BRANCH   4  14
HETATM   14  C           1     -20.715  -6.035  -6.641  0.00  0.00     0.209 C 
BRANCH  14  15
HETATM   15  C           1     -20.226  -4.914  -5.733  0.00  0.00     0.200 C 
BRANCH  15  16
HETATM   16  O           1     -18.982  -4.453  -6.188  0.00  0.00    -0.398 OA
HETATM   17  H           1     -18.331  -5.046  -5.853  0.00  0.00     0.209 HD
ENDBRANCH  15  16
ENDBRANCH  14  15
BRANCH  14  18
HETATM   18  C           1     -21.405  -7.090  -5.811  0.00  0.00     0.198 C 
HETATM   19  O           1     -20.992  -8.270  -5.832  0.00  0.00    -0.646 OA
HETATM   20  O           1     -22.389  -6.784  -5.103  0.00  0.00    -0.646 OA
ENDBRANCH  14  18
ENDBRANCH   4  14
TORSDOF 9
ENDMDL
