MODEL 1
REMARK VINA RESULT:      -6.5      0.000      0.000
REMARK  9 active torsions:
REMARK  status: ('A' for Active; 'I' for Inactive)
REMARK       I    between atoms: C_4  and  N_5 
REMARK    1  A    between atoms: C_4  and  C_10 
REMARK    2  A    between atoms: N_5  and  C_18 
REMARK    3  A    between atoms: C_9  and  C_18 
REMARK    4  A    between atoms: C_10  and  C_20 
REMARK    5  A    between atoms: C_10  and  N_14 
REMARK    6  A    between atoms: C_11  and  S_12 
REMARK    7  A    between atoms: C_11  and  C_17 
REMARK    8  A    between atoms: C_17  and  C_18 
REMARK    9  A    between atoms: C_20  and  C_21 
ROOT
HETATM    1  C           1     -21.033  -5.657  -6.840  0.00  0.00     0.280 C 
ENDROOT
BRANCH   1   2
HETATM    2  C           1     -21.615  -4.543  -7.676  0.00  0.00     0.249 C 
HETATM    3  N           1     -22.178  -4.821  -8.892  0.00  0.00    -0.345 N 
HETATM    4  H           1     -22.204  -5.774  -9.231  0.00  0.00     0.163 HD
HETATM    5  O           1     -21.582  -3.405  -7.271  0.00  0.00    -0.271 OA
BRANCH   3   6
HETATM    6  C           1     -22.736  -3.750  -9.694  0.00  0.00     0.186 C 
BRANCH   6   7
HETATM    7  C           1     -24.243  -3.828  -9.656  0.00  0.00     0.196 C 
HETATM    8  O           1     -24.915  -2.810  -9.381  0.00  0.00    -0.646 OA
HETATM    9  O           1     -24.819  -4.910  -9.901  0.00  0.00    -0.646 OA
ENDBRANCH   6   7
BRANCH   6  10
HETATM   10  C           1     -22.258  -3.889 -11.133  0.00  0.00     0.046 C 
BRANCH  10  11
HETATM   11  C           1     -22.601  -2.623 -11.907  0.00  0.00     0.076 C 
BRANCH  11  12
HETATM   12  S           1     -23.903  -2.987 -13.118  0.00  0.00    -0.173 SA
HETATM   13  C           1     -22.896  -2.671 -14.594  0.00  0.00     0.089 C 
ENDBRANCH  11  12
ENDBRANCH  10  11
ENDBRANCH   6  10
ENDBRANCH   3   6
ENDBRANCH   1   2
BRANCH   1  14
HETATM   14  C           1     -20.645  -5.117  -5.470  0.00  0.00     0.101 C 
BRANCH  14  15
HETATM   15  C           1     -21.024  -6.110  -4.417  0.00  0.00     0.028 A 
HETATM   16  C           1     -20.869  -7.471  -4.533  0.00  0.00     0.114 A 
HETATM   17  N           1     -21.339  -7.983  -3.356  0.00  0.00    -0.360 N 
HETATM   18  C           1     -21.752  -6.933  -2.587  0.00  0.00     0.180 A 
HETATM   19  H           1     -21.375  -8.999  -3.092  0.00  0.00     0.166 HD
HETATM   20  N           1     -21.573  -5.787  -3.202  0.00  0.00    -0.355 N 
ATOM     21  HN          1     -21.795  -4.856  -2.851  1.00  0.00     0.166 HD
ENDBRANCH  14  15
ENDBRANCH   1  14
BRANCH   1  22
HETATM   22  N           1     -19.815  -6.209  -7.522  0.00  0.00    -0.066 N 
HETATM   23  H           1     -19.955  -6.186  -8.557  0.00  0.00     0.275 HD
HETATM   24  H           1     -18.983  -5.629  -7.271  0.00  0.00     0.275 HD
HETATM   25  H           1     -19.660  -7.194  -7.213  0.00  0.00     0.275 HD
ENDBRANCH   1  22
TORSDOF 9
ENDMDL
MODEL 2
REMARK VINA RESULT:      -6.2      3.540      7.858
REMARK  9 active torsions:
REMARK  status: ('A' for Active; 'I' for Inactive)
REMARK       I    between atoms: C_4  and  N_5 
REMARK    1  A    between atoms: C_4  and  C_10 
REMARK    2  A    between atoms: N_5  and  C_18 
REMARK    3  A    between atoms: C_9  and  C_18 
REMARK    4  A    between atoms: C_10  and  C_20 
REMARK    5  A    between atoms: C_10  and  N_14 
REMARK    6  A    between atoms: C_11  and  S_12 
REMARK    7  A    between atoms: C_11  and  C_17 
REMARK    8  A    between atoms: C_17  and  C_18 
REMARK    9  A    between atoms: C_20  and  C_21 
ROOT
HETATM    1  C           1     -23.053  -4.223  -9.028  0.00  0.00     0.280 C 
ENDROOT
BRANCH   1   2
HETATM    2  C           1     -22.243  -4.325  -7.758  0.00  0.00     0.249 C 
HETATM    3  N           1     -22.197  -5.506  -7.068  0.00  0.00    -0.345 N 
HETATM    4  H           1     -22.706  -6.311  -7.408  0.00  0.00     0.163 HD
HETATM    5  O           1     -21.636  -3.362  -7.351  0.00  0.00    -0.271 OA
BRANCH   3   6
HETATM    6  C           1     -21.419  -5.602  -5.848  0.00  0.00     0.186 C 
BRANCH   6   7
HETATM    7  C           1     -20.048  -6.146  -6.169  0.00  0.00     0.196 C 
HETATM    8  O           1     -19.123  -5.365  -6.480  0.00  0.00    -0.646 OA
HETATM    9  O           1     -19.838  -7.377  -6.122  0.00  0.00    -0.646 OA
ENDBRANCH   6   7
BRANCH   6  10
HETATM   10  C           1     -22.119  -6.536  -4.870  0.00  0.00     0.046 C 
BRANCH  10  11
HETATM   11  C           1     -21.678  -6.209  -3.449  0.00  0.00     0.076 C 
BRANCH  11  12
HETATM   12  S           1     -21.419  -7.750  -2.526  0.00  0.00    -0.173 SA
HETATM   13  C           1     -22.171  -7.181  -0.975  0.00  0.00     0.089 C 
ENDBRANCH  11  12
ENDBRANCH  10  11
ENDBRANCH   6  10
ENDBRANCH   3   6
ENDBRANCH   1   2
BRANCH   1  14
HETATM   14  C           1     -22.245  -3.488 -10.089  0.00  0.00     0.101 C 
BRANCH  14  15
HETATM   15  C           1     -22.983  -3.525 -11.391  0.00  0.00     0.028 A 
HETATM   16  C           1     -23.458  -4.668 -11.988  0.00  0.00     0.114 A 
HETATM   17  N           1     -24.056  -4.244 -13.142  0.00  0.00    -0.360 N 
HETATM   18  C           1     -23.922  -2.885 -13.197  0.00  0.00     0.180 A 
HETATM   19  H           1     -24.531  -4.851 -13.855  0.00  0.00     0.166 HD
HETATM   20  N           1     -23.278  -2.422 -12.152  0.00  0.00    -0.355 N 
ATOM     21  HN          1     -23.047  -1.450 -11.948  1.00  0.00     0.166 HD
ENDBRANCH  14  15
ENDBRANCH   1  14
BRANCH   1  22
HETATM   22  N           1     -24.320  -3.469  -8.753  0.00  0.00    -0.066 N 
HETATM   23  H           1     -25.084  -4.143  -8.522  0.00  0.00     0.275 HD
HETATM   24  H           1     -24.171  -2.822  -7.945  0.00  0.00     0.275 HD
HETATM   25  H           1     -24.586  -2.916  -9.598  0.00  0.00     0.275 HD
ENDBRANCH   1  22
TORSDOF 9
ENDMDL
MODEL 3
REMARK VINA RESULT:      -5.9      3.998      7.839
REMARK  9 active torsions:
REMARK  status: ('A' for Active; 'I' for Inactive)
REMARK       I    between atoms: C_4  and  N_5 
REMARK    1  A    between atoms: C_4  and  C_10 
REMARK    2  A    between atoms: N_5  and  C_18 
REMARK    3  A    between atoms: C_9  and  C_18 
REMARK    4  A    between atoms: C_10  and  C_20 
REMARK    5  A    between atoms: C_10  and  N_14 
REMARK    6  A    between atoms: C_11  and  S_12 
REMARK    7  A    between atoms: C_11  and  C_17 
REMARK    8  A    between atoms: C_17  and  C_18 
REMARK    9  A    between atoms: C_20  and  C_21 
ROOT
HETATM    1  C           1     -21.578  -4.514  -7.842  0.00  0.00     0.280 C 
ENDROOT
BRANCH   1   2
HETATM    2  C           1     -20.971  -5.101  -6.592  0.00  0.00     0.249 C 
HETATM    3  N           1     -21.613  -6.111  -5.928  0.00  0.00    -0.345 N 
HETATM    4  H           1     -22.494  -6.465  -6.277  0.00  0.00     0.163 HD
HETATM    5  O           1     -19.918  -4.677  -6.176  0.00  0.00    -0.271 OA
BRANCH   3   6
HETATM    6  C           1     -21.028  -6.675  -4.727  0.00  0.00     0.186 C 
BRANCH   6   7
HETATM    7  C           1     -20.465  -8.040  -5.035  0.00  0.00     0.196 C 
HETATM    8  O           1     -19.422  -8.429  -4.465  0.00  0.00    -0.646 OA
HETATM    9  O           1     -21.041  -8.783  -5.858  0.00  0.00    -0.646 OA
ENDBRANCH   6   7
BRANCH   6  10
HETATM   10  C           1     -22.099  -6.799  -3.651  0.00  0.00     0.046 C 
BRANCH  10  11
HETATM   11  C           1     -21.619  -6.121  -2.374  0.00  0.00     0.076 C 
BRANCH  11  12
HETATM   12  S           1     -22.260  -7.019  -0.933  0.00  0.00    -0.173 SA
HETATM   13  C           1     -21.256  -8.512  -1.166  0.00  0.00     0.089 C 
ENDBRANCH  11  12
ENDBRANCH  10  11
ENDBRANCH   6  10
ENDBRANCH   3   6
ENDBRANCH   1   2
BRANCH   1  14
HETATM   14  C           1     -20.538  -4.500  -8.955  0.00  0.00     0.101 C 
BRANCH  14  15
HETATM   15  C           1     -21.220  -4.298 -10.272  0.00  0.00     0.028 A 
HETATM   16  C           1     -20.617  -3.777 -11.392  0.00  0.00     0.114 A 
HETATM   17  N           1     -21.592  -3.773 -12.350  0.00  0.00    -0.360 N 
HETATM   18  C           1     -22.726  -4.282 -11.784  0.00  0.00     0.180 A 
HETATM   19  H           1     -21.488  -3.440 -13.341  0.00  0.00     0.166 HD
HETATM   20  N           1     -22.531  -4.609 -10.528  0.00  0.00    -0.355 N 
ATOM     21  HN          1     -23.210  -5.009  -9.881  1.00  0.00     0.166 HD
ENDBRANCH  14  15
ENDBRANCH   1  14
BRANCH   1  22
HETATM   22  N           1     -22.032  -3.111  -7.566  0.00  0.00    -0.066 N 
HETATM   23  H           1     -21.397  -2.436  -8.049  0.00  0.00     0.275 HD
HETATM   24  H           1     -23.007  -2.985  -7.920  0.00  0.00     0.275 HD
HETATM   25  H           1     -22.009  -2.934  -6.537  0.00  0.00     0.275 HD
ENDBRANCH   1  22
TORSDOF 9
ENDMDL
MODEL 4
REMARK VINA RESULT:      -5.8      3.817      7.510
REMARK  9 active torsions:
REMARK  status: ('A' for Active; 'I' for Inactive)
REMARK       I    between atoms: C_4  and  N_5 
REMARK    1  A    between atoms: C_4  and  C_10 
REMARK    2  A    between atoms: N_5  and  C_18 
REMARK    3  A    between atoms: C_9  and  C_18 
REMARK    4  A    between atoms: C_10  and  C_20 
REMARK    5  A    between atoms: C_10  and  N_14 
REMARK    6  A    between atoms: C_11  and  S_12 
REMARK    7  A    between atoms: C_11  and  C_17 
REMARK    8  A    between atoms: C_17  and  C_18 
REMARK    9  A    between atoms: C_20  and  C_21 
ROOT
HETATM    1  C           1     -21.384  -4.631  -6.837  0.00  0.00     0.280 C 
ENDROOT
BRANCH   1   2
HETATM    2  C           1     -21.988  -5.611  -5.861  0.00  0.00     0.249 C 
HETATM    3  N           1     -21.177  -6.424  -5.116  0.00  0.00    -0.345 N 
HETATM    4  H           1     -20.172  -6.367  -5.219  0.00  0.00     0.163 HD
HETATM    5  O           1     -23.188  -5.679  -5.739  0.00  0.00    -0.271 OA
BRANCH   3   6
HETATM    6  C           1     -21.758  -7.365  -4.179  0.00  0.00     0.186 C 
BRANCH   6   7
HETATM    7  C           1     -21.637  -6.818  -2.777  0.00  0.00     0.196 C 
HETATM    8  O           1     -22.403  -5.908  -2.394  0.00  0.00    -0.646 OA
HETATM    9  O           1     -20.772  -7.277  -2.000  0.00  0.00    -0.646 OA
ENDBRANCH   6   7
BRANCH   6  10
HETATM   10  C           1     -21.019  -8.694  -4.269  0.00  0.00     0.046 C 
BRANCH  10  11
HETATM   11  C           1     -19.713  -8.500  -5.029  0.00  0.00     0.076 C 
BRANCH  11  12
HETATM   12  S           1     -18.427  -9.552  -4.300  0.00  0.00    -0.173 SA
HETATM   13  C           1     -19.508 -10.396  -3.112  0.00  0.00     0.089 C 
ENDBRANCH  11  12
ENDBRANCH  10  11
ENDBRANCH   6  10
ENDBRANCH   3   6
ENDBRANCH   1   2
BRANCH   1  14
HETATM   14  C           1     -21.540  -5.163  -8.255  0.00  0.00     0.101 C 
BRANCH  14  15
HETATM   15  C           1     -22.614  -4.396  -8.961  0.00  0.00     0.028 A 
HETATM   16  C           1     -22.540  -3.966 -10.264  0.00  0.00     0.114 A 
HETATM   17  N           1     -23.722  -3.317 -10.492  0.00  0.00    -0.360 N 
HETATM   18  C           1     -24.452  -3.379  -9.339  0.00  0.00     0.180 A 
HETATM   19  H           1     -24.014  -2.857 -11.389  0.00  0.00     0.166 HD
HETATM   20  N           1     -23.808  -4.025  -8.396  0.00  0.00    -0.355 N 
ATOM     21  HN          1     -24.128  -4.213  -7.446  1.00  0.00     0.166 HD
ENDBRANCH  14  15
ENDBRANCH   1  14
BRANCH   1  22
HETATM   22  N           1     -19.927  -4.452  -6.528  0.00  0.00    -0.066 N 
HETATM   23  H           1     -19.359  -4.704  -7.368  0.00  0.00     0.275 HD
HETATM   24  H           1     -19.746  -3.456  -6.272  0.00  0.00     0.275 HD
HETATM   25  H           1     -19.662  -5.071  -5.730  0.00  0.00     0.275 HD
ENDBRANCH   1  22
TORSDOF 9
ENDMDL
MODEL 5
REMARK VINA RESULT:      -5.6      3.423      7.610
REMARK  9 active torsions:
REMARK  status: ('A' for Active; 'I' for Inactive)
REMARK       I    between atoms: C_4  and  N_5 
REMARK    1  A    between atoms: C_4  and  C_10 
REMARK    2  A    between atoms: N_5  and  C_18 
REMARK    3  A    between atoms: C_9  and  C_18 
REMARK    4  A    between atoms: C_10  and  C_20 
REMARK    5  A    between atoms: C_10  and  N_14 
REMARK    6  A    between atoms: C_11  and  S_12 
REMARK    7  A    between atoms: C_11  and  C_17 
REMARK    8  A    between atoms: C_17  and  C_18 
REMARK    9  A    between atoms: C_20  and  C_21 
ROOT
HETATM    1  C           1     -21.879  -4.152  -9.198  0.00  0.00     0.280 C 
ENDROOT
BRANCH   1   2
HETATM    2  C           1     -22.235  -4.694  -7.836  0.00  0.00     0.249 C 
HETATM    3  N           1     -21.381  -5.550  -7.194  0.00  0.00    -0.345 N 
HETATM    4  H           1     -20.510  -5.818  -7.632  0.00  0.00     0.163 HD
HETATM    5  O           1     -23.277  -4.374  -7.313  0.00  0.00    -0.271 OA
BRANCH   3   6
HETATM    6  C           1     -21.725  -6.070  -5.885  0.00  0.00     0.186 C 
BRANCH   6   7
HETATM    7  C           1     -20.929  -5.342  -4.829  0.00  0.00     0.196 C 
HETATM    8  O           1     -20.036  -4.535  -5.167  0.00  0.00    -0.646 OA
HETATM    9  O           1     -21.164  -5.545  -3.619  0.00  0.00    -0.646 OA
ENDBRANCH   6   7
BRANCH   6  10
HETATM   10  C           1     -21.401  -7.557  -5.828  0.00  0.00     0.046 C 
BRANCH  10  11
HETATM   11  C           1     -19.925  -7.744  -5.499  0.00  0.00     0.076 C 
BRANCH  11  12
HETATM   12  S           1     -19.720  -9.201  -4.437  0.00  0.00    -0.173 SA
HETATM   13  C           1     -21.363  -9.120  -3.670  0.00  0.00     0.089 C 
ENDBRANCH  11  12
ENDBRANCH  10  11
ENDBRANCH   6  10
ENDBRANCH   3   6
ENDBRANCH   1   2
BRANCH   1  14
HETATM   14  C           1     -22.723  -4.845 -10.259  0.00  0.00     0.101 C 
BRANCH  14  15
HETATM   15  C           1     -22.934  -3.916 -11.414  0.00  0.00     0.028 A 
HETATM   16  C           1     -24.018  -3.085 -11.561  0.00  0.00     0.114 A 
HETATM   17  N           1     -23.804  -2.427 -12.740  0.00  0.00    -0.360 N 
HETATM   18  C           1     -22.619  -2.877 -13.251  0.00  0.00     0.180 A 
HETATM   19  H           1     -24.433  -1.707 -13.173  0.00  0.00     0.166 HD
HETATM   20  N           1     -22.070  -3.777 -12.471  0.00  0.00    -0.355 N 
ATOM     21  HN          1     -21.189  -4.269 -12.618  1.00  0.00     0.166 HD
ENDBRANCH  14  15
ENDBRANCH   1  14
BRANCH   1  22
HETATM   22  N           1     -20.426  -4.406  -9.472  0.00  0.00    -0.066 N 
HETATM   23  H           1     -19.861  -4.148  -8.631  0.00  0.00     0.275 HD
HETATM   24  H           1     -20.285  -5.419  -9.687  0.00  0.00     0.275 HD
HETATM   25  H           1     -20.119  -3.831 -10.288  0.00  0.00     0.275 HD
ENDBRANCH   1  22
TORSDOF 9
ENDMDL
MODEL 6
REMARK VINA RESULT:      -5.4      4.430      7.925
REMARK  9 active torsions:
REMARK  status: ('A' for Active; 'I' for Inactive)
REMARK       I    between atoms: C_4  and  N_5 
REMARK    1  A    between atoms: C_4  and  C_10 
REMARK    2  A    between atoms: N_5  and  C_18 
REMARK    3  A    between atoms: C_9  and  C_18 
REMARK    4  A    between atoms: C_10  and  C_20 
REMARK    5  A    between atoms: C_10  and  N_14 
REMARK    6  A    between atoms: C_11  and  S_12 
REMARK    7  A    between atoms: C_11  and  C_17 
REMARK    8  A    between atoms: C_17  and  C_18 
REMARK    9  A    between atoms: C_20  and  C_21 
ROOT
HETATM    1  C           1     -21.935  -6.107  -6.213  0.00  0.00     0.280 C 
ENDROOT
BRANCH   1   2
HETATM    2  C           1     -20.735  -6.950  -5.859  0.00  0.00     0.249 C 
HETATM    3  N           1     -20.827  -7.890  -4.868  0.00  0.00    -0.345 N 
HETATM    4  H           1     -21.700  -8.020  -4.373  0.00  0.00     0.163 HD
HETATM    5  O           1     -19.692  -6.794  -6.449  0.00  0.00    -0.271 OA
BRANCH   3   6
HETATM    6  C           1     -19.673  -8.700  -4.528  0.00  0.00     0.186 C 
BRANCH   6   7
HETATM    7  C           1     -19.784 -10.043  -5.207  0.00  0.00     0.196 C 
HETATM    8  O           1     -20.739 -10.275  -5.981  0.00  0.00    -0.646 OA
HETATM    9  O           1     -18.922 -10.923  -4.997  0.00  0.00    -0.646 OA
ENDBRANCH   6   7
BRANCH   6  10
HETATM   10  C           1     -19.617  -8.898  -3.019  0.00  0.00     0.046 C 
BRANCH  10  11
HETATM   11  C           1     -21.034  -8.991  -2.466  0.00  0.00     0.076 C 
BRANCH  11  12
HETATM   12  S           1     -21.124  -8.111  -0.882  0.00  0.00    -0.173 SA
HETATM   13  C           1     -22.172  -6.751  -1.469  0.00  0.00     0.089 C 
ENDBRANCH  11  12
ENDBRANCH  10  11
ENDBRANCH   6  10
ENDBRANCH   3   6
ENDBRANCH   1   2
BRANCH   1  14
HETATM   14  C           1     -21.474  -4.727  -6.660  0.00  0.00     0.101 C 
BRANCH  14  15
HETATM   15  C           1     -22.246  -4.311  -7.873  0.00  0.00     0.028 A 
HETATM   16  C           1     -21.692  -4.075  -9.109  0.00  0.00     0.114 A 
HETATM   17  N           1     -22.745  -3.724  -9.908  0.00  0.00    -0.360 N 
HETATM   18  C           1     -23.873  -3.762  -9.139  0.00  0.00     0.180 A 
HETATM   19  H           1     -22.695  -3.474 -10.926  0.00  0.00     0.166 HD
HETATM   20  N           1     -23.603  -4.114  -7.904  0.00  0.00    -0.355 N 
ATOM     21  HN          1     -24.261  -4.219  -7.133  1.00  0.00     0.166 HD
ENDBRANCH  14  15
ENDBRANCH   1  14
BRANCH   1  22
HETATM   22  N           1     -22.823  -5.971  -5.011  0.00  0.00    -0.066 N 
HETATM   23  H           1     -22.534  -6.664  -4.284  0.00  0.00     0.275 HD
HETATM   24  H           1     -22.738  -5.005  -4.624  0.00  0.00     0.275 HD
HETATM   25  H           1     -23.814  -6.150  -5.288  0.00  0.00     0.275 HD
ENDBRANCH   1  22
TORSDOF 9
ENDMDL
MODEL 7
REMARK VINA RESULT:      -5.2     19.210     20.630
REMARK  9 active torsions:
REMARK  status: ('A' for Active; 'I' for Inactive)
REMARK       I    between atoms: C_4  and  N_5 
REMARK    1  A    between atoms: C_4  and  C_10 
REMARK    2  A    between atoms: N_5  and  C_18 
REMARK    3  A    between atoms: C_9  and  C_18 
REMARK    4  A    between atoms: C_10  and  C_20 
REMARK    5  A    between atoms: C_10  and  N_14 
REMARK    6  A    between atoms: C_11  and  S_12 
REMARK    7  A    between atoms: C_11  and  C_17 
REMARK    8  A    between atoms: C_17  and  C_18 
REMARK    9  A    between atoms: C_20  and  C_21 
ROOT
HETATM    1  C           1     -13.337   5.315 -20.413  0.00  0.00     0.280 C 
ENDROOT
BRANCH   1   2
HETATM    2  C           1     -12.978   6.760 -20.657  0.00  0.00     0.249 C 
HETATM    3  N           1     -12.571   7.550 -19.616  0.00  0.00    -0.345 N 
HETATM    4  H           1     -12.510   7.165 -18.683  0.00  0.00     0.163 HD
HETATM    5  O           1     -13.051   7.220 -21.772  0.00  0.00    -0.271 OA
BRANCH   3   6
HETATM    6  C           1     -12.226   8.939 -19.852  0.00  0.00     0.186 C 
BRANCH   6   7
HETATM    7  C           1     -10.752   9.141 -19.598  0.00  0.00     0.196 C 
HETATM    8  O           1     -10.060   9.784 -20.417  0.00  0.00    -0.646 OA
HETATM    9  O           1     -10.225   8.667 -18.569  0.00  0.00    -0.646 OA
ENDBRANCH   6   7
BRANCH   6  10
HETATM   10  C           1     -13.029   9.829 -18.912  0.00  0.00     0.046 C 
BRANCH  10  11
HETATM   11  C           1     -13.622  10.992 -19.696  0.00  0.00     0.076 C 
BRANCH  11  12
HETATM   12  S           1     -14.893  11.813 -18.694  0.00  0.00    -0.173 SA
HETATM   13  C           1     -14.857  10.629 -17.318  0.00  0.00     0.089 C 
ENDBRANCH  11  12
ENDBRANCH  10  11
ENDBRANCH   6  10
ENDBRANCH   3   6
ENDBRANCH   1   2
BRANCH   1  14
HETATM   14  C           1     -12.186   4.422 -20.858  0.00  0.00     0.101 C 
BRANCH  14  15
HETATM   15  C           1     -10.885   5.068 -20.498  0.00  0.00     0.028 A 
HETATM   16  C           1     -10.296   5.001 -19.257  0.00  0.00     0.114 A 
HETATM   17  N           1      -9.140   5.721 -19.374  0.00  0.00    -0.360 N 
HETATM   18  C           1      -9.075   6.187 -20.656  0.00  0.00     0.180 A 
HETATM   19  H           1      -8.431   5.884 -18.617  0.00  0.00     0.166 HD
HETATM   20  N           1     -10.116   5.808 -21.359  0.00  0.00    -0.355 N 
ATOM     21  HN          1     -10.311   6.018 -22.338  1.00  0.00     0.166 HD
ENDBRANCH  14  15
ENDBRANCH   1  14
BRANCH   1  22
HETATM   22  N           1     -14.569   4.968 -21.194  0.00  0.00    -0.066 N 
HETATM   23  H           1     -15.416   5.139 -20.606  0.00  0.00     0.275 HD
HETATM   24  H           1     -14.616   5.563 -22.052  0.00  0.00     0.275 HD
HETATM   25  H           1     -14.534   3.961 -21.470  0.00  0.00     0.275 HD
ENDBRANCH   1  22
TORSDOF 9
ENDMDL
MODEL 8
REMARK VINA RESULT:      -5.2     10.788     13.056
REMARK  9 active torsions:
REMARK  status: ('A' for Active; 'I' for Inactive)
REMARK       I    between atoms: C_4  and  N_5 
REMARK    1  A    between atoms: C_4  and  C_10 
REMARK    2  A    between atoms: N_5  and  C_18 
REMARK    3  A    between atoms: C_9  and  C_18 
REMARK    4  A    between atoms: C_10  and  C_20 
REMARK    5  A    between atoms: C_10  and  N_14 
REMARK    6  A    between atoms: C_11  and  S_12 
REMARK    7  A    between atoms: C_11  and  C_17 
REMARK    8  A    between atoms: C_17  and  C_18 
REMARK    9  A    between atoms: C_20  and  C_21 
ROOT
HETATM    1  C           1     -29.678  -7.366 -17.573  0.00  0.00     0.280 C 
ENDROOT
BRANCH   1   2
HETATM    2  C           1     -31.000  -6.668 -17.372  0.00  0.00     0.249 C 
HETATM    3  N           1     -31.043  -5.445 -16.757  0.00  0.00    -0.345 N 
HETATM    4  H           1     -30.187  -5.009 -16.439  0.00  0.00     0.163 HD
HETATM    5  O           1     -32.022  -7.189 -17.752  0.00  0.00    -0.271 OA
BRANCH   3   6
HETATM    6  C           1     -32.314  -4.775 -16.564  0.00  0.00     0.186 C 
BRANCH   6   7
HETATM    7  C           1     -32.313  -3.468 -17.319  0.00  0.00     0.196 C 
HETATM    8  O           1     -31.232  -2.961 -17.689  0.00  0.00    -0.646 OA
HETATM    9  O           1     -33.393  -2.893 -17.575  0.00  0.00    -0.646 OA
ENDBRANCH   6   7
BRANCH   6  10
HETATM   10  C           1     -32.526  -4.503 -15.081  0.00  0.00     0.046 C 
BRANCH  10  11
HETATM   11  C           1     -34.018  -4.404 -14.789  0.00  0.00     0.076 C 
BRANCH  11  12
HETATM   12  S           1     -34.266  -3.687 -13.141  0.00  0.00    -0.173 SA
HETATM   13  C           1     -34.788  -5.225 -12.332  0.00  0.00     0.089 C 
ENDBRANCH  11  12
ENDBRANCH  10  11
ENDBRANCH   6  10
ENDBRANCH   3   6
ENDBRANCH   1   2
BRANCH   1  14
HETATM   14  C           1     -28.639  -6.360 -18.050  0.00  0.00     0.101 C 
BRANCH  14  15
HETATM   15  C           1     -27.375  -6.539 -17.267  0.00  0.00     0.028 A 
HETATM   16  C           1     -27.318  -6.715 -15.905  0.00  0.00     0.114 A 
HETATM   17  N           1     -25.986  -6.835 -15.619  0.00  0.00    -0.360 N 
HETATM   18  C           1     -25.303  -6.731 -16.797  0.00  0.00     0.180 A 
HETATM   19  H           1     -25.566  -6.983 -14.668  0.00  0.00     0.166 HD
HETATM   20  N           1     -26.116  -6.551 -17.811  0.00  0.00    -0.355 N 
ATOM     21  HN          1     -25.865  -6.445 -18.794  1.00  0.00     0.166 HD
ENDBRANCH  14  15
ENDBRANCH   1  14
BRANCH   1  22
HETATM   22  N           1     -29.835  -8.446 -18.602  0.00  0.00    -0.066 N 
HETATM   23  H           1     -30.224  -9.305 -18.150  0.00  0.00     0.275 HD
HETATM   24  H           1     -30.488  -8.122 -19.350  0.00  0.00     0.275 HD
HETATM   25  H           1     -28.904  -8.665 -19.022  0.00  0.00     0.275 HD
ENDBRANCH   1  22
TORSDOF 9
ENDMDL
MODEL 9
REMARK VINA RESULT:      -5.1      4.143      7.884
REMARK  9 active torsions:
REMARK  status: ('A' for Active; 'I' for Inactive)
REMARK       I    between atoms: C_4  and  N_5 
REMARK    1  A    between atoms: C_4  and  C_10 
REMARK    2  A    between atoms: N_5  and  C_18 
REMARK    3  A    between atoms: C_9  and  C_18 
REMARK    4  A    between atoms: C_10  and  C_20 
REMARK    5  A    between atoms: C_10  and  N_14 
REMARK    6  A    between atoms: C_11  and  S_12 
REMARK    7  A    between atoms: C_11  and  C_17 
REMARK    8  A    between atoms: C_17  and  C_18 
REMARK    9  A    between atoms: C_20  and  C_21 
ROOT
HETATM    1  C           1     -20.219  -6.021  -5.733  0.00  0.00     0.280 C 
ENDROOT
BRANCH   1   2
HETATM    2  C           1     -21.158  -6.736  -4.793  0.00  0.00     0.249 C 
HETATM    3  N           1     -20.712  -7.157  -3.570  0.00  0.00    -0.345 N 
HETATM    4  H           1     -19.753  -6.989  -3.295  0.00  0.00     0.163 HD
HETATM    5  O           1     -22.303  -6.938  -5.122  0.00  0.00    -0.271 OA
BRANCH   3   6
HETATM    6  C           1     -21.615  -7.845  -2.667  0.00  0.00     0.186 C 
BRANCH   6   7
HETATM    7  C           1     -22.060  -6.895  -1.582  0.00  0.00     0.196 C 
HETATM    8  O           1     -22.019  -7.251  -0.384  0.00  0.00    -0.646 OA
HETATM    9  O           1     -22.469  -5.752  -1.880  0.00  0.00    -0.646 OA
ENDBRANCH   6   7
BRANCH   6  10
HETATM   10  C           1     -20.899  -9.032  -2.038  0.00  0.00     0.046 C 
BRANCH  10  11
HETATM   11  C           1     -20.687 -10.114  -3.089  0.00  0.00     0.076 C 
BRANCH  11  12
HETATM   12  S           1     -22.296 -10.752  -3.635  0.00  0.00    -0.173 SA
HETATM   13  C           1     -22.200 -12.327  -2.739  0.00  0.00     0.089 C 
ENDBRANCH  11  12
ENDBRANCH  10  11
ENDBRANCH   6  10
ENDBRANCH   3   6
ENDBRANCH   1   2
BRANCH   1  14
HETATM   14  C           1     -20.597  -4.547  -5.807  0.00  0.00     0.101 C 
BRANCH  14  15
HETATM   15  C           1     -21.408  -4.301  -7.041  0.00  0.00     0.028 A 
HETATM   16  C           1     -20.888  -3.916  -8.254  0.00  0.00     0.114 A 
HETATM   17  N           1     -21.969  -3.809  -9.084  0.00  0.00    -0.360 N 
HETATM   18  C           1     -23.080  -4.127  -8.356  0.00  0.00     0.180 A 
HETATM   19  H           1     -21.949  -3.533 -10.097  0.00  0.00     0.166 HD
HETATM   20  N           1     -22.771  -4.430  -7.116  0.00  0.00    -0.355 N 
ATOM     21  HN          1     -23.410  -4.703  -6.369  1.00  0.00     0.166 HD
ENDBRANCH  14  15
ENDBRANCH   1  14
BRANCH   1  22
HETATM   22  N           1     -20.320  -6.631  -7.100  0.00  0.00    -0.066 N 
HETATM   23  H           1     -19.405  -6.531  -7.596  0.00  0.00     0.275 HD
HETATM   24  H           1     -20.558  -7.644  -7.011  0.00  0.00     0.275 HD
HETATM   25  H           1     -21.066  -6.144  -7.645  0.00  0.00     0.275 HD
ENDBRANCH   1  22
TORSDOF 9
ENDMDL
