MODEL 1
REMARK VINA RESULT:      -7.0      0.000      0.000
REMARK  10 active torsions:
REMARK  status: ('A' for Active; 'I' for Inactive)
REMARK    1  A    between atoms: N_7  and  C_21 
REMARK       I    between atoms: N_7  and  C_8 
REMARK    2  A    between atoms: C_8  and  C_9 
REMARK    3  A    between atoms: C_9  and  C_10 
REMARK    4  A    between atoms: C_9  and  N_14 
REMARK    5  A    between atoms: C_10  and  C_11 
REMARK       I    between atoms: C_11  and  N_12 
REMARK    6  A    between atoms: C_19  and  C_21 
REMARK    7  A    between atoms: C_21  and  C_22 
REMARK    8  A    between atoms: C_22  and  O_23 
REMARK    9  A    between atoms: O_23  and  P_24 
REMARK   10  A    between atoms: P_24  and  O_26 
ROOT
HETATM    1  N           1     -34.914  -1.685 -12.908  0.00  0.00    -0.343 N 
HETATM    2  C           1     -34.202  -2.591 -12.169  0.00  0.00     0.249 C 
HETATM    3  O           1     -33.627  -2.235 -11.168  0.00  0.00    -0.271 OA
HETATM    4  H           1     -35.396  -1.984 -13.746  0.00  0.00     0.163 HD
ENDROOT
BRANCH   1   5
HETATM    5  C           1     -34.980  -0.299 -12.490  0.00  0.00     0.210 C 
BRANCH   5   6
HETATM    6  C           1     -36.263  -0.064 -11.729  0.00  0.00     0.198 C 
HETATM    7  O           1     -37.346  -0.495 -12.181  0.00  0.00    -0.646 OA
HETATM    8  O           1     -36.241   0.561 -10.647  0.00  0.00    -0.646 OA
ENDBRANCH   5   6
BRANCH   5   9
HETATM    9  C           1     -34.945   0.602 -13.716  0.00  0.00     0.217 C 
BRANCH   9  10
HETATM   10  O           1     -34.924  -0.185 -14.876  0.00  0.00    -0.287 OA
BRANCH  10  11
HETATM   11  P           1     -36.264  -0.151 -15.779  0.00  0.00     0.406 P 
HETATM   12  O           1     -36.622   1.253 -16.078  0.00  0.00    -0.624 OA
HETATM   13  O           1     -36.024  -0.880 -17.044  0.00  0.00    -0.624 OA
BRANCH  11  14
HETATM   14  O           1     -37.472  -0.858 -14.973  0.00  0.00    -0.300 OA
HETATM   15  H           1     -37.052  -1.355 -14.291  0.00  0.00     0.223 HD
ENDBRANCH  11  14
ENDBRANCH  10  11
ENDBRANCH   9  10
ENDBRANCH   5   9
ENDBRANCH   1   5
BRANCH   2  16
HETATM   16  C           1     -34.134  -4.034 -12.605  0.00  0.00     0.283 C 
BRANCH  16  17
HETATM   17  C           1     -33.187  -4.798 -11.689  0.00  0.00     0.145 C 
BRANCH  17  18
HETATM   18  C           1     -33.973  -5.796 -10.873  0.00  0.00     0.217 C 
HETATM   19  N           1     -33.527  -7.084 -10.753  0.00  0.00    -0.370 N 
HETATM   20  H           1     -34.054  -7.753 -10.205  0.00  0.00     0.159 HD
HETATM   21  H           1     -32.671  -7.368 -11.211  0.00  0.00     0.159 HD
HETATM   22  O           1     -34.995  -5.456 -10.325  0.00  0.00    -0.274 OA
ENDBRANCH  17  18
ENDBRANCH  16  17
BRANCH  16  23
HETATM   23  N           1     -33.628  -4.106 -14.016  0.00  0.00    -0.066 N 
HETATM   24  H           1     -32.621  -4.384 -14.012  0.00  0.00     0.275 HD
HETATM   25  H           1     -34.182  -4.815 -14.547  0.00  0.00     0.275 HD
HETATM   26  H           1     -33.730  -3.172 -14.471  0.00  0.00     0.275 HD
ENDBRANCH  16  23
ENDBRANCH   2  16
TORSDOF 10
ENDMDL
MODEL 2
REMARK VINA RESULT:      -6.6     11.943     13.539
REMARK  10 active torsions:
REMARK  status: ('A' for Active; 'I' for Inactive)
REMARK    1  A    between atoms: N_7  and  C_21 
REMARK       I    between atoms: N_7  and  C_8 
REMARK    2  A    between atoms: C_8  and  C_9 
REMARK    3  A    between atoms: C_9  and  C_10 
REMARK    4  A    between atoms: C_9  and  N_14 
REMARK    5  A    between atoms: C_10  and  C_11 
REMARK       I    between atoms: C_11  and  N_12 
REMARK    6  A    between atoms: C_19  and  C_21 
REMARK    7  A    between atoms: C_21  and  C_22 
REMARK    8  A    between atoms: C_22  and  O_23 
REMARK    9  A    between atoms: O_23  and  P_24 
REMARK   10  A    between atoms: P_24  and  O_26 
ROOT
HETATM    1  N           1     -21.835  -4.595  -9.655  0.00  0.00    -0.343 N 
HETATM    2  C           1     -21.543  -4.392  -8.333  0.00  0.00     0.249 C 
HETATM    3  O           1     -21.935  -3.395  -7.773  0.00  0.00    -0.271 OA
HETATM    4  H           1     -21.507  -5.430 -10.123  0.00  0.00     0.163 HD
ENDROOT
BRANCH   1   5
HETATM    5  C           1     -22.615  -3.615 -10.383  0.00  0.00     0.210 C 
BRANCH   5   6
HETATM    6  C           1     -24.085  -3.886 -10.173  0.00  0.00     0.198 C 
HETATM    7  O           1     -24.874  -2.936  -9.977  0.00  0.00    -0.646 OA
HETATM    8  O           1     -24.513  -5.059 -10.196  0.00  0.00    -0.646 OA
ENDBRANCH   5   6
BRANCH   5   9
HETATM    9  C           1     -22.288  -3.710 -11.868  0.00  0.00     0.217 C 
BRANCH   9  10
HETATM   10  O           1     -22.668  -2.522 -12.508  0.00  0.00    -0.287 OA
BRANCH  10  11
HETATM   11  P           1     -23.541  -2.692 -13.857  0.00  0.00     0.406 P 
HETATM   12  O           1     -22.634  -2.862 -15.013  0.00  0.00    -0.624 OA
HETATM   13  O           1     -24.412  -3.882 -13.734  0.00  0.00    -0.624 OA
BRANCH  11  14
HETATM   14  O           1     -24.454  -1.378 -14.074  0.00  0.00    -0.300 OA
HETATM   15  H           1     -24.606  -1.338 -15.004  0.00  0.00     0.223 HD
ENDBRANCH  11  14
ENDBRANCH  10  11
ENDBRANCH   9  10
ENDBRANCH   5   9
ENDBRANCH   1   5
BRANCH   2  16
HETATM   16  C           1     -20.731  -5.412  -7.574  0.00  0.00     0.283 C 
BRANCH  16  17
HETATM   17  C           1     -21.344  -5.630  -6.197  0.00  0.00     0.145 C 
BRANCH  17  18
HETATM   18  C           1     -21.017  -7.023  -5.715  0.00  0.00     0.217 C 
HETATM   19  N           1     -21.889  -7.685  -4.893  0.00  0.00    -0.370 N 
HETATM   20  H           1     -21.670  -8.619  -4.570  0.00  0.00     0.159 HD
HETATM   21  H           1     -22.752  -7.240  -4.608  0.00  0.00     0.159 HD
HETATM   22  O           1     -19.986  -7.553  -6.055  0.00  0.00    -0.274 OA
ENDBRANCH  17  18
ENDBRANCH  16  17
BRANCH  16  23
HETATM   23  N           1     -19.323  -4.917  -7.421  0.00  0.00    -0.066 N 
HETATM   24  H           1     -18.656  -5.698  -7.613  0.00  0.00     0.275 HD
HETATM   25  H           1     -19.153  -4.139  -8.097  0.00  0.00     0.275 HD
HETATM   26  H           1     -19.181  -4.569  -6.446  0.00  0.00     0.275 HD
ENDBRANCH  16  23
ENDBRANCH   2  16
TORSDOF 10
ENDMDL
MODEL 3
REMARK VINA RESULT:      -6.5      3.078      5.580
REMARK  10 active torsions:
REMARK  status: ('A' for Active; 'I' for Inactive)
REMARK    1  A    between atoms: N_7  and  C_21 
REMARK       I    between atoms: N_7  and  C_8 
REMARK    2  A    between atoms: C_8  and  C_9 
REMARK    3  A    between atoms: C_9  and  C_10 
REMARK    4  A    between atoms: C_9  and  N_14 
REMARK    5  A    between atoms: C_10  and  C_11 
REMARK       I    between atoms: C_11  and  N_12 
REMARK    6  A    between atoms: C_19  and  C_21 
REMARK    7  A    between atoms: C_21  and  C_22 
REMARK    8  A    between atoms: C_22  and  O_23 
REMARK    9  A    between atoms: O_23  and  P_24 
REMARK   10  A    between atoms: P_24  and  O_26 
ROOT
HETATM    1  N           1     -35.738  -0.488 -11.910  0.00  0.00    -0.343 N 
HETATM    2  C           1     -36.408  -0.244 -13.079  0.00  0.00     0.249 C 
HETATM    3  O           1     -37.476  -0.770 -13.284  0.00  0.00    -0.271 OA
HETATM    4  H           1     -34.844  -0.047 -11.739  0.00  0.00     0.163 HD
ENDROOT
BRANCH   1   5
HETATM    5  C           1     -36.310  -1.376 -10.918  0.00  0.00     0.210 C 
BRANCH   5   6
HETATM    6  C           1     -36.662  -0.587  -9.681  0.00  0.00     0.198 C 
HETATM    7  O           1     -37.846  -0.241  -9.475  0.00  0.00    -0.646 OA
HETATM    8  O           1     -35.770  -0.280  -8.861  0.00  0.00    -0.646 OA
ENDBRANCH   5   6
BRANCH   5   9
HETATM    9  C           1     -35.298  -2.456 -10.562  0.00  0.00     0.217 C 
BRANCH   9  10
HETATM   10  O           1     -35.595  -3.630 -11.269  0.00  0.00    -0.287 OA
BRANCH  10  11
HETATM   11  P           1     -34.527  -4.066 -12.399  0.00  0.00     0.406 P 
HETATM   12  O           1     -34.435  -3.004 -13.426  0.00  0.00    -0.624 OA
HETATM   13  O           1     -33.201  -4.266 -11.775  0.00  0.00    -0.624 OA
BRANCH  11  14
HETATM   14  O           1     -35.009  -5.444 -13.090  0.00  0.00    -0.300 OA
HETATM   15  H           1     -34.250  -5.767 -13.545  0.00  0.00     0.223 HD
ENDBRANCH  11  14
ENDBRANCH  10  11
ENDBRANCH   9  10
ENDBRANCH   5   9
ENDBRANCH   1   5
BRANCH   2  16
HETATM   16  C           1     -35.812   0.680 -14.112  0.00  0.00     0.283 C 
BRANCH  16  17
HETATM   17  C           1     -35.676  -0.057 -15.438  0.00  0.00     0.145 C 
BRANCH  17  18
HETATM   18  C           1     -36.987   0.005 -16.184  0.00  0.00     0.217 C 
HETATM   19  N           1     -37.840   1.056 -15.982  0.00  0.00    -0.370 N 
HETATM   20  H           1     -38.719   1.098 -16.482  0.00  0.00     0.159 HD
HETATM   21  H           1     -37.593   1.790 -15.331  0.00  0.00     0.159 HD
HETATM   22  O           1     -37.282  -0.873 -16.961  0.00  0.00    -0.274 OA
ENDBRANCH  17  18
ENDBRANCH  16  17
BRANCH  16  23
HETATM   23  N           1     -34.458   1.135 -13.654  0.00  0.00    -0.066 N 
HETATM   24  H           1     -33.751   0.927 -14.395  0.00  0.00     0.275 HD
HETATM   25  H           1     -34.480   2.164 -13.473  0.00  0.00     0.275 HD
HETATM   26  H           1     -34.200   0.632 -12.776  0.00  0.00     0.275 HD
ENDBRANCH  16  23
ENDBRANCH   2  16
TORSDOF 10
ENDMDL
MODEL 4
REMARK VINA RESULT:      -6.0     11.106     12.298
REMARK  10 active torsions:
REMARK  status: ('A' for Active; 'I' for Inactive)
REMARK    1  A    between atoms: N_7  and  C_21 
REMARK       I    between atoms: N_7  and  C_8 
REMARK    2  A    between atoms: C_8  and  C_9 
REMARK    3  A    between atoms: C_9  and  C_10 
REMARK    4  A    between atoms: C_9  and  N_14 
REMARK    5  A    between atoms: C_10  and  C_11 
REMARK       I    between atoms: C_11  and  N_12 
REMARK    6  A    between atoms: C_19  and  C_21 
REMARK    7  A    between atoms: C_21  and  C_22 
REMARK    8  A    between atoms: C_22  and  O_23 
REMARK    9  A    between atoms: O_23  and  P_24 
REMARK   10  A    between atoms: P_24  and  O_26 
ROOT
HETATM    1  N           1     -24.014  -3.714 -12.331  0.00  0.00    -0.343 N 
HETATM    2  C           1     -23.134  -4.113 -11.362  0.00  0.00     0.249 C 
HETATM    3  O           1     -22.119  -4.693 -11.669  0.00  0.00    -0.271 OA
HETATM    4  H           1     -24.864  -3.229 -12.073  0.00  0.00     0.163 HD
ENDROOT
BRANCH   1   5
HETATM    5  C           1     -23.728  -3.983 -13.726  0.00  0.00     0.210 C 
BRANCH   5   6
HETATM    6  C           1     -23.472  -2.683 -14.447  0.00  0.00     0.198 C 
HETATM    7  O           1     -24.184  -1.684 -14.207  0.00  0.00    -0.646 OA
HETATM    8  O           1     -22.547  -2.605 -15.284  0.00  0.00    -0.646 OA
ENDBRANCH   5   6
BRANCH   5   9
HETATM    9  C           1     -24.920  -4.689 -14.359  0.00  0.00     0.217 C 
BRANCH   9  10
HETATM   10  O           1     -24.653  -6.062 -14.458  0.00  0.00    -0.287 OA
BRANCH  10  11
HETATM   11  P           1     -25.310  -6.822 -15.724  0.00  0.00     0.406 P 
HETATM   12  O           1     -26.533  -7.533 -15.292  0.00  0.00    -0.624 OA
HETATM   13  O           1     -25.657  -5.832 -16.767  0.00  0.00    -0.624 OA
BRANCH  11  14
HETATM   14  O           1     -24.250  -7.883 -16.321  0.00  0.00    -0.300 OA
HETATM   15  H           1     -23.411  -7.598 -15.998  0.00  0.00     0.223 HD
ENDBRANCH  11  14
ENDBRANCH  10  11
ENDBRANCH   9  10
ENDBRANCH   5   9
ENDBRANCH   1   5
BRANCH   2  16
HETATM   16  C           1     -23.432  -3.833  -9.910  0.00  0.00     0.283 C 
BRANCH  16  17
HETATM   17  C           1     -22.525  -4.685  -9.030  0.00  0.00     0.145 C 
BRANCH  17  18
HETATM   18  C           1     -22.570  -4.168  -7.612  0.00  0.00     0.217 C 
HETATM   19  N           1     -21.656  -3.238  -7.194  0.00  0.00    -0.370 N 
HETATM   20  H           1     -21.686  -2.891  -6.244  0.00  0.00     0.159 HD
HETATM   21  H           1     -20.950  -2.898  -7.835  0.00  0.00     0.159 HD
HETATM   22  O           1     -23.412  -4.574  -6.847  0.00  0.00    -0.274 OA
ENDBRANCH  17  18
ENDBRANCH  16  17
BRANCH  16  23
HETATM   23  N           1     -24.865  -4.167  -9.619  0.00  0.00    -0.066 N 
HETATM   24  H           1     -25.225  -4.822 -10.350  0.00  0.00     0.275 HD
HETATM   25  H           1     -24.932  -4.622  -8.681  0.00  0.00     0.275 HD
HETATM   26  H           1     -25.435  -3.292  -9.625  0.00  0.00     0.275 HD
ENDBRANCH  16  23
ENDBRANCH   2  16
TORSDOF 10
ENDMDL
MODEL 5
REMARK VINA RESULT:      -6.0     12.178     13.803
REMARK  10 active torsions:
REMARK  status: ('A' for Active; 'I' for Inactive)
REMARK    1  A    between atoms: N_7  and  C_21 
REMARK       I    between atoms: N_7  and  C_8 
REMARK    2  A    between atoms: C_8  and  C_9 
REMARK    3  A    between atoms: C_9  and  C_10 
REMARK    4  A    between atoms: C_9  and  N_14 
REMARK    5  A    between atoms: C_10  and  C_11 
REMARK       I    between atoms: C_11  and  N_12 
REMARK    6  A    between atoms: C_19  and  C_21 
REMARK    7  A    between atoms: C_21  and  C_22 
REMARK    8  A    between atoms: C_22  and  O_23 
REMARK    9  A    between atoms: O_23  and  P_24 
REMARK   10  A    between atoms: P_24  and  O_26 
ROOT
HETATM    1  N           1     -22.428  -3.567  -9.407  0.00  0.00    -0.343 N 
HETATM    2  C           1     -22.018  -4.461  -8.456  0.00  0.00     0.249 C 
HETATM    3  O           1     -21.460  -5.481  -8.785  0.00  0.00    -0.271 OA
HETATM    4  H           1     -22.895  -2.712  -9.131  0.00  0.00     0.163 HD
ENDROOT
BRANCH   1   5
HETATM    5  C           1     -22.191  -3.841 -10.810  0.00  0.00     0.210 C 
BRANCH   5   6
HETATM    6  C           1     -20.759  -3.511 -11.153  0.00  0.00     0.198 C 
HETATM    7  O           1     -19.975  -4.419 -11.505  0.00  0.00    -0.646 OA
HETATM    8  O           1     -20.357  -2.330 -11.086  0.00  0.00    -0.646 OA
ENDBRANCH   5   6
BRANCH   5   9
HETATM    9  C           1     -23.126  -2.988 -11.658  0.00  0.00     0.217 C 
BRANCH   9  10
HETATM   10  O           1     -22.474  -2.613 -12.841  0.00  0.00    -0.287 OA
BRANCH  10  11
HETATM   11  P           1     -23.328  -2.774 -14.202  0.00  0.00     0.406 P 
HETATM   12  O           1     -24.253  -1.627 -14.343  0.00  0.00    -0.624 OA
HETATM   13  O           1     -22.408  -2.811 -15.360  0.00  0.00    -0.624 OA
BRANCH  11  14
HETATM   14  O           1     -24.175  -4.148 -14.145  0.00  0.00    -0.300 OA
HETATM   15  H           1     -24.800  -4.078 -14.847  0.00  0.00     0.223 HD
ENDBRANCH  11  14
ENDBRANCH  10  11
ENDBRANCH   9  10
ENDBRANCH   5   9
ENDBRANCH   1   5
BRANCH   2  16
HETATM   16  C           1     -22.264  -4.174  -6.995  0.00  0.00     0.283 C 
BRANCH  16  17
HETATM   17  C           1     -21.104  -4.713  -6.168  0.00  0.00     0.145 C 
BRANCH  17  18
HETATM   18  C           1     -21.495  -6.036  -5.554  0.00  0.00     0.217 C 
HETATM   19  N           1     -21.178  -7.205  -6.191  0.00  0.00    -0.370 N 
HETATM   20  H           1     -21.440  -8.092  -5.780  0.00  0.00     0.159 HD
HETATM   21  H           1     -20.682  -7.183  -7.073  0.00  0.00     0.159 HD
HETATM   22  O           1     -22.087  -6.062  -4.501  0.00  0.00    -0.274 OA
ENDBRANCH  17  18
ENDBRANCH  16  17
BRANCH  16  23
HETATM   23  N           1     -23.537  -4.841  -6.563  0.00  0.00    -0.066 N 
HETATM   24  H           1     -23.955  -4.309  -5.766  0.00  0.00     0.275 HD
HETATM   25  H           1     -24.209  -4.856  -7.362  0.00  0.00     0.275 HD
HETATM   26  H           1     -23.332  -5.819  -6.260  0.00  0.00     0.275 HD
ENDBRANCH  16  23
ENDBRANCH   2  16
TORSDOF 10
ENDMDL
MODEL 6
REMARK VINA RESULT:      -5.9     12.590     15.246
REMARK  10 active torsions:
REMARK  status: ('A' for Active; 'I' for Inactive)
REMARK    1  A    between atoms: N_7  and  C_21 
REMARK       I    between atoms: N_7  and  C_8 
REMARK    2  A    between atoms: C_8  and  C_9 
REMARK    3  A    between atoms: C_9  and  C_10 
REMARK    4  A    between atoms: C_9  and  N_14 
REMARK    5  A    between atoms: C_10  and  C_11 
REMARK       I    between atoms: C_11  and  N_12 
REMARK    6  A    between atoms: C_19  and  C_21 
REMARK    7  A    between atoms: C_21  and  C_22 
REMARK    8  A    between atoms: C_22  and  O_23 
REMARK    9  A    between atoms: O_23  and  P_24 
REMARK   10  A    between atoms: P_24  and  O_26 
ROOT
HETATM    1  N           1     -22.226  -5.236  -8.743  0.00  0.00    -0.343 N 
HETATM    2  C           1     -23.162  -4.288  -9.058  0.00  0.00     0.249 C 
HETATM    3  O           1     -23.109  -3.194  -8.548  0.00  0.00    -0.271 OA
HETATM    4  H           1     -22.271  -6.152  -9.170  0.00  0.00     0.163 HD
ENDROOT
BRANCH   1   5
HETATM    5  C           1     -21.170  -4.927  -7.800  0.00  0.00     0.210 C 
BRANCH   5   6
HETATM    6  C           1     -19.908  -4.583  -8.553  0.00  0.00     0.198 C 
HETATM    7  O           1     -19.872  -4.697  -9.797  0.00  0.00    -0.646 OA
HETATM    8  O           1     -18.900  -4.184  -7.932  0.00  0.00    -0.646 OA
ENDBRANCH   5   6
BRANCH   5   9
HETATM    9  C           1     -20.917  -6.137  -6.910  0.00  0.00     0.217 C 
BRANCH   9  10
HETATM   10  O           1     -20.882  -5.732  -5.568  0.00  0.00    -0.287 OA
BRANCH  10  11
HETATM   11  P           1     -21.942  -6.451  -4.583  0.00  0.00     0.406 P 
HETATM   12  O           1     -21.746  -5.957  -3.202  0.00  0.00    -0.624 OA
HETATM   13  O           1     -23.318  -6.141  -5.028  0.00  0.00    -0.624 OA
BRANCH  11  14
HETATM   14  O           1     -21.712  -8.049  -4.623  0.00  0.00    -0.300 OA
HETATM   15  H           1     -20.849  -8.162  -4.986  0.00  0.00     0.223 HD
ENDBRANCH  11  14
ENDBRANCH  10  11
ENDBRANCH   9  10
ENDBRANCH   5   9
ENDBRANCH   1   5
BRANCH   2  16
HETATM   16  C           1     -24.261  -4.610 -10.040  0.00  0.00     0.283 C 
BRANCH  16  17
HETATM   17  C           1     -23.696  -4.615 -11.454  0.00  0.00     0.145 C 
BRANCH  17  18
HETATM   18  C           1     -24.037  -3.313 -12.137  0.00  0.00     0.217 C 
HETATM   19  N           1     -23.143  -2.277 -12.119  0.00  0.00    -0.370 N 
HETATM   20  H           1     -23.371  -1.403 -12.577  0.00  0.00     0.159 HD
HETATM   21  H           1     -22.254  -2.383 -11.648  0.00  0.00     0.159 HD
HETATM   22  O           1     -25.099  -3.186 -12.700  0.00  0.00    -0.274 OA
ENDBRANCH  17  18
ENDBRANCH  16  17
BRANCH  16  23
HETATM   23  N           1     -25.342  -3.574  -9.938  0.00  0.00    -0.066 N 
HETATM   24  H           1     -25.589  -3.234 -10.895  0.00  0.00     0.275 HD
HETATM   25  H           1     -26.186  -3.995  -9.489  0.00  0.00     0.275 HD
HETATM   26  H           1     -25.003  -2.773  -9.361  0.00  0.00     0.275 HD
ENDBRANCH  16  23
ENDBRANCH   2  16
TORSDOF 10
ENDMDL
MODEL 7
REMARK VINA RESULT:      -5.8      3.329      5.265
REMARK  10 active torsions:
REMARK  status: ('A' for Active; 'I' for Inactive)
REMARK    1  A    between atoms: N_7  and  C_21 
REMARK       I    between atoms: N_7  and  C_8 
REMARK    2  A    between atoms: C_8  and  C_9 
REMARK    3  A    between atoms: C_9  and  C_10 
REMARK    4  A    between atoms: C_9  and  N_14 
REMARK    5  A    between atoms: C_10  and  C_11 
REMARK       I    between atoms: C_11  and  N_12 
REMARK    6  A    between atoms: C_19  and  C_21 
REMARK    7  A    between atoms: C_21  and  C_22 
REMARK    8  A    between atoms: C_22  and  O_23 
REMARK    9  A    between atoms: O_23  and  P_24 
REMARK   10  A    between atoms: P_24  and  O_26 
ROOT
HETATM    1  N           1     -36.262  -0.259 -12.219  0.00  0.00    -0.343 N 
HETATM    2  C           1     -36.921  -0.199 -13.417  0.00  0.00     0.249 C 
HETATM    3  O           1     -38.059  -0.598 -13.502  0.00  0.00    -0.271 OA
HETATM    4  H           1     -35.310   0.075 -12.149  0.00  0.00     0.163 HD
ENDROOT
BRANCH   1   5
HETATM    5  C           1     -36.929  -0.799 -11.051  0.00  0.00     0.210 C 
BRANCH   5   6
HETATM    6  C           1     -36.973   0.251  -9.967  0.00  0.00     0.198 C 
HETATM    7  O           1     -36.087   0.277  -9.086  0.00  0.00    -0.646 OA
HETATM    8  O           1     -37.895   1.093  -9.952  0.00  0.00    -0.646 OA
ENDBRANCH   5   6
BRANCH   5   9
HETATM    9  C           1     -36.163  -2.016 -10.548  0.00  0.00     0.217 C 
BRANCH   9  10
HETATM   10  O           1     -35.368  -2.529 -11.583  0.00  0.00    -0.287 OA
BRANCH  10  11
HETATM   11  P           1     -33.891  -3.028 -11.160  0.00  0.00     0.406 P 
HETATM   12  O           1     -34.004  -4.127 -10.176  0.00  0.00    -0.624 OA
HETATM   13  O           1     -33.171  -3.511 -12.359  0.00  0.00    -0.624 OA
BRANCH  11  14
HETATM   14  O           1     -33.076  -1.797 -10.504  0.00  0.00    -0.300 OA
HETATM   15  H           1     -32.819  -2.103  -9.650  0.00  0.00     0.223 HD
ENDBRANCH  11  14
ENDBRANCH  10  11
ENDBRANCH   9  10
ENDBRANCH   5   9
ENDBRANCH   1   5
BRANCH   2  16
HETATM   16  C           1     -36.227   0.362 -14.633  0.00  0.00     0.283 C 
BRANCH  16  17
HETATM   17  C           1     -36.396  -0.597 -15.805  0.00  0.00     0.145 C 
BRANCH  17  18
HETATM   18  C           1     -35.268  -1.600 -15.801  0.00  0.00     0.217 C 
HETATM   19  N           1     -34.538  -1.812 -16.939  0.00  0.00    -0.370 N 
HETATM   20  H           1     -33.781  -2.484 -16.937  0.00  0.00     0.159 HD
HETATM   21  H           1     -34.755  -1.298 -17.783  0.00  0.00     0.159 HD
HETATM   22  O           1     -35.009  -2.214 -14.793  0.00  0.00    -0.274 OA
ENDBRANCH  17  18
ENDBRANCH  16  17
BRANCH  16  23
HETATM   23  N           1     -34.766   0.538 -14.339  0.00  0.00    -0.066 N 
HETATM   24  H           1     -34.616   1.450 -13.851  0.00  0.00     0.275 HD
HETATM   25  H           1     -34.440  -0.243 -13.726  0.00  0.00     0.275 HD
HETATM   26  H           1     -34.227   0.528 -15.233  0.00  0.00     0.275 HD
ENDBRANCH  16  23
ENDBRANCH   2  16
TORSDOF 10
ENDMDL
MODEL 8
REMARK VINA RESULT:      -5.6     10.750     12.085
REMARK  10 active torsions:
REMARK  status: ('A' for Active; 'I' for Inactive)
REMARK    1  A    between atoms: N_7  and  C_21 
REMARK       I    between atoms: N_7  and  C_8 
REMARK    2  A    between atoms: C_8  and  C_9 
REMARK    3  A    between atoms: C_9  and  C_10 
REMARK    4  A    between atoms: C_9  and  N_14 
REMARK    5  A    between atoms: C_10  and  C_11 
REMARK       I    between atoms: C_11  and  N_12 
REMARK    6  A    between atoms: C_19  and  C_21 
REMARK    7  A    between atoms: C_21  and  C_22 
REMARK    8  A    between atoms: C_22  and  O_23 
REMARK    9  A    between atoms: O_23  and  P_24 
REMARK   10  A    between atoms: P_24  and  O_26 
ROOT
HETATM    1  N           1     -23.224  -4.682 -12.155  0.00  0.00    -0.343 N 
HETATM    2  C           1     -22.232  -3.973 -11.534  0.00  0.00     0.249 C 
HETATM    3  O           1     -21.814  -2.954 -12.032  0.00  0.00    -0.271 OA
HETATM    4  H           1     -23.574  -5.534 -11.737  0.00  0.00     0.163 HD
ENDROOT
BRANCH   1   5
HETATM    5  C           1     -23.774  -4.211 -13.410  0.00  0.00     0.210 C 
BRANCH   5   6
HETATM    6  C           1     -24.596  -2.969 -13.165  0.00  0.00     0.198 C 
HETATM    7  O           1     -25.371  -2.915 -12.186  0.00  0.00    -0.646 OA
HETATM    8  O           1     -24.501  -1.995 -13.941  0.00  0.00    -0.646 OA
ENDBRANCH   5   6
BRANCH   5   9
HETATM    9  C           1     -24.659  -5.295 -14.013  0.00  0.00     0.217 C 
BRANCH   9  10
HETATM   10  O           1     -24.658  -5.177 -15.410  0.00  0.00    -0.287 OA
BRANCH  10  11
HETATM   11  P           1     -25.388  -6.368 -16.222  0.00  0.00     0.406 P 
HETATM   12  O           1     -25.869  -7.392 -15.268  0.00  0.00    -0.624 OA
HETATM   13  O           1     -26.535  -5.819 -16.977  0.00  0.00    -0.624 OA
BRANCH  11  14
HETATM   14  O           1     -24.338  -7.038 -17.250  0.00  0.00    -0.300 OA
HETATM   15  H           1     -23.489  -6.779 -16.934  0.00  0.00     0.223 HD
ENDBRANCH  11  14
ENDBRANCH  10  11
ENDBRANCH   9  10
ENDBRANCH   5   9
ENDBRANCH   1   5
BRANCH   2  16
HETATM   16  C           1     -21.659  -4.463 -10.227  0.00  0.00     0.283 C 
BRANCH  16  17
HETATM   17  C           1     -22.404  -3.812  -9.068  0.00  0.00     0.145 C 
BRANCH  17  18
HETATM   18  C           1     -23.887  -4.032  -9.236  0.00  0.00     0.217 C 
HETATM   19  N           1     -24.755  -2.982  -9.094  0.00  0.00    -0.370 N 
HETATM   20  H           1     -25.750  -3.130  -9.207  0.00  0.00     0.159 HD
HETATM   21  H           1     -24.402  -2.060  -8.875  0.00  0.00     0.159 HD
HETATM   22  O           1     -24.309  -5.134  -9.497  0.00  0.00    -0.274 OA
ENDBRANCH  17  18
ENDBRANCH  16  17
BRANCH  16  23
HETATM   23  N           1     -20.205  -4.101 -10.151  0.00  0.00    -0.066 N 
HETATM   24  H           1     -20.008  -3.310 -10.806  0.00  0.00     0.275 HD
HETATM   25  H           1     -19.970  -3.812  -9.175  0.00  0.00     0.275 HD
HETATM   26  H           1     -19.626  -4.927 -10.419  0.00  0.00     0.275 HD
ENDBRANCH  16  23
ENDBRANCH   2  16
TORSDOF 10
ENDMDL
MODEL 9
REMARK VINA RESULT:      -5.6     13.360     15.412
REMARK  10 active torsions:
REMARK  status: ('A' for Active; 'I' for Inactive)
REMARK    1  A    between atoms: N_7  and  C_21 
REMARK       I    between atoms: N_7  and  C_8 
REMARK    2  A    between atoms: C_8  and  C_9 
REMARK    3  A    between atoms: C_9  and  C_10 
REMARK    4  A    between atoms: C_9  and  N_14 
REMARK    5  A    between atoms: C_10  and  C_11 
REMARK       I    between atoms: C_11  and  N_12 
REMARK    6  A    between atoms: C_19  and  C_21 
REMARK    7  A    between atoms: C_21  and  C_22 
REMARK    8  A    between atoms: C_22  and  O_23 
REMARK    9  A    between atoms: O_23  and  P_24 
REMARK   10  A    between atoms: P_24  and  O_26 
ROOT
HETATM    1  N           1     -21.289  -5.044  -6.485  0.00  0.00    -0.343 N 
HETATM    2  C           1     -21.182  -6.301  -5.953  0.00  0.00     0.249 C 
HETATM    3  O           1     -21.268  -7.270  -6.671  0.00  0.00    -0.271 OA
HETATM    4  H           1     -21.217  -4.233  -5.883  0.00  0.00     0.163 HD
ENDROOT
BRANCH   1   5
HETATM    5  C           1     -21.504  -4.874  -7.908  0.00  0.00     0.210 C 
BRANCH   5   6
HETATM    6  C           1     -20.186  -4.585  -8.584  0.00  0.00     0.198 C 
HETATM    7  O           1     -19.187  -4.277  -7.900  0.00  0.00    -0.646 OA
HETATM    8  O           1     -20.095  -4.653  -9.828  0.00  0.00    -0.646 OA
ENDBRANCH   5   6
BRANCH   5   9
HETATM    9  C           1     -22.461  -3.712  -8.140  0.00  0.00     0.217 C 
BRANCH   9  10
HETATM   10  O           1     -23.645  -4.189  -8.720  0.00  0.00    -0.287 OA
BRANCH  10  11
HETATM   11  P           1     -23.789  -3.973 -10.315  0.00  0.00     0.406 P 
HETATM   12  O           1     -23.838  -5.290 -10.988  0.00  0.00    -0.624 OA
HETATM   13  O           1     -25.034  -3.226 -10.600  0.00  0.00    -0.624 OA
BRANCH  11  14
HETATM   14  O           1     -22.521  -3.134 -10.860  0.00  0.00    -0.300 OA
HETATM   15  H           1     -21.771  -3.667 -10.657  0.00  0.00     0.223 HD
ENDBRANCH  11  14
ENDBRANCH  10  11
ENDBRANCH   9  10
ENDBRANCH   5   9
ENDBRANCH   1   5
BRANCH   2  16
HETATM   16  C           1     -20.959  -6.477  -4.472  0.00  0.00     0.283 C 
BRANCH  16  17
HETATM   17  C           1     -20.442  -7.884  -4.198  0.00  0.00     0.145 C 
BRANCH  17  18
HETATM   18  C           1     -20.891  -8.328  -2.828  0.00  0.00     0.217 C 
HETATM   19  N           1     -20.201  -7.924  -1.717  0.00  0.00    -0.370 N 
HETATM   20  H           1     -20.503  -8.221  -0.798  0.00  0.00     0.159 HD
HETATM   21  H           1     -19.389  -7.328  -1.815  0.00  0.00     0.159 HD
HETATM   22  O           1     -21.861  -9.040  -2.711  0.00  0.00    -0.274 OA
ENDBRANCH  17  18
ENDBRANCH  16  17
BRANCH  16  23
HETATM   23  N           1     -22.254  -6.272  -3.743  0.00  0.00    -0.066 N 
HETATM   24  H           1     -23.009  -6.823  -4.211  0.00  0.00     0.275 HD
HETATM   25  H           1     -22.150  -6.594  -2.754  0.00  0.00     0.275 HD
HETATM   26  H           1     -22.504  -5.259  -3.755  0.00  0.00     0.275 HD
ENDBRANCH  16  23
ENDBRANCH   2  16
TORSDOF 10
ENDMDL
