MODEL 1
REMARK VINA RESULT:      -6.6      0.000      0.000
REMARK  10 active torsions:
REMARK  status: ('A' for Active; 'I' for Inactive)
REMARK    1  A    between atoms: N_2  and  C_9 
REMARK    2  A    between atoms: O_5  and  P_6 
REMARK    3  A    between atoms: P_6  and  O_7 
REMARK    4  A    between atoms: O_7  and  C_8 
REMARK    5  A    between atoms: C_8  and  C_9 
REMARK    6  A    between atoms: C_9  and  C_10 
REMARK       I    between atoms: C_10  and  N_11 
REMARK    7  A    between atoms: N_11  and  C_15 
REMARK    8  A    between atoms: C_14  and  C_15 
REMARK    9  A    between atoms: C_15  and  C_17 
REMARK   10  A    between atoms: C_17  and  C_18 
ROOT
HETATM    1  C           1     -21.452  -3.307 -11.252  0.00  0.00     0.298 C 
ENDROOT
BRANCH   1   2
HETATM    2  N           1     -20.050  -3.622 -11.680  0.00  0.00    -0.064 N 
HETATM    3  H           1     -20.004  -3.664 -12.723  0.00  0.00     0.275 HD
HETATM    4  H           1     -19.404  -2.877 -11.333  0.00  0.00     0.275 HD
HETATM    5  H           1     -19.763  -4.545 -11.281  0.00  0.00     0.275 HD
ENDBRANCH   1   2
BRANCH   1   6
HETATM    6  C           1     -22.412  -3.605 -12.397  0.00  0.00     0.224 C 
BRANCH   6   7
HETATM    7  O           1     -22.787  -2.405 -13.017  0.00  0.00    -0.287 OA
BRANCH   7   8
HETATM    8  P           1     -23.406  -2.540 -14.503  0.00  0.00     0.406 P 
HETATM    9  O           1     -22.323  -2.392 -15.503  0.00  0.00    -0.624 OA
HETATM   10  O           1     -24.420  -1.483 -14.712  0.00  0.00    -0.624 OA
BRANCH   8  11
HETATM   11  O           1     -24.097  -3.990 -14.671  0.00  0.00    -0.300 OA
HETATM   12  H           1     -23.655  -4.544 -14.051  0.00  0.00     0.223 HD
ENDBRANCH   8  11
ENDBRANCH   7   8
ENDBRANCH   6   7
ENDBRANCH   1   6
BRANCH   1  13
HETATM   13  C           1     -21.816  -4.154 -10.058  0.00  0.00     0.251 C 
HETATM   14  O           1     -22.931  -4.607  -9.955  0.00  0.00    -0.271 OA
HETATM   15  N           1     -20.882  -4.409  -9.089  0.00  0.00    -0.344 N 
HETATM   16  H           1     -19.947  -4.030  -9.175  0.00  0.00     0.163 HD
BRANCH  15  17
HETATM   17  C           1     -21.231  -5.224  -7.942  0.00  0.00     0.189 C 
BRANCH  17  18
HETATM   18  C           1     -22.037  -4.400  -6.968  0.00  0.00     0.197 C 
HETATM   19  O           1     -23.085  -4.867  -6.471  0.00  0.00    -0.646 OA
HETATM   20  O           1     -21.657  -3.250  -6.659  0.00  0.00    -0.646 OA
ENDBRANCH  17  18
BRANCH  17  21
HETATM   21  C           1     -19.959  -5.713  -7.262  0.00  0.00     0.014 C 
HETATM   22  C           1     -18.871  -4.656  -7.403  0.00  0.00     0.012 C 
BRANCH  21  23
HETATM   23  C           1     -20.237  -5.961  -5.785  0.00  0.00     0.002 C 
HETATM   24  C           1     -20.539  -7.438  -5.565  0.00  0.00     0.005 C 
ENDBRANCH  21  23
ENDBRANCH  17  21
ENDBRANCH  15  17
ENDBRANCH   1  13
TORSDOF 10
ENDMDL
MODEL 2
REMARK VINA RESULT:      -6.5      2.194      3.061
REMARK  10 active torsions:
REMARK  status: ('A' for Active; 'I' for Inactive)
REMARK    1  A    between atoms: N_2  and  C_9 
REMARK    2  A    between atoms: O_5  and  P_6 
REMARK    3  A    between atoms: P_6  and  O_7 
REMARK    4  A    between atoms: O_7  and  C_8 
REMARK    5  A    between atoms: C_8  and  C_9 
REMARK    6  A    between atoms: C_9  and  C_10 
REMARK       I    between atoms: C_10  and  N_11 
REMARK    7  A    between atoms: N_11  and  C_15 
REMARK    8  A    between atoms: C_14  and  C_15 
REMARK    9  A    between atoms: C_15  and  C_17 
REMARK   10  A    between atoms: C_17  and  C_18 
ROOT
HETATM    1  C           1     -23.366  -4.337  -9.152  0.00  0.00     0.298 C 
ENDROOT
BRANCH   1   2
HETATM    2  N           1     -24.515  -3.389  -8.975  0.00  0.00    -0.064 N 
HETATM    3  H           1     -24.450  -2.931  -8.038  0.00  0.00     0.275 HD
HETATM    4  H           1     -24.482  -2.658  -9.722  0.00  0.00     0.275 HD
HETATM    5  H           1     -25.415  -3.916  -9.042  0.00  0.00     0.275 HD
ENDBRANCH   1   2
BRANCH   1   6
HETATM    6  C           1     -22.595  -3.969 -10.413  0.00  0.00     0.224 C 
BRANCH   6   7
HETATM    7  O           1     -23.222  -4.541 -11.529  0.00  0.00    -0.287 OA
BRANCH   7   8
HETATM    8  P           1     -23.894  -3.505 -12.571  0.00  0.00     0.406 P 
HETATM    9  O           1     -22.966  -2.377 -12.812  0.00  0.00    -0.624 OA
HETATM   10  O           1     -25.161  -2.992 -12.007  0.00  0.00    -0.624 OA
BRANCH   8  11
HETATM   11  O           1     -24.193  -4.262 -13.966  0.00  0.00    -0.300 OA
HETATM   12  H           1     -24.388  -3.575 -14.580  0.00  0.00     0.223 HD
ENDBRANCH   8  11
ENDBRANCH   7   8
ENDBRANCH   6   7
ENDBRANCH   1   6
BRANCH   1  13
HETATM   13  C           1     -22.450  -4.246  -7.957  0.00  0.00     0.251 C 
HETATM   14  O           1     -21.823  -3.235  -7.753  0.00  0.00    -0.271 OA
HETATM   15  N           1     -22.330  -5.310  -7.104  0.00  0.00    -0.344 N 
HETATM   16  H           1     -22.857  -6.158  -7.275  0.00  0.00     0.163 HD
BRANCH  15  17
HETATM   17  C           1     -21.450  -5.223  -5.955  0.00  0.00     0.189 C 
BRANCH  17  18
HETATM   18  C           1     -20.029  -5.482  -6.391  0.00  0.00     0.197 C 
HETATM   19  O           1     -19.114  -4.709  -6.031  0.00  0.00    -0.646 OA
HETATM   20  O           1     -19.767  -6.468  -7.113  0.00  0.00    -0.646 OA
ENDBRANCH  17  18
BRANCH  17  21
HETATM   21  C           1     -21.861  -6.263  -4.921  0.00  0.00     0.014 C 
HETATM   22  C           1     -21.531  -7.655  -5.444  0.00  0.00     0.012 C 
BRANCH  21  23
HETATM   23  C           1     -21.104  -6.015  -3.624  0.00  0.00     0.002 C 
HETATM   24  C           1     -22.012  -6.315  -2.439  0.00  0.00     0.005 C 
ENDBRANCH  21  23
ENDBRANCH  17  21
ENDBRANCH  15  17
ENDBRANCH   1  13
TORSDOF 10
ENDMDL
MODEL 3
REMARK VINA RESULT:      -6.5      2.081      2.693
REMARK  10 active torsions:
REMARK  status: ('A' for Active; 'I' for Inactive)
REMARK    1  A    between atoms: N_2  and  C_9 
REMARK    2  A    between atoms: O_5  and  P_6 
REMARK    3  A    between atoms: P_6  and  O_7 
REMARK    4  A    between atoms: O_7  and  C_8 
REMARK    5  A    between atoms: C_8  and  C_9 
REMARK    6  A    between atoms: C_9  and  C_10 
REMARK       I    between atoms: C_10  and  N_11 
REMARK    7  A    between atoms: N_11  and  C_15 
REMARK    8  A    between atoms: C_14  and  C_15 
REMARK    9  A    between atoms: C_15  and  C_17 
REMARK   10  A    between atoms: C_17  and  C_18 
ROOT
HETATM    1  C           1     -24.167  -4.661  -9.852  0.00  0.00     0.298 C 
ENDROOT
BRANCH   1   2
HETATM    2  N           1     -25.363  -3.772  -9.687  0.00  0.00    -0.064 N 
HETATM    3  H           1     -25.052  -2.812  -9.416  0.00  0.00     0.275 HD
HETATM    4  H           1     -25.890  -3.725 -10.589  0.00  0.00     0.275 HD
HETATM    5  H           1     -25.984  -4.159  -8.940  0.00  0.00     0.275 HD
ENDBRANCH   1   2
BRANCH   1   6
HETATM    6  C           1     -23.723  -4.648 -11.309  0.00  0.00     0.224 C 
BRANCH   6   7
HETATM    7  O           1     -23.761  -3.334 -11.799  0.00  0.00    -0.287 OA
BRANCH   7   8
HETATM    8  P           1     -23.752  -3.177 -13.406  0.00  0.00     0.406 P 
HETATM    9  O           1     -24.404  -1.901 -13.780  0.00  0.00    -0.624 OA
HETATM   10  O           1     -24.490  -4.306 -14.015  0.00  0.00    -0.624 OA
BRANCH   8  11
HETATM   11  O           1     -22.228  -3.180 -13.941  0.00  0.00    -0.300 OA
HETATM   12  H           1     -21.820  -3.910 -13.509  0.00  0.00     0.223 HD
ENDBRANCH   8  11
ENDBRANCH   7   8
ENDBRANCH   6   7
ENDBRANCH   1   6
BRANCH   1  13
HETATM   13  C           1     -23.043  -4.159  -8.980  0.00  0.00     0.251 C 
HETATM   14  O           1     -22.926  -2.976  -8.767  0.00  0.00    -0.271 OA
HETATM   15  N           1     -22.156  -5.044  -8.429  0.00  0.00    -0.344 N 
HETATM   16  H           1     -22.255  -6.036  -8.606  0.00  0.00     0.163 HD
BRANCH  15  17
HETATM   17  C           1     -21.077  -4.562  -7.589  0.00  0.00     0.189 C 
BRANCH  17  18
HETATM   18  C           1     -19.802  -4.505  -8.395  0.00  0.00     0.197 C 
HETATM   19  O           1     -19.822  -4.771  -9.617  0.00  0.00    -0.646 OA
HETATM   20  O           1     -18.726  -4.192  -7.841  0.00  0.00    -0.646 OA
ENDBRANCH  17  18
BRANCH  17  21
HETATM   21  C           1     -20.890  -5.508  -6.410  0.00  0.00     0.014 C 
HETATM   22  C           1     -20.227  -4.760  -5.261  0.00  0.00     0.012 C 
BRANCH  21  23
HETATM   23  C           1     -22.247  -6.031  -5.960  0.00  0.00     0.002 C 
HETATM   24  C           1     -22.135  -6.587  -4.547  0.00  0.00     0.005 C 
ENDBRANCH  21  23
ENDBRANCH  17  21
ENDBRANCH  15  17
ENDBRANCH   1  13
TORSDOF 10
ENDMDL
MODEL 4
REMARK VINA RESULT:      -6.2      3.148      4.704
REMARK  10 active torsions:
REMARK  status: ('A' for Active; 'I' for Inactive)
REMARK    1  A    between atoms: N_2  and  C_9 
REMARK    2  A    between atoms: O_5  and  P_6 
REMARK    3  A    between atoms: P_6  and  O_7 
REMARK    4  A    between atoms: O_7  and  C_8 
REMARK    5  A    between atoms: C_8  and  C_9 
REMARK    6  A    between atoms: C_9  and  C_10 
REMARK       I    between atoms: C_10  and  N_11 
REMARK    7  A    between atoms: N_11  and  C_15 
REMARK    8  A    between atoms: C_14  and  C_15 
REMARK    9  A    between atoms: C_15  and  C_17 
REMARK   10  A    between atoms: C_17  and  C_18 
ROOT
HETATM    1  C           1     -22.164  -5.059  -7.567  0.00  0.00     0.298 C 
ENDROOT
BRANCH   1   2
HETATM    2  N           1     -23.307  -4.461  -6.802  0.00  0.00    -0.064 N 
HETATM    3  H           1     -23.673  -5.160  -6.117  0.00  0.00     0.275 HD
HETATM    4  H           1     -22.977  -3.611  -6.291  0.00  0.00     0.275 HD
HETATM    5  H           1     -24.069  -4.195  -7.467  0.00  0.00     0.275 HD
ENDBRANCH   1   2
BRANCH   1   6
HETATM    6  C           1     -21.456  -3.966  -8.358  0.00  0.00     0.224 C 
BRANCH   6   7
HETATM    7  O           1     -22.115  -3.773  -9.580  0.00  0.00    -0.287 OA
BRANCH   7   8
HETATM    8  P           1     -21.213  -3.958 -10.908  0.00  0.00     0.406 P 
HETATM    9  O           1     -20.049  -4.818 -10.596  0.00  0.00    -0.624 OA
HETATM   10  O           1     -20.740  -2.635 -11.370  0.00  0.00    -0.624 OA
BRANCH   8  11
HETATM   11  O           1     -22.097  -4.650 -12.069  0.00  0.00    -0.300 OA
HETATM   12  H           1     -22.954  -4.754 -11.693  0.00  0.00     0.223 HD
ENDBRANCH   8  11
ENDBRANCH   7   8
ENDBRANCH   6   7
ENDBRANCH   1   6
BRANCH   1  13
HETATM   13  C           1     -21.191  -5.692  -6.604  0.00  0.00     0.251 C 
HETATM   14  O           1     -20.047  -5.307  -6.559  0.00  0.00    -0.271 OA
HETATM   15  N           1     -21.604  -6.704  -5.779  0.00  0.00    -0.344 N 
HETATM   16  H           1     -22.563  -7.026  -5.815  0.00  0.00     0.163 HD
BRANCH  15  17
HETATM   17  C           1     -20.670  -7.313  -4.852  0.00  0.00     0.189 C 
BRANCH  17  18
HETATM   18  C           1     -20.181  -8.622  -5.421  0.00  0.00     0.197 C 
HETATM   19  O           1     -20.994  -9.539  -5.670  0.00  0.00    -0.646 OA
HETATM   20  O           1     -18.962  -8.790  -5.643  0.00  0.00    -0.646 OA
ENDBRANCH  17  18
BRANCH  17  21
HETATM   21  C           1     -21.367  -7.566  -3.522  0.00  0.00     0.014 C 
HETATM   22  C           1     -20.383  -8.200  -2.548  0.00  0.00     0.012 C 
BRANCH  21  23
HETATM   23  C           1     -21.867  -6.246  -2.952  0.00  0.00     0.002 C 
HETATM   24  C           1     -22.258  -6.436  -1.493  0.00  0.00     0.005 C 
ENDBRANCH  21  23
ENDBRANCH  17  21
ENDBRANCH  15  17
ENDBRANCH   1  13
TORSDOF 10
ENDMDL
MODEL 5
REMARK VINA RESULT:      -5.8      4.780      7.183
REMARK  10 active torsions:
REMARK  status: ('A' for Active; 'I' for Inactive)
REMARK    1  A    between atoms: N_2  and  C_9 
REMARK    2  A    between atoms: O_5  and  P_6 
REMARK    3  A    between atoms: P_6  and  O_7 
REMARK    4  A    between atoms: O_7  and  C_8 
REMARK    5  A    between atoms: C_8  and  C_9 
REMARK    6  A    between atoms: C_9  and  C_10 
REMARK       I    between atoms: C_10  and  N_11 
REMARK    7  A    between atoms: N_11  and  C_15 
REMARK    8  A    between atoms: C_14  and  C_15 
REMARK    9  A    between atoms: C_15  and  C_17 
REMARK   10  A    between atoms: C_17  and  C_18 
ROOT
HETATM    1  C           1     -21.649  -7.073  -5.569  0.00  0.00     0.298 C 
ENDROOT
BRANCH   1   2
HETATM    2  N           1     -22.745  -6.194  -5.045  0.00  0.00    -0.064 N 
HETATM    3  H           1     -22.626  -5.226  -5.421  0.00  0.00     0.275 HD
HETATM    4  H           1     -23.671  -6.573  -5.346  0.00  0.00     0.275 HD
HETATM    5  H           1     -22.702  -6.168  -4.000  0.00  0.00     0.275 HD
ENDBRANCH   1   2
BRANCH   1   6
HETATM    6  C           1     -20.681  -6.239  -6.398  0.00  0.00     0.224 C 
BRANCH   6   7
HETATM    7  O           1     -21.221  -6.029  -7.675  0.00  0.00    -0.287 OA
BRANCH   7   8
HETATM    8  P           1     -21.655  -4.511  -8.019  0.00  0.00     0.406 P 
HETATM    9  O           1     -21.620  -4.309  -9.485  0.00  0.00    -0.624 OA
HETATM   10  O           1     -20.716  -3.571  -7.368  0.00  0.00    -0.624 OA
BRANCH   8  11
HETATM   11  O           1     -23.151  -4.241  -7.474  0.00  0.00    -0.300 OA
HETATM   12  H           1     -23.387  -5.026  -7.010  0.00  0.00     0.223 HD
ENDBRANCH   8  11
ENDBRANCH   7   8
ENDBRANCH   6   7
ENDBRANCH   1   6
BRANCH   1  13
HETATM   13  C           1     -20.910  -7.699  -4.412  0.00  0.00     0.251 C 
HETATM   14  O           1     -19.750  -8.011  -4.534  0.00  0.00    -0.271 OA
HETATM   15  N           1     -21.555  -7.914  -3.224  0.00  0.00    -0.344 N 
HETATM   16  H           1     -22.527  -7.652  -3.121  0.00  0.00     0.163 HD
BRANCH  15  17
HETATM   17  C           1     -20.845  -8.515  -2.111  0.00  0.00     0.189 C 
BRANCH  17  18
HETATM   18  C           1     -21.149  -9.992  -2.061  0.00  0.00     0.197 C 
HETATM   19  O           1     -22.231 -10.423  -2.516  0.00  0.00    -0.646 OA
HETATM   20  O           1     -20.320 -10.784  -1.564  0.00  0.00    -0.646 OA
ENDBRANCH  17  18
BRANCH  17  21
HETATM   21  C           1     -21.292  -7.860  -0.811  0.00  0.00     0.014 C 
HETATM   22  C           1     -22.205  -6.682  -1.125  0.00  0.00     0.012 C 
BRANCH  21  23
HETATM   23  C           1     -22.048  -8.877   0.034  0.00  0.00     0.002 C 
HETATM   24  C           1     -23.254  -8.207   0.680  0.00  0.00     0.005 C 
ENDBRANCH  21  23
ENDBRANCH  17  21
ENDBRANCH  15  17
ENDBRANCH   1  13
TORSDOF 10
ENDMDL
MODEL 6
REMARK VINA RESULT:      -5.8      7.918      9.827
REMARK  10 active torsions:
REMARK  status: ('A' for Active; 'I' for Inactive)
REMARK    1  A    between atoms: N_2  and  C_9 
REMARK    2  A    between atoms: O_5  and  P_6 
REMARK    3  A    between atoms: P_6  and  O_7 
REMARK    4  A    between atoms: O_7  and  C_8 
REMARK    5  A    between atoms: C_8  and  C_9 
REMARK    6  A    between atoms: C_9  and  C_10 
REMARK       I    between atoms: C_10  and  N_11 
REMARK    7  A    between atoms: N_11  and  C_15 
REMARK    8  A    between atoms: C_14  and  C_15 
REMARK    9  A    between atoms: C_15  and  C_17 
REMARK   10  A    between atoms: C_17  and  C_18 
ROOT
HETATM    1  C           1     -21.659  -7.628  -4.154  0.00  0.00     0.298 C 
ENDROOT
BRANCH   1   2
HETATM    2  N           1     -22.314  -6.291  -4.335  0.00  0.00    -0.064 N 
HETATM    3  H           1     -22.862  -6.287  -5.225  0.00  0.00     0.275 HD
HETATM    4  H           1     -22.955  -6.105  -3.530  0.00  0.00     0.275 HD
HETATM    5  H           1     -21.581  -5.546  -4.376  0.00  0.00     0.275 HD
ENDBRANCH   1   2
BRANCH   1   6
HETATM    6  C           1     -20.380  -7.681  -4.980  0.00  0.00     0.224 C 
BRANCH   6   7
HETATM    7  O           1     -19.471  -8.563  -4.378  0.00  0.00    -0.287 OA
BRANCH   7   8
HETATM    8  P           1     -19.064  -9.862  -5.247  0.00  0.00     0.406 P 
HETATM    9  O           1     -18.069  -9.477  -6.273  0.00  0.00    -0.624 OA
HETATM   10  O           1     -20.270 -10.410  -5.907  0.00  0.00    -0.624 OA
BRANCH   8  11
HETATM   11  O           1     -18.427 -10.984  -4.275  0.00  0.00    -0.300 OA
HETATM   12  H           1     -18.671 -11.807  -4.660  0.00  0.00     0.223 HD
ENDBRANCH   8  11
ENDBRANCH   7   8
ENDBRANCH   6   7
ENDBRANCH   1   6
BRANCH   1  13
HETATM   13  C           1     -21.326  -7.832  -2.697  0.00  0.00     0.251 C 
HETATM   14  O           1     -20.915  -6.908  -2.036  0.00  0.00    -0.271 OA
HETATM   15  N           1     -21.490  -9.064  -2.124  0.00  0.00    -0.344 N 
HETATM   16  H           1     -21.836  -9.838  -2.677  0.00  0.00     0.163 HD
BRANCH  15  17
HETATM   17  C           1     -21.172  -9.261  -0.723  0.00  0.00     0.189 C 
BRANCH  17  18
HETATM   18  C           1     -20.232 -10.433  -0.582  0.00  0.00     0.197 C 
HETATM   19  O           1     -19.570 -10.825  -1.567  0.00  0.00    -0.646 OA
HETATM   20  O           1     -20.116 -11.012   0.519  0.00  0.00    -0.646 OA
ENDBRANCH  17  18
BRANCH  17  21
HETATM   21  C           1     -22.451  -9.540   0.054  0.00  0.00     0.014 C 
HETATM   22  C           1     -23.132  -8.221   0.399  0.00  0.00     0.012 C 
BRANCH  21  23
HETATM   23  C           1     -23.387 -10.387  -0.797  0.00  0.00     0.002 C 
HETATM   24  C           1     -23.793 -11.633  -0.022  0.00  0.00     0.005 C 
ENDBRANCH  21  23
ENDBRANCH  17  21
ENDBRANCH  15  17
ENDBRANCH   1  13
TORSDOF 10
ENDMDL
MODEL 7
REMARK VINA RESULT:      -5.8      5.852      8.624
REMARK  10 active torsions:
REMARK  status: ('A' for Active; 'I' for Inactive)
REMARK    1  A    between atoms: N_2  and  C_9 
REMARK    2  A    between atoms: O_5  and  P_6 
REMARK    3  A    between atoms: P_6  and  O_7 
REMARK    4  A    between atoms: O_7  and  C_8 
REMARK    5  A    between atoms: C_8  and  C_9 
REMARK    6  A    between atoms: C_9  and  C_10 
REMARK       I    between atoms: C_10  and  N_11 
REMARK    7  A    between atoms: N_11  and  C_15 
REMARK    8  A    between atoms: C_14  and  C_15 
REMARK    9  A    between atoms: C_15  and  C_17 
REMARK   10  A    between atoms: C_17  and  C_18 
ROOT
HETATM    1  C           1     -21.710  -7.561  -4.189  0.00  0.00     0.298 C 
ENDROOT
BRANCH   1   2
HETATM    2  N           1     -22.574  -6.335  -4.211  0.00  0.00    -0.064 N 
HETATM    3  H           1     -23.490  -6.544  -3.753  0.00  0.00     0.275 HD
HETATM    4  H           1     -22.095  -5.562  -3.694  0.00  0.00     0.275 HD
HETATM    5  H           1     -22.739  -6.043  -5.201  0.00  0.00     0.275 HD
ENDBRANCH   1   2
BRANCH   1   6
HETATM    6  C           1     -20.470  -7.323  -5.042  0.00  0.00     0.224 C 
BRANCH   6   7
HETATM    7  O           1     -20.856  -7.064  -6.365  0.00  0.00    -0.287 OA
BRANCH   7   8
HETATM    8  P           1     -20.678  -5.539  -6.868  0.00  0.00     0.406 P 
HETATM    9  O           1     -20.114  -5.535  -8.237  0.00  0.00    -0.624 OA
HETATM   10  O           1     -19.762  -4.822  -5.954  0.00  0.00    -0.624 OA
BRANCH   8  11
HETATM   11  O           1     -22.116  -4.803  -6.876  0.00  0.00    -0.300 OA
HETATM   12  H           1     -22.645  -5.294  -6.272  0.00  0.00     0.223 HD
ENDBRANCH   8  11
ENDBRANCH   7   8
ENDBRANCH   6   7
ENDBRANCH   1   6
BRANCH   1  13
HETATM   13  C           1     -21.294  -7.858  -2.769  0.00  0.00     0.251 C 
HETATM   14  O           1     -20.708  -7.022  -2.124  0.00  0.00    -0.271 OA
HETATM   15  N           1     -21.582  -9.075  -2.212  0.00  0.00    -0.344 N 
HETATM   16  H           1     -22.074  -9.775  -2.752  0.00  0.00     0.163 HD
BRANCH  15  17
HETATM   17  C           1     -21.183  -9.361  -0.848  0.00  0.00     0.189 C 
BRANCH  17  18
HETATM   18  C           1     -20.313 -10.594  -0.827  0.00  0.00     0.197 C 
HETATM   19  O           1     -19.949 -11.084   0.263  0.00  0.00    -0.646 OA
HETATM   20  O           1     -19.957 -11.125  -1.901  0.00  0.00    -0.646 OA
ENDBRANCH  17  18
BRANCH  17  21
HETATM   21  C           1     -22.423  -9.600   0.004  0.00  0.00     0.014 C 
HETATM   22  C           1     -23.071  -8.264   0.340  0.00  0.00     0.012 C 
BRANCH  21  23
HETATM   23  C           1     -23.410 -10.463  -0.771  0.00  0.00     0.002 C 
HETATM   24  C           1     -23.778 -11.685   0.060  0.00  0.00     0.005 C 
ENDBRANCH  21  23
ENDBRANCH  17  21
ENDBRANCH  15  17
ENDBRANCH   1  13
TORSDOF 10
ENDMDL
MODEL 8
REMARK VINA RESULT:      -5.8      7.050      9.052
REMARK  10 active torsions:
REMARK  status: ('A' for Active; 'I' for Inactive)
REMARK    1  A    between atoms: N_2  and  C_9 
REMARK    2  A    between atoms: O_5  and  P_6 
REMARK    3  A    between atoms: P_6  and  O_7 
REMARK    4  A    between atoms: O_7  and  C_8 
REMARK    5  A    between atoms: C_8  and  C_9 
REMARK    6  A    between atoms: C_9  and  C_10 
REMARK       I    between atoms: C_10  and  N_11 
REMARK    7  A    between atoms: N_11  and  C_15 
REMARK    8  A    between atoms: C_14  and  C_15 
REMARK    9  A    between atoms: C_15  and  C_17 
REMARK   10  A    between atoms: C_17  and  C_18 
ROOT
HETATM    1  C           1     -20.379  -9.699  -4.288  0.00  0.00     0.298 C 
ENDROOT
BRANCH   1   2
HETATM    2  N           1     -20.884 -10.153  -5.625  0.00  0.00    -0.064 N 
HETATM    3  H           1     -20.512 -11.108  -5.833  0.00  0.00     0.275 HD
HETATM    4  H           1     -21.929 -10.181  -5.611  0.00  0.00     0.275 HD
HETATM    5  H           1     -20.562  -9.487  -6.363  0.00  0.00     0.275 HD
ENDBRANCH   1   2
BRANCH   1   6
HETATM    6  C           1     -19.759  -8.314  -4.424  0.00  0.00     0.224 C 
BRANCH   6   7
HETATM    7  O           1     -20.711  -7.341  -4.088  0.00  0.00    -0.287 OA
BRANCH   7   8
HETATM    8  P           1     -21.216  -6.397  -5.297  0.00  0.00     0.406 P 
HETATM    9  O           1     -22.654  -6.094  -5.119  0.00  0.00    -0.624 OA
HETATM   10  O           1     -21.014  -7.097  -6.585  0.00  0.00    -0.624 OA
BRANCH   8  11
HETATM   11  O           1     -20.372  -5.020  -5.296  0.00  0.00    -0.300 OA
HETATM   12  H           1     -20.684  -4.541  -6.043  0.00  0.00     0.223 HD
ENDBRANCH   8  11
ENDBRANCH   7   8
ENDBRANCH   6   7
ENDBRANCH   1   6
BRANCH   1  13
HETATM   13  C           1     -21.526  -9.643  -3.309  0.00  0.00     0.251 C 
HETATM   14  O           1     -22.622 -10.025  -3.642  0.00  0.00    -0.271 OA
HETATM   15  N           1     -21.324  -9.160  -2.045  0.00  0.00    -0.344 N 
HETATM   16  H           1     -20.405  -8.840  -1.765  0.00  0.00     0.163 HD
BRANCH  15  17
HETATM   17  C           1     -22.426  -9.106  -1.104  0.00  0.00     0.189 C 
BRANCH  17  18
HETATM   18  C           1     -22.395  -7.788  -0.369  0.00  0.00     0.197 C 
HETATM   19  O           1     -22.091  -7.755   0.843  0.00  0.00    -0.646 OA
HETATM   20  O           1     -22.674  -6.730  -0.974  0.00  0.00    -0.646 OA
ENDBRANCH  17  18
BRANCH  17  21
HETATM   21  C           1     -22.295 -10.248  -0.104  0.00  0.00     0.014 C 
HETATM   22  C           1     -23.490 -11.181  -0.241  0.00  0.00     0.012 C 
BRANCH  21  23
HETATM   23  C           1     -21.012 -11.020  -0.382  0.00  0.00     0.002 C 
HETATM   24  C           1     -20.165 -11.072   0.882  0.00  0.00     0.005 C 
ENDBRANCH  21  23
ENDBRANCH  17  21
ENDBRANCH  15  17
ENDBRANCH   1  13
TORSDOF 10
ENDMDL
MODEL 9
REMARK VINA RESULT:      -5.7     16.355     18.627
REMARK  10 active torsions:
REMARK  status: ('A' for Active; 'I' for Inactive)
REMARK    1  A    between atoms: N_2  and  C_9 
REMARK    2  A    between atoms: O_5  and  P_6 
REMARK    3  A    between atoms: P_6  and  O_7 
REMARK    4  A    between atoms: O_7  and  C_8 
REMARK    5  A    between atoms: C_8  and  C_9 
REMARK    6  A    between atoms: C_9  and  C_10 
REMARK       I    between atoms: C_10  and  N_11 
REMARK    7  A    between atoms: N_11  and  C_15 
REMARK    8  A    between atoms: C_14  and  C_15 
REMARK    9  A    between atoms: C_15  and  C_17 
REMARK   10  A    between atoms: C_17  and  C_18 
ROOT
HETATM    1  C           1     -10.406   7.805 -19.853  0.00  0.00     0.298 C 
ENDROOT
BRANCH   1   2
HETATM    2  N           1      -9.235   8.312 -20.640  0.00  0.00    -0.064 N 
HETATM    3  H           1      -8.726   7.506 -21.069  0.00  0.00     0.275 HD
HETATM    4  H           1      -9.573   8.951 -21.395  0.00  0.00     0.275 HD
HETATM    5  H           1      -8.588   8.833 -20.006  0.00  0.00     0.275 HD
ENDBRANCH   1   2
BRANCH   1   6
HETATM    6  C           1     -11.257   8.982 -19.394  0.00  0.00     0.224 C 
BRANCH   6   7
HETATM    7  O           1     -11.296   9.953 -20.405  0.00  0.00    -0.287 OA
BRANCH   7   8
HETATM    8  P           1     -12.760  10.516 -20.789  0.00  0.00     0.406 P 
HETATM    9  O           1     -13.625  10.501 -19.588  0.00  0.00    -0.624 OA
HETATM   10  O           1     -13.357   9.660 -21.838  0.00  0.00    -0.624 OA
BRANCH   8  11
HETATM   11  O           1     -12.629  12.029 -21.339  0.00  0.00    -0.300 OA
HETATM   12  H           1     -13.503  12.273 -21.591  0.00  0.00     0.223 HD
ENDBRANCH   8  11
ENDBRANCH   7   8
ENDBRANCH   6   7
ENDBRANCH   1   6
BRANCH   1  13
HETATM   13  C           1     -11.237   6.891 -20.719  0.00  0.00     0.251 C 
HETATM   14  O           1     -11.175   6.978 -21.922  0.00  0.00    -0.271 OA
HETATM   15  N           1     -12.061   5.963 -20.142  0.00  0.00    -0.344 N 
HETATM   16  H           1     -12.113   5.889 -19.133  0.00  0.00     0.163 HD
BRANCH  15  17
HETATM   17  C           1     -12.860   5.084 -20.974  0.00  0.00     0.189 C 
BRANCH  17  18
HETATM   18  C           1     -14.323   5.400 -20.778  0.00  0.00     0.197 C 
HETATM   19  O           1     -15.032   5.709 -21.760  0.00  0.00    -0.646 OA
HETATM   20  O           1     -14.824   5.353 -19.634  0.00  0.00    -0.646 OA
ENDBRANCH  17  18
BRANCH  17  21
HETATM   21  C           1     -12.596   3.636 -20.581  0.00  0.00     0.014 C 
HETATM   22  C           1     -13.423   2.713 -21.466  0.00  0.00     0.012 C 
BRANCH  21  23
HETATM   23  C           1     -11.117   3.323 -20.763  0.00  0.00     0.002 C 
HETATM   24  C           1     -10.741   3.477 -22.231  0.00  0.00     0.005 C 
ENDBRANCH  21  23
ENDBRANCH  17  21
ENDBRANCH  15  17
ENDBRANCH   1  13
TORSDOF 10
ENDMDL
