MODEL 1
REMARK VINA RESULT:      -7.1      0.000      0.000
REMARK  12 active torsions:
REMARK  status: ('A' for Active; 'I' for Inactive)
REMARK       I    between atoms: N_1  and  C_2 
REMARK       I    between atoms: C_2  and  N_3 
REMARK    1  A    between atoms: N_4  and  C_5 
REMARK    2  A    between atoms: C_5  and  C_6 
REMARK    3  A    between atoms: C_6  and  C_7 
REMARK    4  A    between atoms: C_7  and  C_8 
REMARK    5  A    between atoms: C_8  and  C_9 
REMARK    6  A    between atoms: C_8  and  N_12 
REMARK       I    between atoms: N_12  and  C_13 
REMARK    7  A    between atoms: C_13  and  C_14 
REMARK    8  A    between atoms: C_14  and  C_15 
REMARK    9  A    between atoms: C_14  and  N_21 
REMARK   10  A    between atoms: C_15  and  O_16 
REMARK   11  A    between atoms: O_16  and  P_17 
REMARK   12  A    between atoms: P_17  and  O_18 
ROOT
HETATM    1  C           1     -22.567  -3.835  -9.801  0.00  0.00     0.185 C 
ENDROOT
BRANCH   1   2
HETATM    2  C           1     -22.044  -3.865 -11.231  0.00  0.00     0.038 C 
BRANCH   2   3
HETATM    3  C           1     -22.461  -2.590 -11.953  0.00  0.00     0.023 C 
BRANCH   3   4
HETATM    4  C           1     -23.218  -2.951 -13.224  0.00  0.00     0.138 C 
BRANCH   4   5
HETATM    5  N           1     -24.017  -1.797 -13.663  0.00  0.00    -0.227 N 
HETATM    6  C           1     -23.777  -1.249 -14.778  0.00  0.00     0.665 C 
HETATM    7  N           1     -24.483  -0.229 -15.166  0.00  0.00    -0.235 N 
HETATM    8  N           1     -22.849  -1.695 -15.516  0.00  0.00    -0.235 N 
HETATM    9  H           1     -25.248   0.140 -14.557  0.00  0.00     0.174 HD
HETATM   10  H           1     -24.285   0.224 -16.087  0.00  0.00     0.174 HD
HETATM   11  H           1     -22.279  -2.519 -15.203  0.00  0.00     0.174 HD
HETATM   12  H           1     -22.650  -1.240 -16.441  0.00  0.00     0.174 HD
HETATM   13  H           1     -24.786  -1.427 -13.051  0.00  0.00     0.177 HD
ENDBRANCH   4   5
ENDBRANCH   3   4
ENDBRANCH   2   3
ENDBRANCH   1   2
BRANCH   1  14
HETATM   14  C           1     -24.075  -3.864  -9.816  0.00  0.00     0.196 C 
HETATM   15  O           1     -24.724  -2.840  -9.510  0.00  0.00    -0.646 OA
HETATM   16  O           1     -24.677  -4.912 -10.136  0.00  0.00    -0.646 OA
ENDBRANCH   1  14
BRANCH   1  17
HETATM   17  N           1     -22.069  -4.992  -9.081  0.00  0.00    -0.345 N 
HETATM   18  C           1     -21.686  -4.870  -7.773  0.00  0.00     0.251 C 
HETATM   19  O           1     -21.763  -3.799  -7.218  0.00  0.00    -0.271 OA
HETATM   20  H           1     -22.005  -5.888  -9.546  0.00  0.00     0.163 HD
BRANCH  18  21
HETATM   21  C           1     -21.168  -6.073  -7.023  0.00  0.00     0.298 C 
BRANCH  21  22
HETATM   22  C           1     -21.587  -5.981  -5.562  0.00  0.00     0.224 C 
BRANCH  22  23
HETATM   23  O           1     -22.173  -7.191  -5.166  0.00  0.00    -0.287 OA
BRANCH  23  24
HETATM   24  P           1     -21.195  -8.244  -4.428  0.00  0.00     0.406 P 
HETATM   25  O           1     -21.980  -9.416  -3.981  0.00  0.00    -0.624 OA
HETATM   26  O           1     -20.564  -7.594  -3.258  0.00  0.00    -0.624 OA
BRANCH  24  27
HETATM   27  O           1     -20.049  -8.727  -5.459  0.00  0.00    -0.300 OA
HETATM   28  H           1     -20.311  -8.381  -6.294  0.00  0.00     0.223 HD
ENDBRANCH  24  27
ENDBRANCH  23  24
ENDBRANCH  22  23
ENDBRANCH  21  22
BRANCH  21  29
HETATM   29  N           1     -19.671  -6.110  -7.112  0.00  0.00    -0.064 N 
HETATM   30  H           1     -19.272  -5.268  -6.638  0.00  0.00     0.275 HD
HETATM   31  H           1     -19.316  -6.974  -6.643  0.00  0.00     0.275 HD
HETATM   32  H           1     -19.382  -6.114  -8.116  0.00  0.00     0.275 HD
ENDBRANCH  21  29
ENDBRANCH  18  21
ENDBRANCH   1  17
TORSDOF 12
ENDMDL
MODEL 2
REMARK VINA RESULT:      -6.7      4.203      8.944
REMARK  12 active torsions:
REMARK  status: ('A' for Active; 'I' for Inactive)
REMARK       I    between atoms: N_1  and  C_2 
REMARK       I    between atoms: C_2  and  N_3 
REMARK    1  A    between atoms: N_4  and  C_5 
REMARK    2  A    between atoms: C_5  and  C_6 
REMARK    3  A    between atoms: C_6  and  C_7 
REMARK    4  A    between atoms: C_7  and  C_8 
REMARK    5  A    between atoms: C_8  and  C_9 
REMARK    6  A    between atoms: C_8  and  N_12 
REMARK       I    between atoms: N_12  and  C_13 
REMARK    7  A    between atoms: C_13  and  C_14 
REMARK    8  A    between atoms: C_14  and  C_15 
REMARK    9  A    between atoms: C_14  and  N_21 
REMARK   10  A    between atoms: C_15  and  O_16 
REMARK   11  A    between atoms: O_16  and  P_17 
REMARK   12  A    between atoms: P_17  and  O_18 
ROOT
HETATM    1  C           1     -21.174  -4.853  -7.406  0.00  0.00     0.185 C 
ENDROOT
BRANCH   1   2
HETATM    2  C           1     -21.091  -6.258  -6.824  0.00  0.00     0.038 C 
BRANCH   2   3
HETATM    3  C           1     -21.939  -6.337  -5.561  0.00  0.00     0.023 C 
BRANCH   3   4
HETATM    4  C           1     -21.047  -6.173  -4.339  0.00  0.00     0.138 C 
BRANCH   4   5
HETATM    5  N           1     -21.881  -6.057  -3.134  0.00  0.00    -0.227 N 
HETATM    6  C           1     -21.655  -6.798  -2.133  0.00  0.00     0.665 C 
HETATM    7  N           1     -22.393  -6.695  -1.068  0.00  0.00    -0.235 N 
HETATM    8  N           1     -20.709  -7.639  -2.169  0.00  0.00    -0.235 N 
HETATM    9  H           1     -23.174  -6.001  -1.038  0.00  0.00     0.174 HD
HETATM   10  H           1     -22.206  -7.307  -0.242  0.00  0.00     0.174 HD
HETATM   11  H           1     -20.113  -7.722  -3.030  0.00  0.00     0.174 HD
HETATM   12  H           1     -20.521  -8.254  -1.339  0.00  0.00     0.174 HD
HETATM   13  H           1     -22.665  -5.359  -3.104  0.00  0.00     0.177 HD
ENDBRANCH   4   5
ENDBRANCH   3   4
ENDBRANCH   2   3
ENDBRANCH   1   2
BRANCH   1  14
HETATM   14  C           1     -19.786  -4.360  -7.733  0.00  0.00     0.196 C 
HETATM   15  O           1     -19.585  -3.702  -8.778  0.00  0.00    -0.646 OA
HETATM   16  O           1     -18.836  -4.607  -6.959  0.00  0.00    -0.646 OA
ENDBRANCH   1  14
BRANCH   1  17
HETATM   17  N           1     -21.973  -4.879  -8.616  0.00  0.00    -0.345 N 
HETATM   18  C           1     -23.288  -4.500  -8.576  0.00  0.00     0.251 C 
HETATM   19  O           1     -23.782  -4.144  -7.532  0.00  0.00    -0.271 OA
HETATM   20  H           1     -21.560  -5.178  -9.490  0.00  0.00     0.163 HD
BRANCH  18  21
HETATM   21  C           1     -24.120  -4.528  -9.834  0.00  0.00     0.298 C 
BRANCH  21  22
HETATM   22  C           1     -23.284  -4.033 -11.007  0.00  0.00     0.224 C 
BRANCH  22  23
HETATM   23  O           1     -23.941  -2.965 -11.633  0.00  0.00    -0.287 OA
BRANCH  23  24
HETATM   24  P           1     -23.828  -2.909 -13.244  0.00  0.00     0.406 P 
HETATM   25  O           1     -24.504  -4.089 -13.826  0.00  0.00    -0.624 OA
HETATM   26  O           1     -22.401  -2.911 -13.637  0.00  0.00    -0.624 OA
BRANCH  24  27
HETATM   27  O           1     -24.534  -1.562 -13.787  0.00  0.00    -0.300 OA
HETATM   28  H           1     -25.454  -1.764 -13.814  0.00  0.00     0.223 HD
ENDBRANCH  24  27
ENDBRANCH  23  24
ENDBRANCH  22  23
ENDBRANCH  21  22
BRANCH  21  29
HETATM   29  N           1     -25.315  -3.636  -9.662  0.00  0.00    -0.064 N 
HETATM   30  H           1     -26.164  -4.221  -9.490  0.00  0.00     0.275 HD
HETATM   31  H           1     -25.160  -3.000  -8.847  0.00  0.00     0.275 HD
HETATM   32  H           1     -25.453  -3.068 -10.528  0.00  0.00     0.275 HD
ENDBRANCH  21  29
ENDBRANCH  18  21
ENDBRANCH   1  17
TORSDOF 12
ENDMDL
MODEL 3
REMARK VINA RESULT:      -6.6      4.115      9.531
REMARK  12 active torsions:
REMARK  status: ('A' for Active; 'I' for Inactive)
REMARK       I    between atoms: N_1  and  C_2 
REMARK       I    between atoms: C_2  and  N_3 
REMARK    1  A    between atoms: N_4  and  C_5 
REMARK    2  A    between atoms: C_5  and  C_6 
REMARK    3  A    between atoms: C_6  and  C_7 
REMARK    4  A    between atoms: C_7  and  C_8 
REMARK    5  A    between atoms: C_8  and  C_9 
REMARK    6  A    between atoms: C_8  and  N_12 
REMARK       I    between atoms: N_12  and  C_13 
REMARK    7  A    between atoms: C_13  and  C_14 
REMARK    8  A    between atoms: C_14  and  C_15 
REMARK    9  A    between atoms: C_14  and  N_21 
REMARK   10  A    between atoms: C_15  and  O_16 
REMARK   11  A    between atoms: O_16  and  P_17 
REMARK   12  A    between atoms: P_17  and  O_18 
ROOT
HETATM    1  C           1     -21.373  -5.839  -5.767  0.00  0.00     0.185 C 
ENDROOT
BRANCH   1   2
HETATM    2  C           1     -22.134  -6.377  -4.563  0.00  0.00     0.038 C 
BRANCH   2   3
HETATM    3  C           1     -21.370  -6.045  -3.288  0.00  0.00     0.023 C 
BRANCH   3   4
HETATM    4  C           1     -21.346  -7.265  -2.377  0.00  0.00     0.138 C 
BRANCH   4   5
HETATM    5  N           1     -22.331  -7.092  -1.300  0.00  0.00    -0.227 N 
HETATM    6  C           1     -22.466  -7.987  -0.415  0.00  0.00     0.665 C 
HETATM    7  N           1     -23.337  -7.834   0.537  0.00  0.00    -0.235 N 
HETATM    8  N           1     -21.752  -9.032  -0.458  0.00  0.00    -0.235 N 
HETATM    9  H           1     -23.927  -6.972   0.573  0.00  0.00     0.174 HD
HETATM   10  H           1     -23.449  -8.573   1.268  0.00  0.00     0.174 HD
HETATM   11  H           1     -21.048  -9.155  -1.228  0.00  0.00     0.174 HD
HETATM   12  H           1     -21.864  -9.774   0.275  0.00  0.00     0.174 HD
HETATM   13  H           1     -22.924  -6.226  -1.264  0.00  0.00     0.177 HD
ENDBRANCH   4   5
ENDBRANCH   3   4
ENDBRANCH   2   3
ENDBRANCH   1   2
BRANCH   1  14
HETATM   14  C           1     -20.281  -6.807  -6.147  0.00  0.00     0.196 C 
HETATM   15  O           1     -19.325  -6.425  -6.858  0.00  0.00    -0.646 OA
HETATM   16  O           1     -20.329  -7.991  -5.749  0.00  0.00    -0.646 OA
ENDBRANCH   1  14
BRANCH   1  17
HETATM   17  N           1     -22.286  -5.681  -6.883  0.00  0.00    -0.345 N 
HETATM   18  C           1     -22.160  -4.608  -7.724  0.00  0.00     0.251 C 
HETATM   19  O           1     -21.288  -3.793  -7.536  0.00  0.00    -0.271 OA
HETATM   20  H           1     -23.017  -6.363  -7.040  0.00  0.00     0.163 HD
BRANCH  18  21
HETATM   21  C           1     -23.110  -4.443  -8.884  0.00  0.00     0.298 C 
BRANCH  21  22
HETATM   22  C           1     -22.343  -3.941 -10.102  0.00  0.00     0.224 C 
BRANCH  22  23
HETATM   23  O           1     -22.902  -4.490 -11.265  0.00  0.00    -0.287 OA
BRANCH  23  24
HETATM   24  P           1     -23.745  -3.472 -12.193  0.00  0.00     0.406 P 
HETATM   25  O           1     -22.951  -2.245 -12.426  0.00  0.00    -0.624 OA
HETATM   26  O           1     -25.012  -3.120 -11.514  0.00  0.00    -0.624 OA
BRANCH  24  27
HETATM   27  O           1     -24.070  -4.177 -13.609  0.00  0.00    -0.300 OA
HETATM   28  H           1     -24.945  -4.513 -13.518  0.00  0.00     0.223 HD
ENDBRANCH  24  27
ENDBRANCH  23  24
ENDBRANCH  22  23
ENDBRANCH  21  22
BRANCH  21  29
HETATM   29  N           1     -24.174  -3.450  -8.521  0.00  0.00    -0.064 N 
HETATM   30  H           1     -23.849  -2.869  -7.715  0.00  0.00     0.275 HD
HETATM   31  H           1     -24.366  -2.830  -9.341  0.00  0.00     0.275 HD
HETATM   32  H           1     -25.048  -3.957  -8.255  0.00  0.00     0.275 HD
ENDBRANCH  21  29
ENDBRANCH  18  21
ENDBRANCH   1  17
TORSDOF 12
ENDMDL
MODEL 4
REMARK VINA RESULT:      -6.5      4.108      9.571
REMARK  12 active torsions:
REMARK  status: ('A' for Active; 'I' for Inactive)
REMARK       I    between atoms: N_1  and  C_2 
REMARK       I    between atoms: C_2  and  N_3 
REMARK    1  A    between atoms: N_4  and  C_5 
REMARK    2  A    between atoms: C_5  and  C_6 
REMARK    3  A    between atoms: C_6  and  C_7 
REMARK    4  A    between atoms: C_7  and  C_8 
REMARK    5  A    between atoms: C_8  and  C_9 
REMARK    6  A    between atoms: C_8  and  N_12 
REMARK       I    between atoms: N_12  and  C_13 
REMARK    7  A    between atoms: C_13  and  C_14 
REMARK    8  A    between atoms: C_14  and  C_15 
REMARK    9  A    between atoms: C_14  and  N_21 
REMARK   10  A    between atoms: C_15  and  O_16 
REMARK   11  A    between atoms: O_16  and  P_17 
REMARK   12  A    between atoms: P_17  and  O_18 
ROOT
HETATM    1  C           1     -20.891  -6.471  -5.137  0.00  0.00     0.185 C 
ENDROOT
BRANCH   1   2
HETATM    2  C           1     -21.999  -6.529  -4.094  0.00  0.00     0.038 C 
BRANCH   2   3
HETATM    3  C           1     -21.421  -6.217  -2.720  0.00  0.00     0.023 C 
BRANCH   3   4
HETATM    4  C           1     -22.341  -6.774  -1.643  0.00  0.00     0.138 C 
BRANCH   4   5
HETATM    5  N           1     -21.546  -7.513  -0.652  0.00  0.00    -0.227 N 
HETATM    6  C           1     -22.108  -8.013   0.366  0.00  0.00     0.665 C 
HETATM    7  N           1     -21.404  -8.666   1.243  0.00  0.00    -0.235 N 
HETATM    8  N           1     -23.356  -7.877   0.531  0.00  0.00    -0.235 N 
HETATM    9  H           1     -20.374  -8.778   1.107  0.00  0.00     0.174 HD
HETATM   10  H           1     -21.869  -9.079   2.083  0.00  0.00     0.174 HD
HETATM   11  H           1     -23.925  -7.349  -0.177  0.00  0.00     0.174 HD
HETATM   12  H           1     -23.823  -8.292   1.375  0.00  0.00     0.174 HD
HETATM   13  H           1     -20.511  -7.625  -0.788  0.00  0.00     0.177 HD
ENDBRANCH   4   5
ENDBRANCH   3   4
ENDBRANCH   2   3
ENDBRANCH   1   2
BRANCH   1  14
HETATM   14  C           1     -20.496  -7.872  -5.532  0.00  0.00     0.196 C 
HETATM   15  O           1     -21.374  -8.749  -5.688  0.00  0.00    -0.646 OA
HETATM   16  O           1     -19.291  -8.157  -5.706  0.00  0.00    -0.646 OA
ENDBRANCH   1  14
BRANCH   1  17
HETATM   17  N           1     -21.367  -5.756  -6.307  0.00  0.00    -0.345 N 
HETATM   18  C           1     -20.554  -4.851  -6.933  0.00  0.00     0.251 C 
HETATM   19  O           1     -19.440  -4.646  -6.512  0.00  0.00    -0.271 OA
HETATM   20  H           1     -22.300  -5.927  -6.659  0.00  0.00     0.163 HD
BRANCH  18  21
HETATM   21  C           1     -21.049  -4.107  -8.149  0.00  0.00     0.298 C 
BRANCH  21  22
HETATM   22  C           1     -22.538  -4.366  -8.332  0.00  0.00     0.224 C 
BRANCH  22  23
HETATM   23  O           1     -23.118  -3.296  -9.027  0.00  0.00    -0.287 OA
BRANCH  23  24
HETATM   24  P           1     -24.157  -3.691 -10.199  0.00  0.00     0.406 P 
HETATM   25  O           1     -24.048  -5.139 -10.485  0.00  0.00    -0.624 OA
HETATM   26  O           1     -23.838  -2.920 -11.421  0.00  0.00    -0.624 OA
BRANCH  24  27
HETATM   27  O           1     -25.662  -3.349  -9.723  0.00  0.00    -0.300 OA
HETATM   28  H           1     -25.852  -2.510 -10.104  0.00  0.00     0.223 HD
ENDBRANCH  24  27
ENDBRANCH  23  24
ENDBRANCH  22  23
ENDBRANCH  21  22
BRANCH  21  29
HETATM   29  N           1     -20.306  -4.585  -9.362  0.00  0.00    -0.064 N 
HETATM   30  H           1     -19.327  -4.834  -9.096  0.00  0.00     0.275 HD
HETATM   31  H           1     -20.785  -5.428  -9.754  0.00  0.00     0.275 HD
HETATM   32  H           1     -20.290  -3.827 -10.081  0.00  0.00     0.275 HD
ENDBRANCH  21  29
ENDBRANCH  18  21
ENDBRANCH   1  17
TORSDOF 12
ENDMDL
MODEL 5
REMARK VINA RESULT:      -6.5      2.969      4.720
REMARK  12 active torsions:
REMARK  status: ('A' for Active; 'I' for Inactive)
REMARK       I    between atoms: N_1  and  C_2 
REMARK       I    between atoms: C_2  and  N_3 
REMARK    1  A    between atoms: N_4  and  C_5 
REMARK    2  A    between atoms: C_5  and  C_6 
REMARK    3  A    between atoms: C_6  and  C_7 
REMARK    4  A    between atoms: C_7  and  C_8 
REMARK    5  A    between atoms: C_8  and  C_9 
REMARK    6  A    between atoms: C_8  and  N_12 
REMARK       I    between atoms: N_12  and  C_13 
REMARK    7  A    between atoms: C_13  and  C_14 
REMARK    8  A    between atoms: C_14  and  C_15 
REMARK    9  A    between atoms: C_14  and  N_21 
REMARK   10  A    between atoms: C_15  and  O_16 
REMARK   11  A    between atoms: O_16  and  P_17 
REMARK   12  A    between atoms: P_17  and  O_18 
ROOT
HETATM    1  C           1     -21.358  -5.477  -6.710  0.00  0.00     0.185 C 
ENDROOT
BRANCH   1   2
HETATM    2  C           1     -21.920  -4.133  -7.154  0.00  0.00     0.038 C 
BRANCH   2   3
HETATM    3  C           1     -23.186  -4.355  -7.972  0.00  0.00     0.023 C 
BRANCH   3   4
HETATM    4  C           1     -23.102  -3.557  -9.266  0.00  0.00     0.138 C 
BRANCH   4   5
HETATM    5  N           1     -21.785  -3.762  -9.885  0.00  0.00    -0.227 N 
HETATM    6  C           1     -21.574  -3.371 -11.070  0.00  0.00     0.665 C 
HETATM    7  N           1     -20.409  -3.553 -11.617  0.00  0.00    -0.235 N 
HETATM    8  N           1     -22.498  -2.802 -11.723  0.00  0.00    -0.235 N 
HETATM    9  H           1     -19.645  -4.022 -11.079  0.00  0.00     0.174 HD
HETATM   10  H           1     -20.234  -3.230 -12.596  0.00  0.00     0.174 HD
HETATM   11  H           1     -23.439  -2.655 -11.281  0.00  0.00     0.174 HD
HETATM   12  H           1     -22.323  -2.478 -12.706  0.00  0.00     0.174 HD
HETATM   13  H           1     -21.018  -4.234  -9.344  0.00  0.00     0.177 HD
ENDBRANCH   4   5
ENDBRANCH   3   4
ENDBRANCH   2   3
ENDBRANCH   1   2
BRANCH   1  14
HETATM   14  C           1     -20.071  -5.753  -7.446  0.00  0.00     0.196 C 
HETATM   15  O           1     -19.402  -6.774  -7.175  0.00  0.00    -0.646 OA
HETATM   16  O           1     -19.673  -4.962  -8.329  0.00  0.00    -0.646 OA
ENDBRANCH   1  14
BRANCH   1  17
HETATM   17  N           1     -21.100  -5.443  -5.283  0.00  0.00    -0.345 N 
HETATM   18  C           1     -21.585  -6.438  -4.477  0.00  0.00     0.251 C 
HETATM   19  O           1     -22.228  -7.343  -4.954  0.00  0.00    -0.271 OA
HETATM   20  H           1     -20.563  -4.685  -4.884  0.00  0.00     0.163 HD
BRANCH  18  21
HETATM   21  C           1     -21.317  -6.403  -2.993  0.00  0.00     0.298 C 
BRANCH  21  22
HETATM   22  C           1     -21.082  -7.820  -2.485  0.00  0.00     0.224 C 
BRANCH  22  23
HETATM   23  O           1     -20.776  -7.782  -1.117  0.00  0.00    -0.287 OA
BRANCH  23  24
HETATM   24  P           1     -21.801  -8.562  -0.141  0.00  0.00     0.406 P 
HETATM   25  O           1     -22.206  -9.838  -0.771  0.00  0.00    -0.624 OA
HETATM   26  O           1     -22.998  -7.722   0.089  0.00  0.00    -0.624 OA
BRANCH  24  27
HETATM   27  O           1     -21.076  -8.864   1.270  0.00  0.00    -0.300 OA
HETATM   28  H           1     -21.160  -8.067   1.762  0.00  0.00     0.223 HD
ENDBRANCH  24  27
ENDBRANCH  23  24
ENDBRANCH  22  23
ENDBRANCH  21  22
BRANCH  21  29
HETATM   29  N           1     -22.500  -5.810  -2.285  0.00  0.00    -0.064 N 
HETATM   30  H           1     -22.306  -5.762  -1.260  0.00  0.00     0.275 HD
HETATM   31  H           1     -22.677  -4.847  -2.651  0.00  0.00     0.275 HD
HETATM   32  H           1     -23.341  -6.407  -2.452  0.00  0.00     0.275 HD
ENDBRANCH  21  29
ENDBRANCH  18  21
ENDBRANCH   1  17
TORSDOF 12
ENDMDL
MODEL 6
REMARK VINA RESULT:      -6.4      2.146      2.943
REMARK  12 active torsions:
REMARK  status: ('A' for Active; 'I' for Inactive)
REMARK       I    between atoms: N_1  and  C_2 
REMARK       I    between atoms: C_2  and  N_3 
REMARK    1  A    between atoms: N_4  and  C_5 
REMARK    2  A    between atoms: C_5  and  C_6 
REMARK    3  A    between atoms: C_6  and  C_7 
REMARK    4  A    between atoms: C_7  and  C_8 
REMARK    5  A    between atoms: C_8  and  C_9 
REMARK    6  A    between atoms: C_8  and  N_12 
REMARK       I    between atoms: N_12  and  C_13 
REMARK    7  A    between atoms: C_13  and  C_14 
REMARK    8  A    between atoms: C_14  and  C_15 
REMARK    9  A    between atoms: C_14  and  N_21 
REMARK   10  A    between atoms: C_15  and  O_16 
REMARK   11  A    between atoms: O_16  and  P_17 
REMARK   12  A    between atoms: P_17  and  O_18 
ROOT
HETATM    1  C           1     -21.720  -4.772  -8.446  0.00  0.00     0.185 C 
ENDROOT
BRANCH   1   2
HETATM    2  C           1     -22.818  -3.798  -8.854  0.00  0.00     0.038 C 
BRANCH   2   3
HETATM    3  C           1     -23.940  -4.559  -9.549  0.00  0.00     0.023 C 
BRANCH   3   4
HETATM    4  C           1     -23.563  -4.805 -11.004  0.00  0.00     0.138 C 
BRANCH   4   5
HETATM    5  N           1     -23.988  -3.659 -11.821  0.00  0.00    -0.227 N 
HETATM    6  C           1     -23.160  -3.089 -12.589  0.00  0.00     0.665 C 
HETATM    7  N           1     -23.535  -2.075 -13.312  0.00  0.00    -0.235 N 
HETATM    8  N           1     -21.965  -3.505 -12.655  0.00  0.00    -0.235 N 
HETATM    9  H           1     -24.521  -1.731 -13.259  0.00  0.00     0.174 HD
HETATM   10  H           1     -22.851  -1.604 -13.947  0.00  0.00     0.174 HD
HETATM   11  H           1     -21.662  -4.323 -12.071  0.00  0.00     0.174 HD
HETATM   12  H           1     -21.279  -3.032 -13.292  0.00  0.00     0.174 HD
HETATM   13  H           1     -24.978  -3.314 -11.767  0.00  0.00     0.177 HD
ENDBRANCH   4   5
ENDBRANCH   3   4
ENDBRANCH   2   3
ENDBRANCH   1   2
BRANCH   1  14
HETATM   14  C           1     -20.403  -4.317  -9.024  0.00  0.00     0.196 C 
HETATM   15  O           1     -19.564  -3.744  -8.295  0.00  0.00    -0.646 OA
HETATM   16  O           1     -20.149  -4.515 -10.232  0.00  0.00    -0.646 OA
ENDBRANCH   1  14
BRANCH   1  17
HETATM   17  N           1     -21.624  -4.810  -6.999  0.00  0.00    -0.345 N 
HETATM   18  C           1     -21.319  -5.985  -6.366  0.00  0.00     0.251 C 
HETATM   19  O           1     -21.130  -6.989  -7.011  0.00  0.00    -0.271 OA
HETATM   20  H           1     -21.783  -3.970  -6.459  0.00  0.00     0.163 HD
BRANCH  18  21
HETATM   21  C           1     -21.219  -6.025  -4.861  0.00  0.00     0.298 C 
BRANCH  21  22
HETATM   22  C           1     -20.405  -7.242  -4.438  0.00  0.00     0.224 C 
BRANCH  22  23
HETATM   23  O           1     -21.242  -8.162  -3.791  0.00  0.00    -0.287 OA
BRANCH  23  24
HETATM   24  P           1     -21.125  -9.695  -4.287  0.00  0.00     0.406 P 
HETATM   25  O           1     -22.331 -10.442  -3.865  0.00  0.00    -0.624 OA
HETATM   26  O           1     -19.923 -10.317  -3.689  0.00  0.00    -0.624 OA
BRANCH  24  27
HETATM   27  O           1     -21.007  -9.732  -5.898  0.00  0.00    -0.300 OA
HETATM   28  H           1     -20.082  -9.749  -6.073  0.00  0.00     0.223 HD
ENDBRANCH  24  27
ENDBRANCH  23  24
ENDBRANCH  22  23
ENDBRANCH  21  22
BRANCH  21  29
HETATM   29  N           1     -22.596  -6.116  -4.271  0.00  0.00    -0.064 N 
HETATM   30  H           1     -22.524  -6.271  -3.240  0.00  0.00     0.275 HD
HETATM   31  H           1     -23.112  -5.226  -4.454  0.00  0.00     0.275 HD
HETATM   32  H           1     -23.110  -6.914  -4.708  0.00  0.00     0.275 HD
ENDBRANCH  21  29
ENDBRANCH  18  21
ENDBRANCH   1  17
TORSDOF 12
ENDMDL
MODEL 7
REMARK VINA RESULT:      -5.9      3.851      5.956
REMARK  12 active torsions:
REMARK  status: ('A' for Active; 'I' for Inactive)
REMARK       I    between atoms: N_1  and  C_2 
REMARK       I    between atoms: C_2  and  N_3 
REMARK    1  A    between atoms: N_4  and  C_5 
REMARK    2  A    between atoms: C_5  and  C_6 
REMARK    3  A    between atoms: C_6  and  C_7 
REMARK    4  A    between atoms: C_7  and  C_8 
REMARK    5  A    between atoms: C_8  and  C_9 
REMARK    6  A    between atoms: C_8  and  N_12 
REMARK       I    between atoms: N_12  and  C_13 
REMARK    7  A    between atoms: C_13  and  C_14 
REMARK    8  A    between atoms: C_14  and  C_15 
REMARK    9  A    between atoms: C_14  and  N_21 
REMARK   10  A    between atoms: C_15  and  O_16 
REMARK   11  A    between atoms: O_16  and  P_17 
REMARK   12  A    between atoms: P_17  and  O_18 
ROOT
HETATM    1  C           1     -20.677  -6.732  -5.428  0.00  0.00     0.185 C 
ENDROOT
BRANCH   1   2
HETATM    2  C           1     -20.512  -5.977  -6.741  0.00  0.00     0.038 C 
BRANCH   2   3
HETATM    3  C           1     -20.154  -4.525  -6.451  0.00  0.00     0.023 C 
BRANCH   3   4
HETATM    4  C           1     -20.776  -3.627  -7.512  0.00  0.00     0.138 C 
BRANCH   4   5
HETATM    5  N           1     -22.240  -3.746  -7.458  0.00  0.00    -0.227 N 
HETATM    6  C           1     -22.911  -3.791  -8.530  0.00  0.00     0.665 C 
HETATM    7  N           1     -24.206  -3.897  -8.483  0.00  0.00    -0.235 N 
HETATM    8  N           1     -22.322  -3.734  -9.650  0.00  0.00    -0.235 N 
HETATM    9  H           1     -24.694  -3.944  -7.560  0.00  0.00     0.174 HD
HETATM   10  H           1     -24.761  -3.934  -9.368  0.00  0.00     0.174 HD
HETATM   11  H           1     -21.276  -3.649  -9.688  0.00  0.00     0.174 HD
HETATM   12  H           1     -22.878  -3.772 -10.539  0.00  0.00     0.174 HD
HETATM   13  H           1     -22.730  -3.793  -6.531  0.00  0.00     0.177 HD
ENDBRANCH   4   5
ENDBRANCH   3   4
ENDBRANCH   2   3
ENDBRANCH   1   2
BRANCH   1  14
HETATM   14  C           1     -21.982  -6.340  -4.782  0.00  0.00     0.196 C 
HETATM   15  O           1     -22.075  -6.294  -3.536  0.00  0.00    -0.646 OA
HETATM   16  O           1     -22.972  -6.060  -5.492  0.00  0.00    -0.646 OA
ENDBRANCH   1  14
BRANCH   1  17
HETATM   17  N           1     -20.677  -8.159  -5.690  0.00  0.00    -0.345 N 
HETATM   18  C           1     -19.967  -9.003  -4.879  0.00  0.00     0.251 C 
HETATM   19  O           1     -19.340  -8.559  -3.946  0.00  0.00    -0.271 OA
HETATM   20  H           1     -21.201  -8.530  -6.471  0.00  0.00     0.163 HD
BRANCH  18  21
HETATM   21  C           1     -19.967 -10.487  -5.151  0.00  0.00     0.298 C 
BRANCH  21  22
HETATM   22  C           1     -18.636 -10.890  -5.774  0.00  0.00     0.224 C 
BRANCH  22  23
HETATM   23  O           1     -17.798 -11.421  -4.784  0.00  0.00    -0.287 OA
BRANCH  23  24
HETATM   24  P           1     -16.413 -10.630  -4.530  0.00  0.00     0.406 P 
HETATM   25  O           1     -15.977  -9.983  -5.788  0.00  0.00    -0.624 OA
HETATM   26  O           1     -15.375 -11.584  -4.080  0.00  0.00    -0.624 OA
BRANCH  24  27
HETATM   27  O           1     -16.636  -9.502  -3.395  0.00  0.00    -0.300 OA
HETATM   28  H           1     -16.312  -9.889  -2.601  0.00  0.00     0.223 HD
ENDBRANCH  24  27
ENDBRANCH  23  24
ENDBRANCH  22  23
ENDBRANCH  21  22
BRANCH  21  29
HETATM   29  N           1     -21.082 -10.821  -6.097  0.00  0.00    -0.064 N 
HETATM   30  H           1     -21.944 -10.300  -5.818  0.00  0.00     0.275 HD
HETATM   31  H           1     -20.809 -10.546  -7.068  0.00  0.00     0.275 HD
HETATM   32  H           1     -21.270 -11.848  -6.065  0.00  0.00     0.275 HD
ENDBRANCH  21  29
ENDBRANCH  18  21
ENDBRANCH   1  17
TORSDOF 12
ENDMDL
MODEL 8
REMARK VINA RESULT:      -5.9      1.905      2.394
REMARK  12 active torsions:
REMARK  status: ('A' for Active; 'I' for Inactive)
REMARK       I    between atoms: N_1  and  C_2 
REMARK       I    between atoms: C_2  and  N_3 
REMARK    1  A    between atoms: N_4  and  C_5 
REMARK    2  A    between atoms: C_5  and  C_6 
REMARK    3  A    between atoms: C_6  and  C_7 
REMARK    4  A    between atoms: C_7  and  C_8 
REMARK    5  A    between atoms: C_8  and  C_9 
REMARK    6  A    between atoms: C_8  and  N_12 
REMARK       I    between atoms: N_12  and  C_13 
REMARK    7  A    between atoms: C_13  and  C_14 
REMARK    8  A    between atoms: C_14  and  C_15 
REMARK    9  A    between atoms: C_14  and  N_21 
REMARK   10  A    between atoms: C_15  and  O_16 
REMARK   11  A    between atoms: O_16  and  P_17 
REMARK   12  A    between atoms: P_17  and  O_18 
ROOT
HETATM    1  C           1     -21.814  -4.222 -10.380  0.00  0.00     0.185 C 
ENDROOT
BRANCH   1   2
HETATM    2  C           1     -22.664  -3.007 -10.729  0.00  0.00     0.038 C 
BRANCH   2   3
HETATM    3  C           1     -23.726  -3.404 -11.746  0.00  0.00     0.023 C 
BRANCH   3   4
HETATM    4  C           1     -23.248  -3.044 -13.146  0.00  0.00     0.138 C 
BRANCH   4   5
HETATM    5  N           1     -23.956  -1.843 -13.612  0.00  0.00    -0.227 N 
HETATM    6  C           1     -23.692  -1.354 -14.750  0.00  0.00     0.665 C 
HETATM    7  N           1     -24.318  -0.292 -15.162  0.00  0.00    -0.235 N 
HETATM    8  N           1     -22.818  -1.900 -15.486  0.00  0.00    -0.235 N 
HETATM    9  H           1     -25.039   0.159 -14.554  0.00  0.00     0.174 HD
HETATM   10  H           1     -24.100   0.112 -16.101  0.00  0.00     0.174 HD
HETATM   11  H           1     -22.313  -2.758 -15.153  0.00  0.00     0.174 HD
HETATM   12  H           1     -22.599  -1.495 -16.430  0.00  0.00     0.174 HD
HETATM   13  H           1     -24.680  -1.390 -13.002  0.00  0.00     0.177 HD
ENDBRANCH   4   5
ENDBRANCH   3   4
ENDBRANCH   2   3
ENDBRANCH   1   2
BRANCH   1  14
HETATM   14  C           1     -20.453  -4.085 -11.016  0.00  0.00     0.196 C 
HETATM   15  O           1     -19.603  -4.991 -10.876  0.00  0.00    -0.646 OA
HETATM   16  O           1     -20.175  -3.066 -11.685  0.00  0.00    -0.646 OA
ENDBRANCH   1  14
BRANCH   1  17
HETATM   17  N           1     -21.666  -4.310  -8.940  0.00  0.00    -0.345 N 
HETATM   18  C           1     -22.773  -4.446  -8.146  0.00  0.00     0.251 C 
HETATM   19  O           1     -23.873  -4.493  -8.645  0.00  0.00    -0.271 OA
HETATM   20  H           1     -20.746  -4.270  -8.522  0.00  0.00     0.163 HD
BRANCH  18  21
HETATM   21  C           1     -22.620  -4.537  -6.648  0.00  0.00     0.298 C 
BRANCH  21  22
HETATM   22  C           1     -21.310  -5.238  -6.312  0.00  0.00     0.224 C 
BRANCH  22  23
HETATM   23  O           1     -21.392  -6.587  -6.686  0.00  0.00    -0.287 OA
BRANCH  23  24
HETATM   24  P           1     -21.143  -7.665  -5.509  0.00  0.00     0.406 P 
HETATM   25  O           1     -22.142  -7.463  -4.437  0.00  0.00    -0.624 OA
HETATM   26  O           1     -19.781  -7.484  -4.957  0.00  0.00    -0.624 OA
BRANCH  24  27
HETATM   27  O           1     -21.288  -9.158  -6.106  0.00  0.00    -0.300 OA
HETATM   28  H           1     -22.215  -9.289  -6.210  0.00  0.00     0.223 HD
ENDBRANCH  24  27
ENDBRANCH  23  24
ENDBRANCH  22  23
ENDBRANCH  21  22
BRANCH  21  29
HETATM   29  N           1     -23.766  -5.319  -6.075  0.00  0.00    -0.064 N 
HETATM   30  H           1     -24.336  -4.699  -5.456  0.00  0.00     0.275 HD
HETATM   31  H           1     -24.365  -5.678  -6.853  0.00  0.00     0.275 HD
HETATM   32  H           1     -23.396  -6.122  -5.519  0.00  0.00     0.275 HD
ENDBRANCH  21  29
ENDBRANCH  18  21
ENDBRANCH   1  17
TORSDOF 12
ENDMDL
MODEL 9
REMARK VINA RESULT:      -5.9      4.864     10.125
REMARK  12 active torsions:
REMARK  status: ('A' for Active; 'I' for Inactive)
REMARK       I    between atoms: N_1  and  C_2 
REMARK       I    between atoms: C_2  and  N_3 
REMARK    1  A    between atoms: N_4  and  C_5 
REMARK    2  A    between atoms: C_5  and  C_6 
REMARK    3  A    between atoms: C_6  and  C_7 
REMARK    4  A    between atoms: C_7  and  C_8 
REMARK    5  A    between atoms: C_8  and  C_9 
REMARK    6  A    between atoms: C_8  and  N_12 
REMARK       I    between atoms: N_12  and  C_13 
REMARK    7  A    between atoms: C_13  and  C_14 
REMARK    8  A    between atoms: C_14  and  C_15 
REMARK    9  A    between atoms: C_14  and  N_21 
REMARK   10  A    between atoms: C_15  and  O_16 
REMARK   11  A    between atoms: O_16  and  P_17 
REMARK   12  A    between atoms: P_17  and  O_18 
ROOT
HETATM    1  C           1     -21.656  -7.647  -3.807  0.00  0.00     0.185 C 
ENDROOT
BRANCH   1   2
HETATM    2  C           1     -20.981  -9.010  -3.722  0.00  0.00     0.038 C 
BRANCH   2   3
HETATM    3  C           1     -21.981 -10.044  -3.224  0.00  0.00     0.023 C 
BRANCH   3   4
HETATM    4  C           1     -21.288 -11.002  -2.265  0.00  0.00     0.138 C 
BRANCH   4   5
HETATM    5  N           1     -20.807 -10.258  -1.092  0.00  0.00    -0.227 N 
HETATM    6  C           1     -21.332 -10.456   0.043  0.00  0.00     0.665 C 
HETATM    7  N           1     -20.906  -9.798   1.080  0.00  0.00    -0.235 N 
HETATM    8  N           1     -22.272 -11.296   0.167  0.00  0.00    -0.235 N 
HETATM    9  H           1     -20.130  -9.105   0.978  0.00  0.00     0.174 HD
HETATM   10  H           1     -21.340  -9.962   2.017  0.00  0.00     0.174 HD
HETATM   11  H           1     -22.615 -11.827  -0.671  0.00  0.00     0.174 HD
HETATM   12  H           1     -22.707 -11.460   1.108  0.00  0.00     0.174 HD
HETATM   13  H           1     -20.028  -9.562  -1.195  0.00  0.00     0.177 HD
ENDBRANCH   4   5
ENDBRANCH   3   4
ENDBRANCH   2   3
ENDBRANCH   1   2
BRANCH   1  14
HETATM   14  C           1     -21.569  -6.958  -2.468  0.00  0.00     0.196 C 
HETATM   15  O           1     -22.363  -6.033  -2.188  0.00  0.00    -0.646 OA
HETATM   16  O           1     -20.705  -7.312  -1.637  0.00  0.00    -0.646 OA
ENDBRANCH   1  14
BRANCH   1  17
HETATM   17  N           1     -20.989  -6.840  -4.810  0.00  0.00    -0.345 N 
HETATM   18  C           1     -21.715  -5.985  -5.594  0.00  0.00     0.251 C 
HETATM   19  O           1     -22.912  -5.903  -5.451  0.00  0.00    -0.271 OA
HETATM   20  H           1     -19.986  -6.909  -4.930  0.00  0.00     0.163 HD
BRANCH  18  21
HETATM   21  C           1     -21.021  -5.144  -6.637  0.00  0.00     0.298 C 
BRANCH  21  22
HETATM   22  C           1     -22.057  -4.349  -7.422  0.00  0.00     0.224 C 
BRANCH  22  23
HETATM   23  O           1     -22.076  -4.790  -8.752  0.00  0.00    -0.287 OA
BRANCH  23  24
HETATM   24  P           1     -23.265  -4.204  -9.675  0.00  0.00     0.406 P 
HETATM   25  O           1     -23.910  -5.314 -10.411  0.00  0.00    -0.624 OA
HETATM   26  O           1     -22.706  -3.231 -10.640  0.00  0.00    -0.624 OA
BRANCH  24  27
HETATM   27  O           1     -24.359  -3.470  -8.742  0.00  0.00    -0.300 OA
HETATM   28  H           1     -24.998  -3.124  -9.342  0.00  0.00     0.223 HD
ENDBRANCH  24  27
ENDBRANCH  23  24
ENDBRANCH  22  23
ENDBRANCH  21  22
BRANCH  21  29
HETATM   29  N           1     -20.263  -6.038  -7.575  0.00  0.00    -0.064 N 
HETATM   30  H           1     -20.388  -7.034  -7.284  0.00  0.00     0.275 HD
HETATM   31  H           1     -20.628  -5.912  -8.546  0.00  0.00     0.275 HD
HETATM   32  H           1     -19.249  -5.791  -7.547  0.00  0.00     0.275 HD
ENDBRANCH  21  29
ENDBRANCH  18  21
ENDBRANCH   1  17
TORSDOF 12
ENDMDL
