MODEL 1
REMARK VINA RESULT:      -6.8      0.000      0.000
REMARK  5 active torsions:
REMARK  status: ('A' for Active; 'I' for Inactive)
REMARK    1  A    between atoms: C_2  and  C_17 
REMARK       I    between atoms: N_3  and  C_4 
REMARK    2  A    between atoms: C_4  and  C_11 
REMARK       I    between atoms: N_8  and  C_9 
REMARK    3  A    between atoms: C_9  and  C_10 
REMARK    4  A    between atoms: C_10  and  C_11 
REMARK    5  A    between atoms: C_11  and  N_12 
ROOT
HETATM    1  C           1     -35.905  -0.414 -13.637  0.00  0.00     0.283 C 
ENDROOT
BRANCH   1   2
HETATM    2  C           1     -35.125  -1.701 -13.746  0.00  0.00     0.251 C 
HETATM    3  N           1     -34.680  -2.330 -12.614  0.00  0.00    -0.336 N 
HETATM    4  C           1     -33.917  -3.572 -12.529  0.00  0.00     0.188 C 
HETATM    5  C           1     -34.867  -1.905 -11.230  0.00  0.00     0.127 C 
HETATM    6  C           1     -32.903  -3.298 -11.432  0.00  0.00     0.038 C 
HETATM    7  C           1     -33.529  -2.205 -10.575  0.00  0.00     0.022 C 
HETATM    8  O           1     -34.891  -2.176 -14.832  0.00  0.00    -0.271 OA
BRANCH   4   9
HETATM    9  C           1     -34.813  -4.727 -12.155  0.00  0.00     0.196 C 
HETATM   10  O           1     -35.321  -5.439 -13.048  0.00  0.00    -0.646 OA
HETATM   11  O           1     -35.049  -4.972 -10.951  0.00  0.00    -0.646 OA
ENDBRANCH   4   9
ENDBRANCH   1   2
BRANCH   1  12
HETATM   12  C           1     -37.113  -0.471 -14.563  0.00  0.00     0.145 C 
BRANCH  12  13
HETATM   13  C           1     -36.756   0.140 -15.895  0.00  0.00     0.217 C 
HETATM   14  O           1     -36.863   1.332 -16.062  0.00  0.00    -0.274 OA
HETATM   15  N           1     -36.310  -0.656 -16.916  0.00  0.00    -0.370 N 
HETATM   16  H           1     -36.071  -0.247 -17.810  0.00  0.00     0.159 HD
HETATM   17  H           1     -36.220  -1.654 -16.777  0.00  0.00     0.159 HD
ENDBRANCH  12  13
ENDBRANCH   1  12
BRANCH   1  18
HETATM   18  N           1     -35.027   0.737 -14.034  0.00  0.00    -0.066 N 
HETATM   19  H           1     -35.462   1.632 -13.716  0.00  0.00     0.275 HD
HETATM   20  H           1     -34.089   0.629 -13.586  0.00  0.00     0.275 HD
HETATM   21  H           1     -34.919   0.752 -15.072  0.00  0.00     0.275 HD
ENDBRANCH   1  18
TORSDOF 5
ENDMDL
MODEL 2
REMARK VINA RESULT:      -6.5      1.648      5.519
REMARK  5 active torsions:
REMARK  status: ('A' for Active; 'I' for Inactive)
REMARK    1  A    between atoms: C_2  and  C_17 
REMARK       I    between atoms: N_3  and  C_4 
REMARK    2  A    between atoms: C_4  and  C_11 
REMARK       I    between atoms: N_8  and  C_9 
REMARK    3  A    between atoms: C_9  and  C_10 
REMARK    4  A    between atoms: C_10  and  C_11 
REMARK    5  A    between atoms: C_11  and  N_12 
ROOT
HETATM    1  C           1     -34.345  -2.448 -11.635  0.00  0.00     0.283 C 
ENDROOT
BRANCH   1   2
HETATM    2  C           1     -34.846  -2.162 -13.030  0.00  0.00     0.251 C 
HETATM    3  N           1     -35.668  -1.091 -13.256  0.00  0.00    -0.336 N 
HETATM    4  C           1     -36.244  -0.665 -14.528  0.00  0.00     0.188 C 
HETATM    5  C           1     -36.159  -0.125 -12.277  0.00  0.00     0.127 C 
HETATM    6  C           1     -37.662  -0.257 -14.166  0.00  0.00     0.038 C 
HETATM    7  C           1     -37.605   0.102 -12.686  0.00  0.00     0.022 C 
HETATM    8  O           1     -34.522  -2.879 -13.947  0.00  0.00    -0.271 OA
BRANCH   4   9
HETATM    9  C           1     -35.479   0.504 -15.099  0.00  0.00     0.196 C 
HETATM   10  O           1     -36.062   1.335 -15.829  0.00  0.00    -0.646 OA
HETATM   11  O           1     -34.263   0.641 -14.844  0.00  0.00    -0.646 OA
ENDBRANCH   4   9
ENDBRANCH   1   2
BRANCH   1  12
HETATM   12  C           1     -33.294  -3.549 -11.688  0.00  0.00     0.145 C 
BRANCH  12  13
HETATM   13  C           1     -33.940  -4.877 -11.380  0.00  0.00     0.217 C 
HETATM   14  O           1     -34.023  -5.259 -10.237  0.00  0.00    -0.274 OA
HETATM   15  N           1     -34.432  -5.651 -12.397  0.00  0.00    -0.370 N 
HETATM   16  H           1     -34.865  -6.542 -12.191  0.00  0.00     0.159 HD
HETATM   17  H           1     -34.363  -5.331 -13.355  0.00  0.00     0.159 HD
ENDBRANCH  12  13
ENDBRANCH   1  12
BRANCH   1  18
HETATM   18  N           1     -35.491  -2.893 -10.775  0.00  0.00    -0.066 N 
HETATM   19  H           1     -36.132  -2.086 -10.603  0.00  0.00     0.275 HD
HETATM   20  H           1     -36.016  -3.654 -11.262  0.00  0.00     0.275 HD
HETATM   21  H           1     -35.126  -3.249  -9.864  0.00  0.00     0.275 HD
ENDBRANCH   1  18
TORSDOF 5
ENDMDL
MODEL 3
REMARK VINA RESULT:      -6.4     11.944     13.706
REMARK  5 active torsions:
REMARK  status: ('A' for Active; 'I' for Inactive)
REMARK    1  A    between atoms: C_2  and  C_17 
REMARK       I    between atoms: N_3  and  C_4 
REMARK    2  A    between atoms: C_4  and  C_11 
REMARK       I    between atoms: N_8  and  C_9 
REMARK    3  A    between atoms: C_9  and  C_10 
REMARK    4  A    between atoms: C_10  and  C_11 
REMARK    5  A    between atoms: C_11  and  N_12 
ROOT
HETATM    1  C           1     -22.480  -3.319 -11.158  0.00  0.00     0.283 C 
ENDROOT
BRANCH   1   2
HETATM    2  C           1     -22.546  -4.437 -10.147  0.00  0.00     0.251 C 
HETATM    3  N           1     -21.684  -4.450  -9.084  0.00  0.00    -0.336 N 
HETATM    4  C           1     -21.604  -5.443  -8.016  0.00  0.00     0.188 C 
HETATM    5  C           1     -20.645  -3.473  -8.770  0.00  0.00     0.127 C 
HETATM    6  C           1     -20.111  -5.622  -7.799  0.00  0.00     0.038 C 
HETATM    7  C           1     -19.481  -4.325  -8.291  0.00  0.00     0.022 C 
HETATM    8  O           1     -23.360  -5.321 -10.276  0.00  0.00    -0.271 OA
BRANCH   4   9
HETATM    9  C           1     -22.272  -4.937  -6.761  0.00  0.00     0.196 C 
HETATM   10  O           1     -21.650  -4.944  -5.677  0.00  0.00    -0.646 OA
HETATM   11  O           1     -23.447  -4.512  -6.805  0.00  0.00    -0.646 OA
ENDBRANCH   4   9
ENDBRANCH   1   2
BRANCH   1  12
HETATM   12  C           1     -23.892  -2.899 -11.545  0.00  0.00     0.145 C 
BRANCH  12  13
HETATM   13  C           1     -24.011  -2.855 -13.048  0.00  0.00     0.217 C 
HETATM   14  O           1     -24.243  -3.868 -13.666  0.00  0.00    -0.274 OA
HETATM   15  N           1     -23.854  -1.669 -13.713  0.00  0.00    -0.370 N 
HETATM   16  H           1     -23.933  -1.640 -14.722  0.00  0.00     0.159 HD
HETATM   17  H           1     -23.660  -0.821 -13.196  0.00  0.00     0.159 HD
ENDBRANCH  12  13
ENDBRANCH   1  12
BRANCH   1  18
HETATM   18  N           1     -21.749  -3.793 -12.379  0.00  0.00    -0.066 N 
HETATM   19  H           1     -20.794  -4.120 -12.108  0.00  0.00     0.275 HD
HETATM   20  H           1     -22.276  -4.583 -12.815  0.00  0.00     0.275 HD
HETATM   21  H           1     -21.667  -3.008 -13.063  0.00  0.00     0.275 HD
ENDBRANCH   1  18
TORSDOF 5
ENDMDL
MODEL 4
REMARK VINA RESULT:      -6.4     12.873     15.439
REMARK  5 active torsions:
REMARK  status: ('A' for Active; 'I' for Inactive)
REMARK    1  A    between atoms: C_2  and  C_17 
REMARK       I    between atoms: N_3  and  C_4 
REMARK    2  A    between atoms: C_4  and  C_11 
REMARK       I    between atoms: N_8  and  C_9 
REMARK    3  A    between atoms: C_9  and  C_10 
REMARK    4  A    between atoms: C_10  and  C_11 
REMARK    5  A    between atoms: C_11  and  N_12 
ROOT
HETATM    1  C           1     -21.508  -4.173  -7.041  0.00  0.00     0.283 C 
ENDROOT
BRANCH   1   2
HETATM    2  C           1     -21.280  -4.564  -8.480  0.00  0.00     0.251 C 
HETATM    3  N           1     -22.196  -4.219  -9.437  0.00  0.00    -0.336 N 
HETATM    4  C           1     -22.141  -4.510 -10.867  0.00  0.00     0.188 C 
HETATM    5  C           1     -23.441  -3.479  -9.250  0.00  0.00     0.127 C 
HETATM    6  C           1     -23.572  -4.877 -11.217  0.00  0.00     0.038 C 
HETATM    7  C           1     -24.428  -4.195 -10.156  0.00  0.00     0.022 C 
HETATM    8  O           1     -20.289  -5.183  -8.788  0.00  0.00    -0.271 OA
BRANCH   4   9
HETATM    9  C           1     -21.693  -3.297 -11.644  0.00  0.00     0.196 C 
HETATM   10  O           1     -22.382  -2.878 -12.600  0.00  0.00    -0.646 OA
HETATM   11  O           1     -20.632  -2.711 -11.335  0.00  0.00    -0.646 OA
ENDBRANCH   4   9
ENDBRANCH   1   2
BRANCH   1  12
HETATM   12  C           1     -20.279  -4.531  -6.215  0.00  0.00     0.145 C 
BRANCH  12  13
HETATM   13  C           1     -20.488  -5.871  -5.555  0.00  0.00     0.217 C 
HETATM   14  O           1     -21.036  -5.937  -4.480  0.00  0.00    -0.274 OA
HETATM   15  N           1     -20.057  -7.013  -6.174  0.00  0.00    -0.370 N 
HETATM   16  H           1     -20.197  -7.913  -5.732  0.00  0.00     0.159 HD
HETATM   17  H           1     -19.599  -6.959  -7.075  0.00  0.00     0.159 HD
ENDBRANCH  12  13
ENDBRANCH   1  12
BRANCH   1  18
HETATM   18  N           1     -22.700  -4.911  -6.506  0.00  0.00    -0.066 N 
HETATM   19  H           1     -22.472  -5.306  -5.566  0.00  0.00     0.275 HD
HETATM   20  H           1     -23.507  -4.254  -6.421  0.00  0.00     0.275 HD
HETATM   21  H           1     -22.950  -5.688  -7.158  0.00  0.00     0.275 HD
ENDBRANCH   1  18
TORSDOF 5
ENDMDL
MODEL 5
REMARK VINA RESULT:      -6.3      1.872      2.602
REMARK  5 active torsions:
REMARK  status: ('A' for Active; 'I' for Inactive)
REMARK    1  A    between atoms: C_2  and  C_17 
REMARK       I    between atoms: N_3  and  C_4 
REMARK    2  A    between atoms: C_4  and  C_11 
REMARK       I    between atoms: N_8  and  C_9 
REMARK    3  A    between atoms: C_9  and  C_10 
REMARK    4  A    between atoms: C_10  and  C_11 
REMARK    5  A    between atoms: C_11  and  N_12 
ROOT
HETATM    1  C           1     -35.450   0.019 -12.933  0.00  0.00     0.283 C 
ENDROOT
BRANCH   1   2
HETATM    2  C           1     -35.043  -1.383 -13.316  0.00  0.00     0.251 C 
HETATM    3  N           1     -34.504  -2.219 -12.376  0.00  0.00    -0.336 N 
HETATM    4  C           1     -34.056  -3.597 -12.564  0.00  0.00     0.188 C 
HETATM    5  C           1     -34.254  -1.930 -10.967  0.00  0.00     0.127 C 
HETATM    6  C           1     -32.776  -3.675 -11.750  0.00  0.00     0.038 C 
HETATM    7  C           1     -32.908  -2.581 -10.697  0.00  0.00     0.022 C 
HETATM    8  O           1     -35.191  -1.766 -14.452  0.00  0.00    -0.271 OA
BRANCH   4   9
HETATM    9  C           1     -35.084  -4.571 -12.042  0.00  0.00     0.196 C 
HETATM   10  O           1     -35.131  -5.733 -12.500  0.00  0.00    -0.646 OA
HETATM   11  O           1     -35.889  -4.216 -11.153  0.00  0.00    -0.646 OA
ENDBRANCH   4   9
ENDBRANCH   1   2
BRANCH   1  12
HETATM   12  C           1     -36.960   0.075 -12.739  0.00  0.00     0.145 C 
BRANCH  12  13
HETATM   13  C           1     -37.289  -0.132 -11.281  0.00  0.00     0.217 C 
HETATM   14  O           1     -38.074  -0.990 -10.955  0.00  0.00    -0.274 OA
HETATM   15  N           1     -36.697   0.652 -10.328  0.00  0.00    -0.370 N 
HETATM   16  H           1     -36.917   0.514  -9.350  0.00  0.00     0.159 HD
HETATM   17  H           1     -36.038   1.371 -10.602  0.00  0.00     0.159 HD
ENDBRANCH  12  13
ENDBRANCH   1  12
BRANCH   1  18
HETATM   18  N           1     -35.053   0.969 -14.024  0.00  0.00    -0.066 N 
HETATM   19  H           1     -34.528   1.774 -13.611  0.00  0.00     0.275 HD
HETATM   20  H           1     -34.443   0.474 -14.712  0.00  0.00     0.275 HD
HETATM   21  H           1     -35.909   1.323 -14.507  0.00  0.00     0.275 HD
ENDBRANCH   1  18
TORSDOF 5
ENDMDL
MODEL 6
REMARK VINA RESULT:      -6.2     11.540     12.828
REMARK  5 active torsions:
REMARK  status: ('A' for Active; 'I' for Inactive)
REMARK    1  A    between atoms: C_2  and  C_17 
REMARK       I    between atoms: N_3  and  C_4 
REMARK    2  A    between atoms: C_4  and  C_11 
REMARK       I    between atoms: N_8  and  C_9 
REMARK    3  A    between atoms: C_9  and  C_10 
REMARK    4  A    between atoms: C_10  and  C_11 
REMARK    5  A    between atoms: C_11  and  N_12 
ROOT
HETATM    1  C           1     -23.391  -3.810 -13.424  0.00  0.00     0.283 C 
ENDROOT
BRANCH   1   2
HETATM    2  C           1     -23.264  -4.508 -12.092  0.00  0.00     0.251 C 
HETATM    3  N           1     -22.324  -4.090 -11.188  0.00  0.00    -0.336 N 
HETATM    4  C           1     -22.060  -4.641  -9.862  0.00  0.00     0.188 C 
HETATM    5  C           1     -21.369  -2.996 -11.340  0.00  0.00     0.127 C 
HETATM    6  C           1     -20.545  -4.630  -9.761  0.00  0.00     0.038 C 
HETATM    7  C           1     -20.090  -3.545 -10.730  0.00  0.00     0.022 C 
HETATM    8  O           1     -23.990  -5.435 -11.824  0.00  0.00    -0.271 OA
BRANCH   4   9
HETATM    9  C           1     -22.676  -3.776  -8.789  0.00  0.00     0.196 C 
HETATM   10  O           1     -22.008  -3.463  -7.780  0.00  0.00    -0.646 OA
HETATM   11  O           1     -23.854  -3.374  -8.909  0.00  0.00    -0.646 OA
ENDBRANCH   4   9
ENDBRANCH   1   2
BRANCH   1  12
HETATM   12  C           1     -23.900  -2.390 -13.209  0.00  0.00     0.145 C 
BRANCH  12  13
HETATM   13  C           1     -23.757  -1.605 -14.488  0.00  0.00     0.217 C 
HETATM   14  O           1     -23.002  -1.987 -15.351  0.00  0.00    -0.274 OA
HETATM   15  N           1     -24.483  -0.458 -14.672  0.00  0.00    -0.370 N 
HETATM   16  H           1     -24.387   0.069 -15.530  0.00  0.00     0.159 HD
HETATM   17  H           1     -25.115  -0.138 -13.950  0.00  0.00     0.159 HD
ENDBRANCH  12  13
ENDBRANCH   1  12
BRANCH   1  18
HETATM   18  N           1     -24.361  -4.561 -14.290  0.00  0.00    -0.066 N 
HETATM   19  H           1     -24.163  -5.585 -14.227  0.00  0.00     0.275 HD
HETATM   20  H           1     -25.335  -4.374 -13.962  0.00  0.00     0.275 HD
HETATM   21  H           1     -24.259  -4.247 -15.281  0.00  0.00     0.275 HD
ENDBRANCH   1  18
TORSDOF 5
ENDMDL
MODEL 7
REMARK VINA RESULT:      -6.2      2.245      5.075
REMARK  5 active torsions:
REMARK  status: ('A' for Active; 'I' for Inactive)
REMARK    1  A    between atoms: C_2  and  C_17 
REMARK       I    between atoms: N_3  and  C_4 
REMARK    2  A    between atoms: C_4  and  C_11 
REMARK       I    between atoms: N_8  and  C_9 
REMARK    3  A    between atoms: C_9  and  C_10 
REMARK    4  A    between atoms: C_10  and  C_11 
REMARK    5  A    between atoms: C_11  and  N_12 
ROOT
HETATM    1  C           1     -36.269  -0.232 -11.395  0.00  0.00     0.283 C 
ENDROOT
BRANCH   1   2
HETATM    2  C           1     -36.913  -0.235 -12.760  0.00  0.00     0.251 C 
HETATM    3  N           1     -36.219   0.229 -13.845  0.00  0.00    -0.336 N 
HETATM    4  C           1     -36.679   0.301 -15.229  0.00  0.00     0.188 C 
HETATM    5  C           1     -34.859   0.757 -13.871  0.00  0.00     0.127 C 
HETATM    6  C           1     -36.145   1.636 -15.718  0.00  0.00     0.038 C 
HETATM    7  C           1     -34.945   1.935 -14.828  0.00  0.00     0.022 C 
HETATM    8  O           1     -38.042  -0.645 -12.894  0.00  0.00    -0.271 OA
BRANCH   4   9
HETATM    9  C           1     -36.110  -0.835 -16.044  0.00  0.00     0.196 C 
HETATM   10  O           1     -36.364  -0.916 -17.265  0.00  0.00    -0.646 OA
HETATM   11  O           1     -35.386  -1.695 -15.497  0.00  0.00    -0.646 OA
ENDBRANCH   4   9
ENDBRANCH   1   2
BRANCH   1  12
HETATM   12  C           1     -35.913  -1.659 -10.998  0.00  0.00     0.145 C 
BRANCH  12  13
HETATM   13  C           1     -34.513  -1.977 -11.460  0.00  0.00     0.217 C 
HETATM   14  O           1     -33.567  -1.678 -10.771  0.00  0.00    -0.274 OA
HETATM   15  N           1     -34.315  -2.604 -12.661  0.00  0.00    -0.370 N 
HETATM   16  H           1     -33.375  -2.817 -12.971  0.00  0.00     0.159 HD
HETATM   17  H           1     -35.107  -2.855 -13.238  0.00  0.00     0.159 HD
ENDBRANCH  12  13
ENDBRANCH   1  12
BRANCH   1  18
HETATM   18  N           1     -37.227   0.340 -10.392  0.00  0.00    -0.066 N 
HETATM   19  H           1     -36.707   0.957  -9.727  0.00  0.00     0.275 HD
HETATM   20  H           1     -37.956   0.901 -10.888  0.00  0.00     0.275 HD
HETATM   21  H           1     -37.683  -0.436  -9.863  0.00  0.00     0.275 HD
ENDBRANCH   1  18
TORSDOF 5
ENDMDL
MODEL 8
REMARK VINA RESULT:      -6.0     13.062     15.690
REMARK  5 active torsions:
REMARK  status: ('A' for Active; 'I' for Inactive)
REMARK    1  A    between atoms: C_2  and  C_17 
REMARK       I    between atoms: N_3  and  C_4 
REMARK    2  A    between atoms: C_4  and  C_11 
REMARK       I    between atoms: N_8  and  C_9 
REMARK    3  A    between atoms: C_9  and  C_10 
REMARK    4  A    between atoms: C_10  and  C_11 
REMARK    5  A    between atoms: C_11  and  N_12 
ROOT
HETATM    1  C           1     -20.796  -5.378  -7.377  0.00  0.00     0.283 C 
ENDROOT
BRANCH   1   2
HETATM    2  C           1     -21.823  -4.562  -8.124  0.00  0.00     0.251 C 
HETATM    3  N           1     -21.687  -4.360  -9.472  0.00  0.00    -0.336 N 
HETATM    4  C           1     -22.575  -3.603 -10.350  0.00  0.00     0.188 C 
HETATM    5  C           1     -20.624  -4.853 -10.342  0.00  0.00     0.127 C 
HETATM    6  C           1     -21.625  -2.858 -11.271  0.00  0.00     0.038 C 
HETATM    7  C           1     -20.343  -3.683 -11.269  0.00  0.00     0.022 C 
HETATM    8  O           1     -22.763  -4.086  -7.533  0.00  0.00    -0.271 OA
BRANCH   4   9
HETATM    9  C           1     -23.468  -4.531 -11.138  0.00  0.00     0.196 C 
HETATM   10  O           1     -23.676  -4.317 -12.351  0.00  0.00    -0.646 OA
HETATM   11  O           1     -24.001  -5.513 -10.576  0.00  0.00    -0.646 OA
ENDBRANCH   4   9
ENDBRANCH   1   2
BRANCH   1  12
HETATM   12  C           1     -21.433  -5.977  -6.129  0.00  0.00     0.145 C 
BRANCH  12  13
HETATM   13  C           1     -20.523  -7.036  -5.559  0.00  0.00     0.217 C 
HETATM   14  O           1     -19.649  -7.514  -6.242  0.00  0.00    -0.274 OA
HETATM   15  N           1     -20.688  -7.456  -4.266  0.00  0.00    -0.370 N 
HETATM   16  H           1     -20.077  -8.166  -3.883  0.00  0.00     0.159 HD
HETATM   17  H           1     -21.419  -7.056  -3.694  0.00  0.00     0.159 HD
ENDBRANCH  12  13
ENDBRANCH   1  12
BRANCH   1  18
HETATM   18  N           1     -19.651  -4.495  -6.978  0.00  0.00    -0.066 N 
HETATM   19  H           1     -19.690  -3.605  -7.525  0.00  0.00     0.275 HD
HETATM   20  H           1     -19.718  -4.278  -5.958  0.00  0.00     0.275 HD
HETATM   21  H           1     -18.749  -4.984  -7.173  0.00  0.00     0.275 HD
ENDBRANCH   1  18
TORSDOF 5
ENDMDL
MODEL 9
REMARK VINA RESULT:      -5.7     11.957     13.172
REMARK  5 active torsions:
REMARK  status: ('A' for Active; 'I' for Inactive)
REMARK    1  A    between atoms: C_2  and  C_17 
REMARK       I    between atoms: N_3  and  C_4 
REMARK    2  A    between atoms: C_4  and  C_11 
REMARK       I    between atoms: N_8  and  C_9 
REMARK    3  A    between atoms: C_9  and  C_10 
REMARK    4  A    between atoms: C_10  and  C_11 
REMARK    5  A    between atoms: C_11  and  N_12 
ROOT
HETATM    1  C           1     -22.848  -3.444 -12.925  0.00  0.00     0.283 C 
ENDROOT
BRANCH   1   2
HETATM    2  C           1     -22.083  -3.155 -11.657  0.00  0.00     0.251 C 
HETATM    3  N           1     -22.406  -3.809 -10.498  0.00  0.00    -0.336 N 
HETATM    4  C           1     -21.780  -3.658  -9.188  0.00  0.00     0.188 C 
HETATM    5  C           1     -23.452  -4.810 -10.304  0.00  0.00     0.127 C 
HETATM    6  C           1     -22.951  -3.691  -8.221  0.00  0.00     0.038 C 
HETATM    7  C           1     -24.050  -4.452  -8.954  0.00  0.00     0.022 C 
HETATM    8  O           1     -21.185  -2.346 -11.663  0.00  0.00    -0.271 OA
BRANCH   4   9
HETATM    9  C           1     -20.827  -4.796  -8.914  0.00  0.00     0.196 C 
HETATM   10  O           1     -20.980  -5.508  -7.898  0.00  0.00    -0.646 OA
HETATM   11  O           1     -19.884  -5.026  -9.703  0.00  0.00    -0.646 OA
ENDBRANCH   4   9
ENDBRANCH   1   2
BRANCH   1  12
HETATM   12  C           1     -23.792  -2.286 -13.224  0.00  0.00     0.145 C 
BRANCH  12  13
HETATM   13  C           1     -23.517  -1.758 -14.610  0.00  0.00     0.217 C 
HETATM   14  O           1     -22.760  -2.349 -15.343  0.00  0.00    -0.274 OA
HETATM   15  N           1     -24.125  -0.608 -15.037  0.00  0.00    -0.370 N 
HETATM   16  H           1     -23.940  -0.253 -15.966  0.00  0.00     0.159 HD
HETATM   17  H           1     -24.759  -0.112 -14.423  0.00  0.00     0.159 HD
ENDBRANCH  12  13
ENDBRANCH   1  12
BRANCH   1  18
HETATM   18  N           1     -23.644  -4.704 -12.751  0.00  0.00    -0.066 N 
HETATM   19  H           1     -23.013  -5.531 -12.856  0.00  0.00     0.275 HD
HETATM   20  H           1     -24.075  -4.714 -11.800  0.00  0.00     0.275 HD
HETATM   21  H           1     -24.394  -4.745 -13.476  0.00  0.00     0.275 HD
ENDBRANCH   1  18
TORSDOF 5
ENDMDL
