MODEL 1
REMARK VINA RESULT:      -8.7      0.000      0.000
REMARK  10 active torsions:
REMARK  status: ('A' for Active; 'I' for Inactive)
REMARK    1  A    between atoms: C_3  and  C_13 
REMARK    2  A    between atoms: C_3  and  C_20 
REMARK    3  A    between atoms: C_4  and  C_22 
REMARK    4  A    between atoms: C_4  and  O_5 
REMARK    5  A    between atoms: O_5  and  P_10 
REMARK    6  A    between atoms: N_6  and  C_13 
REMARK    7  A    between atoms: P_10  and  O_11 
REMARK    8  A    between atoms: C_13  and  C_19 
REMARK    9  A    between atoms: C_16  and  C_22 
REMARK   10  A    between atoms: N_18  and  C_22 
REMARK       I    between atoms: N_18  and  C_19 
ROOT
HETATM    1  C           1     -20.960  -5.346  -6.658  0.00  0.00     0.278 C 
ENDROOT
BRANCH   1   2
HETATM    2  C           1     -22.015  -5.862  -5.689  0.00  0.00     0.083 C 
BRANCH   2   3
HETATM    3  C           1     -21.419  -6.930  -4.824  0.00  0.00    -0.028 A 
HETATM    4  C           1     -21.567  -7.045  -3.414  0.00  0.00    -0.002 A 
HETATM    5  C           1     -20.852  -8.176  -3.017  0.00  0.00     0.042 A 
HETATM    6  C           1     -22.244  -6.294  -2.434  0.00  0.00     0.014 A 
HETATM    7  N           1     -20.293  -8.719  -4.153  0.00  0.00    -0.365 N 
HETATM    8  C           1     -20.779  -8.594  -1.684  0.00  0.00     0.030 A 
HETATM    9  H           1     -19.695  -9.582  -4.173  0.00  0.00     0.165 HD
HETATM   10  C           1     -20.631  -7.973  -5.250  0.00  0.00     0.096 A 
HETATM   11  C           1     -21.459  -7.831  -0.729  0.00  0.00     0.002 A 
HETATM   12  C           1     -22.181  -6.699  -1.095  0.00  0.00     0.001 A 
ENDBRANCH   2   3
ENDBRANCH   1   2
BRANCH   1  13
HETATM   13  N           1     -19.807  -4.779  -5.886  0.00  0.00    -0.066 N 
HETATM   14  H           1     -19.714  -3.759  -6.092  0.00  0.00     0.275 HD
HETATM   15  H           1     -19.974  -4.912  -4.862  0.00  0.00     0.275 HD
HETATM   16  H           1     -18.927  -5.272  -6.162  0.00  0.00     0.275 HD
ENDBRANCH   1  13
BRANCH   1  17
HETATM   17  C           1     -21.560  -4.269  -7.529  0.00  0.00     0.249 C 
HETATM   18  O           1     -21.475  -3.109  -7.200  0.00  0.00    -0.271 OA
HETATM   19  N           1     -22.201  -4.606  -8.691  0.00  0.00    -0.343 N 
HETATM   20  H           1     -22.272  -5.577  -8.965  0.00  0.00     0.163 HD
BRANCH  19  21
HETATM   21  C           1     -22.777  -3.572  -9.528  0.00  0.00     0.210 C 
BRANCH  21  22
HETATM   22  C           1     -22.156  -3.639 -10.917  0.00  0.00     0.217 C 
BRANCH  22  23
HETATM   23  O           1     -22.719  -2.645 -11.729  0.00  0.00    -0.287 OA
BRANCH  23  24
HETATM   24  P           1     -23.546  -3.166 -13.015  0.00  0.00     0.406 P 
HETATM   25  O           1     -22.798  -2.838 -14.250  0.00  0.00    -0.624 OA
HETATM   26  O           1     -24.870  -2.505 -13.051  0.00  0.00    -0.624 OA
BRANCH  24  27
HETATM   27  O           1     -23.745  -4.766 -12.916  0.00  0.00    -0.300 OA
HETATM   28  H           1     -23.321  -5.113 -13.681  0.00  0.00     0.223 HD
ENDBRANCH  24  27
ENDBRANCH  23  24
ENDBRANCH  22  23
ENDBRANCH  21  22
BRANCH  21  29
HETATM   29  C           1     -24.267  -3.780  -9.633  0.00  0.00     0.198 C 
HETATM   30  O           1     -25.047  -2.825  -9.427  0.00  0.00    -0.646 OA
HETATM   31  O           1     -24.722  -4.907  -9.924  0.00  0.00    -0.646 OA
ENDBRANCH  21  29
ENDBRANCH  19  21
ENDBRANCH   1  17
TORSDOF 10
ENDMDL
MODEL 2
REMARK VINA RESULT:      -8.1      5.189      8.995
REMARK  10 active torsions:
REMARK  status: ('A' for Active; 'I' for Inactive)
REMARK    1  A    between atoms: C_3  and  C_13 
REMARK    2  A    between atoms: C_3  and  C_20 
REMARK    3  A    between atoms: C_4  and  C_22 
REMARK    4  A    between atoms: C_4  and  O_5 
REMARK    5  A    between atoms: O_5  and  P_10 
REMARK    6  A    between atoms: N_6  and  C_13 
REMARK    7  A    between atoms: P_10  and  O_11 
REMARK    8  A    between atoms: C_13  and  C_19 
REMARK    9  A    between atoms: C_16  and  C_22 
REMARK   10  A    between atoms: N_18  and  C_22 
REMARK       I    between atoms: N_18  and  C_19 
ROOT
HETATM    1  C           1     -20.854  -5.506  -6.145  0.00  0.00     0.278 C 
ENDROOT
BRANCH   1   2
HETATM    2  C           1     -20.683  -5.320  -7.646  0.00  0.00     0.083 C 
BRANCH   2   3
HETATM    3  C           1     -21.916  -4.692  -8.217  0.00  0.00    -0.028 A 
HETATM    4  C           1     -22.089  -4.250  -9.557  0.00  0.00    -0.002 A 
HETATM    5  C           1     -23.381  -3.731  -9.656  0.00  0.00     0.042 A 
HETATM    6  C           1     -21.266  -4.242 -10.701  0.00  0.00     0.014 A 
HETATM    7  N           1     -23.962  -3.858  -8.415  0.00  0.00    -0.365 N 
HETATM    8  C           1     -23.893  -3.202 -10.847  0.00  0.00     0.030 A 
HETATM    9  H           1     -24.939  -3.554  -8.176  0.00  0.00     0.165 HD
HETATM   10  C           1     -23.085  -4.437  -7.537  0.00  0.00     0.096 A 
HETATM   11  C           1     -23.057  -3.206 -11.968  0.00  0.00     0.002 A 
HETATM   12  C           1     -21.764  -3.717 -11.899  0.00  0.00     0.001 A 
ENDBRANCH   2   3
ENDBRANCH   1   2
BRANCH   1  13
HETATM   13  N           1     -20.088  -4.441  -5.419  0.00  0.00    -0.066 N 
HETATM   14  H           1     -19.229  -4.857  -4.992  0.00  0.00     0.275 HD
HETATM   15  H           1     -19.812  -3.691  -6.093  0.00  0.00     0.275 HD
HETATM   16  H           1     -20.687  -4.032  -4.667  0.00  0.00     0.275 HD
ENDBRANCH   1  13
BRANCH   1  17
HETATM   17  C           1     -20.333  -6.864  -5.742  0.00  0.00     0.249 C 
HETATM   18  O           1     -19.516  -7.426  -6.432  0.00  0.00    -0.271 OA
HETATM   19  N           1     -20.786  -7.459  -4.595  0.00  0.00    -0.343 N 
HETATM   20  H           1     -21.471  -6.988  -4.018  0.00  0.00     0.163 HD
BRANCH  19  21
HETATM   21  C           1     -20.285  -8.763  -4.208  0.00  0.00     0.210 C 
BRANCH  21  22
HETATM   22  C           1     -20.191  -8.840  -2.690  0.00  0.00     0.217 C 
BRANCH  22  23
HETATM   23  O           1     -20.872  -7.755  -2.123  0.00  0.00    -0.287 OA
BRANCH  23  24
HETATM   24  P           1     -21.822  -8.095  -0.862  0.00  0.00     0.406 P 
HETATM   25  O           1     -22.794  -6.995  -0.665  0.00  0.00    -0.624 OA
HETATM   26  O           1     -20.993  -8.244   0.354  0.00  0.00    -0.624 OA
BRANCH  24  27
HETATM   27  O           1     -22.619  -9.471  -1.144  0.00  0.00    -0.300 OA
HETATM   28  H           1     -22.502  -9.638  -2.063  0.00  0.00     0.223 HD
ENDBRANCH  24  27
ENDBRANCH  23  24
ENDBRANCH  22  23
ENDBRANCH  21  22
BRANCH  21  29
HETATM   29  C           1     -21.225  -9.833  -4.708  0.00  0.00     0.198 C 
HETATM   30  O           1     -22.119 -10.279  -3.957  0.00  0.00    -0.646 OA
HETATM   31  O           1     -21.108 -10.273  -5.872  0.00  0.00    -0.646 OA
ENDBRANCH  21  29
ENDBRANCH  19  21
ENDBRANCH   1  17
TORSDOF 10
ENDMDL
MODEL 3
REMARK VINA RESULT:      -7.8      5.129      9.227
REMARK  10 active torsions:
REMARK  status: ('A' for Active; 'I' for Inactive)
REMARK    1  A    between atoms: C_3  and  C_13 
REMARK    2  A    between atoms: C_3  and  C_20 
REMARK    3  A    between atoms: C_4  and  C_22 
REMARK    4  A    between atoms: C_4  and  O_5 
REMARK    5  A    between atoms: O_5  and  P_10 
REMARK    6  A    between atoms: N_6  and  C_13 
REMARK    7  A    between atoms: P_10  and  O_11 
REMARK    8  A    between atoms: C_13  and  C_19 
REMARK    9  A    between atoms: C_16  and  C_22 
REMARK   10  A    between atoms: N_18  and  C_22 
REMARK       I    between atoms: N_18  and  C_19 
ROOT
HETATM    1  C           1     -22.186  -5.164  -6.718  0.00  0.00     0.278 C 
ENDROOT
BRANCH   1   2
HETATM    2  C           1     -21.551  -3.899  -7.280  0.00  0.00     0.083 C 
BRANCH   2   3
HETATM    3  C           1     -21.368  -4.046  -8.759  0.00  0.00    -0.028 A 
HETATM    4  C           1     -22.361  -3.823  -9.752  0.00  0.00    -0.002 A 
HETATM    5  C           1     -21.768  -4.073 -10.990  0.00  0.00     0.042 A 
HETATM    6  C           1     -23.713  -3.431  -9.716  0.00  0.00     0.014 A 
HETATM    7  N           1     -20.461  -4.435 -10.746  0.00  0.00    -0.365 N 
HETATM    8  C           1     -22.462  -3.950 -12.199  0.00  0.00     0.030 A 
HETATM    9  H           1     -19.760  -4.684 -11.486  0.00  0.00     0.165 HD
HETATM   10  C           1     -20.210  -4.421  -9.399  0.00  0.00     0.096 A 
HETATM   11  C           1     -23.803  -3.560 -12.137  0.00  0.00     0.002 A 
HETATM   12  C           1     -24.422  -3.303 -10.917  0.00  0.00     0.001 A 
ENDBRANCH   2   3
ENDBRANCH   1   2
BRANCH   1  13
HETATM   13  N           1     -23.627  -4.900  -6.399  0.00  0.00    -0.066 N 
HETATM   14  H           1     -23.840  -5.242  -5.435  0.00  0.00     0.275 HD
HETATM   15  H           1     -23.812  -3.872  -6.452  0.00  0.00     0.275 HD
HETATM   16  H           1     -24.233  -5.400  -7.088  0.00  0.00     0.275 HD
ENDBRANCH   1  13
BRANCH   1  17
HETATM   17  C           1     -21.460  -5.577  -5.461  0.00  0.00     0.249 C 
HETATM   18  O           1     -20.431  -5.026  -5.149  0.00  0.00    -0.271 OA
HETATM   19  N           1     -21.968  -6.576  -4.674  0.00  0.00    -0.343 N 
HETATM   20  H           1     -22.829  -7.038  -4.936  0.00  0.00     0.163 HD
BRANCH  19  21
HETATM   21  C           1     -21.270  -6.972  -3.466  0.00  0.00     0.210 C 
BRANCH  21  22
HETATM   22  C           1     -22.209  -6.845  -2.273  0.00  0.00     0.217 C 
BRANCH  22  23
HETATM   23  O           1     -21.539  -7.238  -1.107  0.00  0.00    -0.287 OA
BRANCH  23  24
HETATM   24  P           1     -22.370  -8.185  -0.097  0.00  0.00     0.406 P 
HETATM   25  O           1     -21.552  -8.466   1.104  0.00  0.00    -0.624 OA
HETATM   26  O           1     -22.704  -9.457  -0.776  0.00  0.00    -0.624 OA
BRANCH  24  27
HETATM   27  O           1     -23.732  -7.437   0.344  0.00  0.00    -0.300 OA
HETATM   28  H           1     -23.959  -6.890  -0.388  0.00  0.00     0.223 HD
ENDBRANCH  24  27
ENDBRANCH  23  24
ENDBRANCH  22  23
ENDBRANCH  21  22
BRANCH  21  29
HETATM   29  C           1     -20.813  -8.405  -3.595  0.00  0.00     0.198 C 
HETATM   30  O           1     -21.633  -9.297  -3.900  0.00  0.00    -0.646 OA
HETATM   31  O           1     -19.615  -8.699  -3.396  0.00  0.00    -0.646 OA
ENDBRANCH  21  29
ENDBRANCH  19  21
ENDBRANCH   1  17
TORSDOF 10
ENDMDL
MODEL 4
REMARK VINA RESULT:      -7.7      4.875      8.670
REMARK  10 active torsions:
REMARK  status: ('A' for Active; 'I' for Inactive)
REMARK    1  A    between atoms: C_3  and  C_13 
REMARK    2  A    between atoms: C_3  and  C_20 
REMARK    3  A    between atoms: C_4  and  C_22 
REMARK    4  A    between atoms: C_4  and  O_5 
REMARK    5  A    between atoms: O_5  and  P_10 
REMARK    6  A    between atoms: N_6  and  C_13 
REMARK    7  A    between atoms: P_10  and  O_11 
REMARK    8  A    between atoms: C_13  and  C_19 
REMARK    9  A    between atoms: C_16  and  C_22 
REMARK   10  A    between atoms: N_18  and  C_22 
REMARK       I    between atoms: N_18  and  C_19 
ROOT
HETATM    1  C           1     -21.148  -5.243  -5.627  0.00  0.00     0.278 C 
ENDROOT
BRANCH   1   2
HETATM    2  C           1     -20.960  -5.584  -7.099  0.00  0.00     0.083 C 
BRANCH   2   3
HETATM    3  C           1     -21.965  -4.835  -7.918  0.00  0.00    -0.028 A 
HETATM    4  C           1     -21.783  -4.374  -9.251  0.00  0.00    -0.002 A 
HETATM    5  C           1     -22.963  -3.730  -9.628  0.00  0.00     0.042 A 
HETATM    6  C           1     -20.724  -4.442 -10.177  0.00  0.00     0.014 A 
HETATM    7  N           1     -23.823  -3.803  -8.555  0.00  0.00    -0.365 N 
HETATM    8  C           1     -23.137  -3.149 -10.889  0.00  0.00     0.030 A 
HETATM    9  H           1     -24.795  -3.406  -8.537  0.00  0.00     0.165 HD
HETATM   10  C           1     -23.229  -4.470  -7.516  0.00  0.00     0.096 A 
HETATM   11  C           1     -22.071  -3.230 -11.791  0.00  0.00     0.002 A 
HETATM   12  C           1     -20.882  -3.866 -11.443  0.00  0.00     0.001 A 
ENDBRANCH   2   3
ENDBRANCH   1   2
BRANCH   1  13
HETATM   13  N           1     -19.917  -4.557  -5.113  0.00  0.00    -0.066 N 
HETATM   14  H           1     -19.166  -5.265  -4.946  0.00  0.00     0.275 HD
HETATM   15  H           1     -19.587  -3.860  -5.818  0.00  0.00     0.275 HD
HETATM   16  H           1     -20.140  -4.069  -4.216  0.00  0.00     0.275 HD
ENDBRANCH   1  13
BRANCH   1  17
HETATM   17  C           1     -21.384  -6.510  -4.842  0.00  0.00     0.249 C 
HETATM   18  O           1     -21.806  -7.495  -5.398  0.00  0.00    -0.271 OA
HETATM   19  N           1     -21.119  -6.542  -3.499  0.00  0.00    -0.343 N 
HETATM   20  H           1     -20.766  -5.716  -3.033  0.00  0.00     0.163 HD
BRANCH  19  21
HETATM   21  C           1     -21.345  -7.760  -2.745  0.00  0.00     0.210 C 
BRANCH  21  22
HETATM   22  C           1     -20.047  -8.553  -2.660  0.00  0.00     0.217 C 
BRANCH  22  23
HETATM   23  O           1     -20.104  -9.639  -3.544  0.00  0.00    -0.287 OA
BRANCH  23  24
HETATM   24  P           1     -18.873  -9.774  -4.580  0.00  0.00     0.406 P 
HETATM   25  O           1     -18.805 -11.163  -5.088  0.00  0.00    -0.624 OA
HETATM   26  O           1     -17.607  -9.440  -3.888  0.00  0.00    -0.624 OA
BRANCH  24  27
HETATM   27  O           1     -19.095  -8.760  -5.817  0.00  0.00    -0.300 OA
HETATM   28  H           1     -18.460  -8.077  -5.689  0.00  0.00     0.223 HD
ENDBRANCH  24  27
ENDBRANCH  23  24
ENDBRANCH  22  23
ENDBRANCH  21  22
BRANCH  21  29
HETATM   29  C           1     -21.812  -7.411  -1.353  0.00  0.00     0.198 C 
HETATM   30  O           1     -21.349  -8.025  -0.367  0.00  0.00    -0.646 OA
HETATM   31  O           1     -22.661  -6.510  -1.186  0.00  0.00    -0.646 OA
ENDBRANCH  21  29
ENDBRANCH  19  21
ENDBRANCH   1  17
TORSDOF 10
ENDMDL
MODEL 5
REMARK VINA RESULT:      -7.3      5.472      9.081
REMARK  10 active torsions:
REMARK  status: ('A' for Active; 'I' for Inactive)
REMARK    1  A    between atoms: C_3  and  C_13 
REMARK    2  A    between atoms: C_3  and  C_20 
REMARK    3  A    between atoms: C_4  and  C_22 
REMARK    4  A    between atoms: C_4  and  O_5 
REMARK    5  A    between atoms: O_5  and  P_10 
REMARK    6  A    between atoms: N_6  and  C_13 
REMARK    7  A    between atoms: P_10  and  O_11 
REMARK    8  A    between atoms: C_13  and  C_19 
REMARK    9  A    between atoms: C_16  and  C_22 
REMARK   10  A    between atoms: N_18  and  C_22 
REMARK       I    between atoms: N_18  and  C_19 
ROOT
HETATM    1  C           1     -21.371  -6.149  -5.470  0.00  0.00     0.278 C 
ENDROOT
BRANCH   1   2
HETATM    2  C           1     -20.777  -5.046  -6.336  0.00  0.00     0.083 C 
BRANCH   2   3
HETATM    3  C           1     -21.787  -4.608  -7.352  0.00  0.00    -0.028 A 
HETATM    4  C           1     -21.522  -4.278  -8.709  0.00  0.00    -0.002 A 
HETATM    5  C           1     -22.740  -3.926  -9.292  0.00  0.00     0.042 A 
HETATM    6  C           1     -20.357  -4.244  -9.500  0.00  0.00     0.014 A 
HETATM    7  N           1     -23.704  -4.042  -8.315  0.00  0.00    -0.365 N 
HETATM    8  C           1     -22.853  -3.541 -10.633  0.00  0.00     0.030 A 
HETATM    9  H           1     -24.725  -3.844  -8.454  0.00  0.00     0.165 HD
HETATM   10  C           1     -23.137  -4.454  -7.138  0.00  0.00     0.096 A 
HETATM   11  C           1     -21.682  -3.515 -11.398  0.00  0.00     0.002 A 
HETATM   12  C           1     -20.453  -3.861 -10.844  0.00  0.00     0.001 A 
ENDBRANCH   2   3
ENDBRANCH   1   2
BRANCH   1  13
HETATM   13  N           1     -21.385  -5.706  -4.038  0.00  0.00    -0.066 N 
HETATM   14  H           1     -22.286  -5.218  -3.832  0.00  0.00     0.275 HD
HETATM   15  H           1     -21.291  -6.540  -3.414  0.00  0.00     0.275 HD
HETATM   16  H           1     -20.588  -5.051  -3.868  0.00  0.00     0.275 HD
ENDBRANCH   1  13
BRANCH   1  17
HETATM   17  C           1     -20.535  -7.398  -5.602  0.00  0.00     0.249 C 
HETATM   18  O           1     -19.626  -7.436  -6.397  0.00  0.00    -0.271 OA
HETATM   19  N           1     -20.807  -8.489  -4.821  0.00  0.00    -0.343 N 
HETATM   20  H           1     -21.569  -8.458  -4.157  0.00  0.00     0.163 HD
BRANCH  19  21
HETATM   21  C           1     -20.004  -9.690  -4.948  0.00  0.00     0.210 C 
BRANCH  21  22
HETATM   22  C           1     -19.439 -10.068  -3.585  0.00  0.00     0.217 C 
BRANCH  22  23
HETATM   23  O           1     -18.333  -9.258  -3.295  0.00  0.00    -0.287 OA
BRANCH  23  24
HETATM   24  P           1     -16.947 -10.030  -2.997  0.00  0.00     0.406 P 
HETATM   25  O           1     -16.549 -10.810  -4.191  0.00  0.00    -0.624 OA
HETATM   26  O           1     -17.131 -10.947  -1.849  0.00  0.00    -0.624 OA
BRANCH  24  27
HETATM   27  O           1     -15.794  -8.954  -2.649  0.00  0.00    -0.300 OA
HETATM   28  H           1     -16.214  -8.317  -2.097  0.00  0.00     0.223 HD
ENDBRANCH  24  27
ENDBRANCH  23  24
ENDBRANCH  22  23
ENDBRANCH  21  22
BRANCH  21  29
HETATM   29  C           1     -20.861 -10.818  -5.467  0.00  0.00     0.198 C 
HETATM   30  O           1     -20.803 -11.142  -6.673  0.00  0.00    -0.646 OA
HETATM   31  O           1     -21.629 -11.427  -4.692  0.00  0.00    -0.646 OA
ENDBRANCH  21  29
ENDBRANCH  19  21
ENDBRANCH   1  17
TORSDOF 10
ENDMDL
MODEL 6
REMARK VINA RESULT:      -7.2      5.319      8.789
REMARK  10 active torsions:
REMARK  status: ('A' for Active; 'I' for Inactive)
REMARK    1  A    between atoms: C_3  and  C_13 
REMARK    2  A    between atoms: C_3  and  C_20 
REMARK    3  A    between atoms: C_4  and  C_22 
REMARK    4  A    between atoms: C_4  and  O_5 
REMARK    5  A    between atoms: O_5  and  P_10 
REMARK    6  A    between atoms: N_6  and  C_13 
REMARK    7  A    between atoms: P_10  and  O_11 
REMARK    8  A    between atoms: C_13  and  C_19 
REMARK    9  A    between atoms: C_16  and  C_22 
REMARK   10  A    between atoms: N_18  and  C_22 
REMARK       I    between atoms: N_18  and  C_19 
ROOT
HETATM    1  C           1     -21.628  -6.564  -5.212  0.00  0.00     0.278 C 
ENDROOT
BRANCH   1   2
HETATM    2  C           1     -20.803  -5.796  -6.235  0.00  0.00     0.083 C 
BRANCH   2   3
HETATM    3  C           1     -21.718  -5.087  -7.185  0.00  0.00    -0.028 A 
HETATM    4  C           1     -21.404  -4.694  -8.515  0.00  0.00    -0.002 A 
HETATM    5  C           1     -22.537  -4.068  -9.037  0.00  0.00     0.042 A 
HETATM    6  C           1     -20.260  -4.811  -9.329  0.00  0.00     0.014 A 
HETATM    7  N           1     -23.498  -4.085  -8.051  0.00  0.00    -0.365 N 
HETATM    8  C           1     -22.584  -3.551 -10.337  0.00  0.00     0.030 A 
HETATM    9  H           1     -24.464  -3.685  -8.148  0.00  0.00     0.165 HD
HETATM   10  C           1     -23.012  -4.700  -6.927  0.00  0.00     0.096 A 
HETATM   11  C           1     -21.435  -3.680 -11.125  0.00  0.00     0.002 A 
HETATM   12  C           1     -20.290  -4.300 -10.631  0.00  0.00     0.001 A 
ENDBRANCH   2   3
ENDBRANCH   1   2
BRANCH   1  13
HETATM   13  N           1     -21.654  -5.804  -3.920  0.00  0.00    -0.066 N 
HETATM   14  H           1     -20.749  -5.297  -3.794  0.00  0.00     0.275 HD
HETATM   15  H           1     -22.439  -5.114  -3.937  0.00  0.00     0.275 HD
HETATM   16  H           1     -21.792  -6.471  -3.126  0.00  0.00     0.275 HD
ENDBRANCH   1  13
BRANCH   1  17
HETATM   17  C           1     -21.011  -7.923  -4.984  0.00  0.00     0.249 C 
HETATM   18  O           1     -21.020  -8.746  -5.868  0.00  0.00    -0.271 OA
HETATM   19  N           1     -20.440  -8.221  -3.776  0.00  0.00    -0.343 N 
HETATM   20  H           1     -20.433  -7.532  -3.036  0.00  0.00     0.163 HD
BRANCH  19  21
HETATM   21  C           1     -19.847  -9.526  -3.558  0.00  0.00     0.210 C 
BRANCH  21  22
HETATM   22  C           1     -18.329  -9.411  -3.623  0.00  0.00     0.217 C 
BRANCH  22  23
HETATM   23  O           1     -17.804 -10.522  -4.294  0.00  0.00    -0.287 OA
BRANCH  23  24
HETATM   24  P           1     -17.174 -10.236  -5.753  0.00  0.00     0.406 P 
HETATM   25  O           1     -17.137 -11.495  -6.532  0.00  0.00    -0.624 OA
HETATM   26  O           1     -15.799  -9.709  -5.602  0.00  0.00    -0.624 OA
BRANCH  24  27
HETATM   27  O           1     -18.085  -9.151  -6.529  0.00  0.00    -0.300 OA
HETATM   28  H           1     -18.230  -8.462  -5.904  0.00  0.00     0.223 HD
ENDBRANCH  24  27
ENDBRANCH  23  24
ENDBRANCH  22  23
ENDBRANCH  21  22
BRANCH  21  29
HETATM   29  C           1     -20.253 -10.044  -2.200  0.00  0.00     0.198 C 
HETATM   30  O           1     -21.352  -9.709  -1.707  0.00  0.00    -0.646 OA
HETATM   31  O           1     -19.491 -10.806  -1.568  0.00  0.00    -0.646 OA
ENDBRANCH  21  29
ENDBRANCH  19  21
ENDBRANCH   1  17
TORSDOF 10
ENDMDL
MODEL 7
REMARK VINA RESULT:      -7.2      4.488      8.143
REMARK  10 active torsions:
REMARK  status: ('A' for Active; 'I' for Inactive)
REMARK    1  A    between atoms: C_3  and  C_13 
REMARK    2  A    between atoms: C_3  and  C_20 
REMARK    3  A    between atoms: C_4  and  C_22 
REMARK    4  A    between atoms: C_4  and  O_5 
REMARK    5  A    between atoms: O_5  and  P_10 
REMARK    6  A    between atoms: N_6  and  C_13 
REMARK    7  A    between atoms: P_10  and  O_11 
REMARK    8  A    between atoms: C_13  and  C_19 
REMARK    9  A    between atoms: C_16  and  C_22 
REMARK   10  A    between atoms: N_18  and  C_22 
REMARK       I    between atoms: N_18  and  C_19 
ROOT
HETATM    1  C           1     -20.293  -5.412  -6.185  0.00  0.00     0.278 C 
ENDROOT
BRANCH   1   2
HETATM    2  C           1     -20.905  -4.118  -6.707  0.00  0.00     0.083 C 
BRANCH   2   3
HETATM    3  C           1     -20.941  -4.151  -8.203  0.00  0.00    -0.028 A 
HETATM    4  C           1     -22.109  -4.197  -9.012  0.00  0.00    -0.002 A 
HETATM    5  C           1     -21.688  -4.214 -10.343  0.00  0.00     0.042 A 
HETATM    6  C           1     -23.491  -4.226  -8.739  0.00  0.00     0.014 A 
HETATM    7  N           1     -20.311  -4.180 -10.330  0.00  0.00    -0.365 N 
HETATM    8  C           1     -22.582  -4.260 -11.418  0.00  0.00     0.030 A 
HETATM    9  H           1     -19.704  -4.182 -11.187  0.00  0.00     0.165 HD
HETATM   10  C           1     -19.850  -4.141  -9.041  0.00  0.00     0.096 A 
HETATM   11  C           1     -23.949  -4.288 -11.121  0.00  0.00     0.002 A 
HETATM   12  C           1     -24.399  -4.271  -9.804  0.00  0.00     0.001 A 
ENDBRANCH   2   3
ENDBRANCH   1   2
BRANCH   1  13
HETATM   13  N           1     -19.978  -6.316  -7.338  0.00  0.00    -0.066 N 
HETATM   14  H           1     -20.141  -7.310  -7.058  0.00  0.00     0.275 HD
HETATM   15  H           1     -20.597  -6.077  -8.147  0.00  0.00     0.275 HD
HETATM   16  H           1     -18.978  -6.191  -7.615  0.00  0.00     0.275 HD
ENDBRANCH   1  13
BRANCH   1  17
HETATM   17  C           1     -21.271  -6.096  -5.261  0.00  0.00     0.249 C 
HETATM   18  O           1     -22.454  -5.870  -5.359  0.00  0.00    -0.271 OA
HETATM   19  N           1     -20.817  -6.972  -4.312  0.00  0.00    -0.343 N 
HETATM   20  H           1     -19.827  -7.161  -4.230  0.00  0.00     0.163 HD
BRANCH  19  21
HETATM   21  C           1     -21.757  -7.630  -3.425  0.00  0.00     0.210 C 
BRANCH  21  22
HETATM   22  C           1     -21.363  -9.092  -3.262  0.00  0.00     0.217 C 
BRANCH  22  23
HETATM   23  O           1     -21.801  -9.822  -4.375  0.00  0.00    -0.287 OA
BRANCH  23  24
HETATM   24  P           1     -20.646 -10.497  -5.278  0.00  0.00     0.406 P 
HETATM   25  O           1     -19.599  -9.493  -5.575  0.00  0.00    -0.624 OA
HETATM   26  O           1     -21.234 -10.985  -6.546  0.00  0.00    -0.624 OA
BRANCH  24  27
HETATM   27  O           1     -19.990 -11.736  -4.477  0.00  0.00    -0.300 OA
HETATM   28  H           1     -20.394 -11.719  -3.627  0.00  0.00     0.223 HD
ENDBRANCH  24  27
ENDBRANCH  23  24
ENDBRANCH  22  23
ENDBRANCH  21  22
BRANCH  21  29
HETATM   29  C           1     -21.738  -6.951  -2.078  0.00  0.00     0.198 C 
HETATM   30  O           1     -22.252  -5.820  -1.941  0.00  0.00    -0.646 OA
HETATM   31  O           1     -21.208  -7.519  -1.099  0.00  0.00    -0.646 OA
ENDBRANCH  21  29
ENDBRANCH  19  21
ENDBRANCH   1  17
TORSDOF 10
ENDMDL
MODEL 8
REMARK VINA RESULT:      -7.1      4.798      8.412
REMARK  10 active torsions:
REMARK  status: ('A' for Active; 'I' for Inactive)
REMARK    1  A    between atoms: C_3  and  C_13 
REMARK    2  A    between atoms: C_3  and  C_20 
REMARK    3  A    between atoms: C_4  and  C_22 
REMARK    4  A    between atoms: C_4  and  O_5 
REMARK    5  A    between atoms: O_5  and  P_10 
REMARK    6  A    between atoms: N_6  and  C_13 
REMARK    7  A    between atoms: P_10  and  O_11 
REMARK    8  A    between atoms: C_13  and  C_19 
REMARK    9  A    between atoms: C_16  and  C_22 
REMARK   10  A    between atoms: N_18  and  C_22 
REMARK       I    between atoms: N_18  and  C_19 
ROOT
HETATM    1  C           1     -21.585  -5.690  -7.063  0.00  0.00     0.278 C 
ENDROOT
BRANCH   1   2
HETATM    2  C           1     -20.822  -4.467  -7.553  0.00  0.00     0.083 C 
BRANCH   2   3
HETATM    3  C           1     -21.025  -4.309  -9.028  0.00  0.00    -0.028 A 
HETATM    4  C           1     -22.241  -3.956  -9.674  0.00  0.00    -0.002 A 
HETATM    5  C           1     -21.984  -3.921 -11.045  0.00  0.00     0.042 A 
HETATM    6  C           1     -23.542  -3.661  -9.221  0.00  0.00     0.014 A 
HETATM    7  N           1     -20.656  -4.244 -11.215  0.00  0.00    -0.365 N 
HETATM    8  C           1     -22.967  -3.605 -11.990  0.00  0.00     0.030 A 
HETATM    9  H           1     -20.167  -4.299 -12.142  0.00  0.00     0.165 HD
HETATM   10  C           1     -20.067  -4.480 -10.001  0.00  0.00     0.096 A 
HETATM   11  C           1     -24.251  -3.316 -11.516  0.00  0.00     0.002 A 
HETATM   12  C           1     -24.537  -3.343 -10.153  0.00  0.00     0.001 A 
ENDBRANCH   2   3
ENDBRANCH   1   2
BRANCH   1  13
HETATM   13  N           1     -22.619  -5.267  -6.063  0.00  0.00    -0.066 N 
HETATM   14  H           1     -23.138  -4.436  -6.427  0.00  0.00     0.275 HD
HETATM   15  H           1     -23.289  -6.052  -5.900  0.00  0.00     0.275 HD
HETATM   16  H           1     -22.149  -5.016  -5.162  0.00  0.00     0.275 HD
ENDBRANCH   1  13
BRANCH   1  17
HETATM   17  C           1     -20.625  -6.658  -6.415  0.00  0.00     0.249 C 
HETATM   18  O           1     -19.469  -6.686  -6.765  0.00  0.00    -0.271 OA
HETATM   19  N           1     -21.064  -7.502  -5.431  0.00  0.00    -0.343 N 
HETATM   20  H           1     -22.032  -7.479  -5.139  0.00  0.00     0.163 HD
BRANCH  19  21
HETATM   21  C           1     -20.140  -8.431  -4.809  0.00  0.00     0.210 C 
BRANCH  21  22
HETATM   22  C           1     -20.126  -8.200  -3.303  0.00  0.00     0.217 C 
BRANCH  22  23
HETATM   23  O           1     -21.441  -8.083  -2.835  0.00  0.00    -0.287 OA
BRANCH  23  24
HETATM   24  P           1     -21.965  -6.581  -2.560  0.00  0.00     0.406 P 
HETATM   25  O           1     -22.438  -6.471  -1.162  0.00  0.00    -0.624 OA
HETATM   26  O           1     -23.078  -6.269  -3.484  0.00  0.00    -0.624 OA
BRANCH  24  27
HETATM   27  O           1     -20.756  -5.537  -2.802  0.00  0.00    -0.300 OA
HETATM   28  H           1     -19.998  -6.073  -2.958  0.00  0.00     0.223 HD
ENDBRANCH  24  27
ENDBRANCH  23  24
ENDBRANCH  22  23
ENDBRANCH  21  22
BRANCH  21  29
HETATM   29  C           1     -20.579  -9.846  -5.095  0.00  0.00     0.198 C 
HETATM   30  O           1     -20.359 -10.749  -4.259  0.00  0.00    -0.646 OA
HETATM   31  O           1     -21.162 -10.115  -6.167  0.00  0.00    -0.646 OA
ENDBRANCH  21  29
ENDBRANCH  19  21
ENDBRANCH   1  17
TORSDOF 10
ENDMDL
MODEL 9
REMARK VINA RESULT:      -7.0      5.862      9.119
REMARK  10 active torsions:
REMARK  status: ('A' for Active; 'I' for Inactive)
REMARK    1  A    between atoms: C_3  and  C_13 
REMARK    2  A    between atoms: C_3  and  C_20 
REMARK    3  A    between atoms: C_4  and  C_22 
REMARK    4  A    between atoms: C_4  and  O_5 
REMARK    5  A    between atoms: O_5  and  P_10 
REMARK    6  A    between atoms: N_6  and  C_13 
REMARK    7  A    between atoms: P_10  and  O_11 
REMARK    8  A    between atoms: C_13  and  C_19 
REMARK    9  A    between atoms: C_16  and  C_22 
REMARK   10  A    between atoms: N_18  and  C_22 
REMARK       I    between atoms: N_18  and  C_19 
ROOT
HETATM    1  C           1     -21.731  -6.332  -5.385  0.00  0.00     0.278 C 
ENDROOT
BRANCH   1   2
HETATM    2  C           1     -21.064  -4.993  -5.669  0.00  0.00     0.083 C 
BRANCH   2   3
HETATM    3  C           1     -20.846  -4.845  -7.144  0.00  0.00    -0.028 A 
HETATM    4  C           1     -21.827  -4.468  -8.101  0.00  0.00    -0.002 A 
HETATM    5  C           1     -21.200  -4.454  -9.348  0.00  0.00     0.042 A 
HETATM    6  C           1     -23.194  -4.135  -8.027  0.00  0.00     0.014 A 
HETATM    7  N           1     -19.886  -4.812  -9.143  0.00  0.00    -0.365 N 
HETATM    8  C           1     -21.874  -4.123 -10.529  0.00  0.00     0.030 A 
HETATM    9  H           1     -19.161  -4.890  -9.899  0.00  0.00     0.165 HD
HETATM   10  C           1     -19.662  -5.051  -7.813  0.00  0.00     0.096 A 
HETATM   11  C           1     -23.231  -3.796 -10.429  0.00  0.00     0.002 A 
HETATM   12  C           1     -23.883  -3.801  -9.199  0.00  0.00     0.001 A 
ENDBRANCH   2   3
ENDBRANCH   1   2
BRANCH   1  13
HETATM   13  N           1     -23.200  -6.122  -5.173  0.00  0.00    -0.066 N 
HETATM   14  H           1     -23.642  -5.812  -6.067  0.00  0.00     0.275 HD
HETATM   15  H           1     -23.638  -7.019  -4.862  0.00  0.00     0.275 HD
HETATM   16  H           1     -23.345  -5.390  -4.440  0.00  0.00     0.275 HD
ENDBRANCH   1  13
BRANCH   1  17
HETATM   17  C           1     -21.125  -6.944  -4.146  0.00  0.00     0.249 C 
HETATM   18  O           1     -21.099  -6.317  -3.113  0.00  0.00    -0.271 OA
HETATM   19  N           1     -20.605  -8.210  -4.192  0.00  0.00    -0.343 N 
HETATM   20  H           1     -20.626  -8.734  -5.057  0.00  0.00     0.163 HD
BRANCH  19  21
HETATM   21  C           1     -20.023  -8.798  -3.001  0.00  0.00     0.210 C 
BRANCH  21  22
HETATM   22  C           1     -20.923  -9.919  -2.498  0.00  0.00     0.217 C 
BRANCH  22  23
HETATM   23  O           1     -22.134  -9.379  -2.045  0.00  0.00    -0.287 OA
BRANCH  23  24
HETATM   24  P           1     -22.148  -8.853  -0.518  0.00  0.00     0.406 P 
HETATM   25  O           1     -20.991  -9.420   0.211  0.00  0.00    -0.624 OA
HETATM   26  O           1     -23.403  -9.281   0.139  0.00  0.00    -0.624 OA
BRANCH  24  27
HETATM   27  O           1     -22.055  -7.241  -0.503  0.00  0.00    -0.300 OA
HETATM   28  H           1     -22.665  -6.955  -1.161  0.00  0.00     0.223 HD
ENDBRANCH  24  27
ENDBRANCH  23  24
ENDBRANCH  22  23
ENDBRANCH  21  22
BRANCH  21  29
HETATM   29  C           1     -18.660  -9.357  -3.329  0.00  0.00     0.198 C 
HETATM   30  O           1     -18.008  -9.966  -2.453  0.00  0.00    -0.646 OA
HETATM   31  O           1     -18.183  -9.210  -4.474  0.00  0.00    -0.646 OA
ENDBRANCH  21  29
ENDBRANCH  19  21
ENDBRANCH   1  17
TORSDOF 10
ENDMDL
