MODEL 1
REMARK VINA RESULT:      -6.4      0.000      0.000
REMARK  5 active torsions:
REMARK  status: ('A' for Active; 'I' for Inactive)
REMARK    1  A    between atoms: N_2  and  C_10 
REMARK       I    between atoms: C_3  and  N_4 
REMARK    2  A    between atoms: C_3  and  C_10 
REMARK    3  A    between atoms: N_4  and  C_14 
REMARK    4  A    between atoms: C_8  and  C_10 
REMARK    5  A    between atoms: C_14  and  C_15 
ROOT
HETATM    1  C           1     -35.414  -1.271 -12.789  0.00  0.00     0.249 C 
HETATM    2  N           1     -34.958  -0.787 -13.985  0.00  0.00    -0.345 N 
HETATM    3  H           1     -33.967  -0.797 -14.190  0.00  0.00     0.163 HD
HETATM    4  O           1     -36.596  -1.259 -12.544  0.00  0.00    -0.271 OA
ENDROOT
BRANCH   1   5
HETATM    5  C           1     -34.439  -1.819 -11.776  0.00  0.00     0.278 C 
BRANCH   5   6
HETATM    6  N           1     -34.938  -1.527 -10.392  0.00  0.00    -0.066 N 
HETATM    7  H           1     -34.484  -0.656 -10.034  0.00  0.00     0.275 HD
HETATM    8  H           1     -35.974  -1.394 -10.416  0.00  0.00     0.275 HD
HETATM    9  H           1     -34.703  -2.326  -9.761  0.00  0.00     0.275 HD
ENDBRANCH   5   6
BRANCH   5  10
HETATM   10  C           1     -34.307  -3.325 -11.959  0.00  0.00     0.017 C 
HETATM   11  C           1     -35.246  -4.038 -10.994  0.00  0.00     0.012 C 
HETATM   12  C           1     -32.872  -3.748 -11.674  0.00  0.00     0.012 C 
ENDBRANCH   5  10
ENDBRANCH   1   5
BRANCH   2  13
HETATM   13  C           1     -35.894  -0.261 -14.959  0.00  0.00     0.181 C 
HETATM   14  C           1     -35.546   1.190 -15.264  0.00  0.00     0.043 C 
BRANCH  13  15
HETATM   15  C           1     -35.812  -1.076 -16.226  0.00  0.00     0.196 C 
HETATM   16  O           1     -36.499  -0.755 -17.221  0.00  0.00    -0.646 OA
HETATM   17  O           1     -35.059  -2.072 -16.281  0.00  0.00    -0.646 OA
ENDBRANCH  13  15
ENDBRANCH   2  13
TORSDOF 5
ENDMDL
MODEL 2
REMARK VINA RESULT:      -6.3      1.875      2.475
REMARK  5 active torsions:
REMARK  status: ('A' for Active; 'I' for Inactive)
REMARK    1  A    between atoms: N_2  and  C_10 
REMARK       I    between atoms: C_3  and  N_4 
REMARK    2  A    between atoms: C_3  and  C_10 
REMARK    3  A    between atoms: N_4  and  C_14 
REMARK    4  A    between atoms: C_8  and  C_10 
REMARK    5  A    between atoms: C_14  and  C_15 
ROOT
HETATM    1  C           1     -35.153  -2.381 -12.463  0.00  0.00     0.249 C 
HETATM    2  N           1     -34.950  -1.452 -13.448  0.00  0.00    -0.345 N 
HETATM    3  H           1     -34.376  -1.681 -14.250  0.00  0.00     0.163 HD
HETATM    4  O           1     -35.838  -2.108 -11.507  0.00  0.00    -0.271 OA
ENDROOT
BRANCH   1   5
HETATM    5  C           1     -34.520  -3.747 -12.573  0.00  0.00     0.278 C 
BRANCH   5   6
HETATM    6  N           1     -33.843  -3.878 -13.905  0.00  0.00    -0.066 N 
HETATM    7  H           1     -34.404  -3.380 -14.632  0.00  0.00     0.275 HD
HETATM    8  H           1     -32.888  -3.456 -13.854  0.00  0.00     0.275 HD
HETATM    9  H           1     -33.765  -4.889 -14.158  0.00  0.00     0.275 HD
ENDBRANCH   5   6
BRANCH   5  10
HETATM   10  C           1     -33.492  -3.922 -11.463  0.00  0.00     0.017 C 
HETATM   11  C           1     -32.191  -4.449 -12.055  0.00  0.00     0.012 C 
HETATM   12  C           1     -34.020  -4.915 -10.435  0.00  0.00     0.012 C 
ENDBRANCH   5  10
ENDBRANCH   1   5
BRANCH   2  13
HETATM   13  C           1     -35.558  -0.140 -13.344  0.00  0.00     0.181 C 
HETATM   14  C           1     -34.558   0.919 -13.788  0.00  0.00     0.043 C 
BRANCH  13  15
HETATM   15  C           1     -36.780  -0.081 -14.226  0.00  0.00     0.196 C 
HETATM   16  O           1     -37.822  -0.687 -13.892  0.00  0.00    -0.646 OA
HETATM   17  O           1     -36.752   0.573 -15.291  0.00  0.00    -0.646 OA
ENDBRANCH  13  15
ENDBRANCH   2  13
TORSDOF 5
ENDMDL
MODEL 3
REMARK VINA RESULT:      -5.6     12.639     14.347
REMARK  5 active torsions:
REMARK  status: ('A' for Active; 'I' for Inactive)
REMARK    1  A    between atoms: N_2  and  C_10 
REMARK       I    between atoms: C_3  and  N_4 
REMARK    2  A    between atoms: C_3  and  C_10 
REMARK    3  A    between atoms: N_4  and  C_14 
REMARK    4  A    between atoms: C_8  and  C_10 
REMARK    5  A    between atoms: C_14  and  C_15 
ROOT
HETATM    1  C           1     -21.833  -4.500  -8.243  0.00  0.00     0.249 C 
HETATM    2  N           1     -22.201  -4.699  -9.547  0.00  0.00    -0.345 N 
HETATM    3  H           1     -22.180  -5.630  -9.942  0.00  0.00     0.163 HD
HETATM    4  O           1     -21.858  -3.389  -7.771  0.00  0.00    -0.271 OA
ENDROOT
BRANCH   1   5
HETATM    5  C           1     -21.394  -5.670  -7.397  0.00  0.00     0.278 C 
BRANCH   5   6
HETATM    6  N           1     -19.950  -5.971  -7.670  0.00  0.00    -0.066 N 
HETATM    7  H           1     -19.867  -6.492  -8.572  0.00  0.00     0.275 HD
HETATM    8  H           1     -19.414  -5.076  -7.735  0.00  0.00     0.275 HD
HETATM    9  H           1     -19.563  -6.554  -6.894  0.00  0.00     0.275 HD
ENDBRANCH   5   6
BRANCH   5  10
HETATM   10  C           1     -21.570  -5.327  -5.924  0.00  0.00     0.017 C 
HETATM   11  C           1     -20.222  -4.942  -5.328  0.00  0.00     0.012 C 
HETATM   12  C           1     -22.124  -6.538  -5.183  0.00  0.00     0.012 C 
ENDBRANCH   5  10
ENDBRANCH   1   5
BRANCH   2  13
HETATM   13  C           1     -22.623  -3.576 -10.360  0.00  0.00     0.181 C 
HETATM   14  C           1     -21.850  -3.581 -11.672  0.00  0.00     0.043 C 
BRANCH  13  15
HETATM   15  C           1     -24.101  -3.689 -10.645  0.00  0.00     0.196 C 
HETATM   16  O           1     -24.621  -2.985 -11.539  0.00  0.00    -0.646 OA
HETATM   17  O           1     -24.805  -4.486  -9.988  0.00  0.00    -0.646 OA
ENDBRANCH  13  15
ENDBRANCH   2  13
TORSDOF 5
ENDMDL
MODEL 4
REMARK VINA RESULT:      -5.6     11.901     13.671
REMARK  5 active torsions:
REMARK  status: ('A' for Active; 'I' for Inactive)
REMARK    1  A    between atoms: N_2  and  C_10 
REMARK       I    between atoms: C_3  and  N_4 
REMARK    2  A    between atoms: C_3  and  C_10 
REMARK    3  A    between atoms: N_4  and  C_14 
REMARK    4  A    between atoms: C_8  and  C_10 
REMARK    5  A    between atoms: C_14  and  C_15 
ROOT
HETATM    1  C           1     -22.132  -4.079  -8.688  0.00  0.00     0.249 C 
HETATM    2  N           1     -23.309  -4.229  -9.371  0.00  0.00    -0.345 N 
HETATM    3  H           1     -24.160  -4.450  -8.870  0.00  0.00     0.163 HD
HETATM    4  O           1     -21.117  -3.815  -9.286  0.00  0.00    -0.271 OA
ENDROOT
BRANCH   1   5
HETATM    5  C           1     -22.104  -4.244  -7.188  0.00  0.00     0.278 C 
BRANCH   5   6
HETATM    6  N           1     -23.478  -4.590  -6.698  0.00  0.00    -0.066 N 
HETATM    7  H           1     -23.684  -4.052  -5.826  0.00  0.00     0.275 HD
HETATM    8  H           1     -24.182  -4.347  -7.431  0.00  0.00     0.275 HD
HETATM    9  H           1     -23.528  -5.614  -6.493  0.00  0.00     0.275 HD
ENDBRANCH   5   6
BRANCH   5  10
HETATM   10  C           1     -21.137  -5.360  -6.817  0.00  0.00     0.017 C 
HETATM   11  C           1     -21.740  -6.202  -5.700  0.00  0.00     0.012 C 
HETATM   12  C           1     -19.821  -4.756  -6.343  0.00  0.00     0.012 C 
ENDBRANCH   5  10
ENDBRANCH   1   5
BRANCH   2  13
HETATM   13  C           1     -23.337  -4.070 -10.812  0.00  0.00     0.181 C 
HETATM   14  C           1     -23.429  -5.440 -11.471  0.00  0.00     0.043 C 
BRANCH  13  15
HETATM   15  C           1     -24.536  -3.242 -11.202  0.00  0.00     0.196 C 
HETATM   16  O           1     -25.474  -3.078 -10.392  0.00  0.00    -0.646 OA
HETATM   17  O           1     -24.591  -2.718 -12.336  0.00  0.00    -0.646 OA
ENDBRANCH  13  15
ENDBRANCH   2  13
TORSDOF 5
ENDMDL
MODEL 5
REMARK VINA RESULT:      -5.4      2.454      3.419
REMARK  5 active torsions:
REMARK  status: ('A' for Active; 'I' for Inactive)
REMARK    1  A    between atoms: N_2  and  C_10 
REMARK       I    between atoms: C_3  and  N_4 
REMARK    2  A    between atoms: C_3  and  C_10 
REMARK    3  A    between atoms: N_4  and  C_14 
REMARK    4  A    between atoms: C_8  and  C_10 
REMARK    5  A    between atoms: C_14  and  C_15 
ROOT
HETATM    1  C           1     -34.011  -2.637 -12.121  0.00  0.00     0.249 C 
HETATM    2  N           1     -34.768  -1.792 -12.887  0.00  0.00    -0.345 N 
HETATM    3  H           1     -35.218  -2.135 -13.726  0.00  0.00     0.163 HD
HETATM    4  O           1     -33.474  -2.226 -11.120  0.00  0.00    -0.271 OA
ENDROOT
BRANCH   1   5
HETATM    5  C           1     -33.848  -4.081 -12.527  0.00  0.00     0.278 C 
BRANCH   5   6
HETATM    6  N           1     -32.429  -4.508 -12.295  0.00  0.00    -0.066 N 
HETATM    7  H           1     -31.850  -4.260 -13.129  0.00  0.00     0.275 HD
HETATM    8  H           1     -32.052  -4.021 -11.451  0.00  0.00     0.275 HD
HETATM    9  H           1     -32.397  -5.542 -12.145  0.00  0.00     0.275 HD
ENDBRANCH   5   6
BRANCH   5  10
HETATM   10  C           1     -34.782  -4.952 -11.697  0.00  0.00     0.017 C 
HETATM   11  C           1     -35.670  -4.064 -10.835  0.00  0.00     0.012 C 
HETATM   12  C           1     -33.958  -5.868 -10.800  0.00  0.00     0.012 C 
ENDBRANCH   5  10
ENDBRANCH   1   5
BRANCH   2  13
HETATM   13  C           1     -34.925  -0.404 -12.497  0.00  0.00     0.181 C 
HETATM   14  C           1     -34.924   0.476 -13.740  0.00  0.00     0.043 C 
BRANCH  13  15
HETATM   15  C           1     -36.232  -0.235 -11.761  0.00  0.00     0.196 C 
HETATM   16  O           1     -36.264   0.398 -10.683  0.00  0.00    -0.646 OA
HETATM   17  O           1     -37.281  -0.726 -12.229  0.00  0.00    -0.646 OA
ENDBRANCH  13  15
ENDBRANCH   2  13
TORSDOF 5
ENDMDL
MODEL 6
REMARK VINA RESULT:      -5.4     12.928     15.045
REMARK  5 active torsions:
REMARK  status: ('A' for Active; 'I' for Inactive)
REMARK    1  A    between atoms: N_2  and  C_10 
REMARK       I    between atoms: C_3  and  N_4 
REMARK    2  A    between atoms: C_3  and  C_10 
REMARK    3  A    between atoms: N_4  and  C_14 
REMARK    4  A    between atoms: C_8  and  C_10 
REMARK    5  A    between atoms: C_14  and  C_15 
ROOT
HETATM    1  C           1     -21.449  -4.073 -10.327  0.00  0.00     0.249 C 
HETATM    2  N           1     -21.414  -4.128  -8.960  0.00  0.00    -0.345 N 
HETATM    3  H           1     -22.017  -3.527  -8.413  0.00  0.00     0.163 HD
HETATM    4  O           1     -20.729  -4.791 -10.979  0.00  0.00    -0.271 OA
ENDROOT
BRANCH   1   5
HETATM    5  C           1     -22.387  -3.115 -11.020  0.00  0.00     0.278 C 
BRANCH   5   6
HETATM    6  N           1     -21.892  -2.847 -12.409  0.00  0.00    -0.066 N 
HETATM    7  H           1     -22.372  -3.488 -13.081  0.00  0.00     0.275 HD
HETATM    8  H           1     -22.098  -1.855 -12.667  0.00  0.00     0.275 HD
HETATM    9  H           1     -20.860  -3.011 -12.450  0.00  0.00     0.275 HD
ENDBRANCH   5   6
BRANCH   5  10
HETATM   10  C           1     -23.780  -3.728 -11.088  0.00  0.00     0.017 C 
HETATM   11  C           1     -24.522  -3.167 -12.294  0.00  0.00     0.012 C 
HETATM   12  C           1     -24.548  -3.386  -9.817  0.00  0.00     0.012 C 
ENDBRANCH   5  10
ENDBRANCH   1   5
BRANCH   2  13
HETATM   13  C           1     -20.513  -5.048  -8.294  0.00  0.00     0.181 C 
HETATM   14  C           1     -19.313  -4.281  -7.753  0.00  0.00     0.043 C 
BRANCH  13  15
HETATM   15  C           1     -21.235  -5.723  -7.154  0.00  0.00     0.196 C 
HETATM   16  O           1     -22.165  -5.129  -6.565  0.00  0.00    -0.646 OA
HETATM   17  O           1     -20.905  -6.875  -6.799  0.00  0.00    -0.646 OA
ENDBRANCH  13  15
ENDBRANCH   2  13
TORSDOF 5
ENDMDL
MODEL 7
REMARK VINA RESULT:      -5.3     13.475     15.652
REMARK  5 active torsions:
REMARK  status: ('A' for Active; 'I' for Inactive)
REMARK    1  A    between atoms: N_2  and  C_10 
REMARK       I    between atoms: C_3  and  N_4 
REMARK    2  A    between atoms: C_3  and  C_10 
REMARK    3  A    between atoms: N_4  and  C_14 
REMARK    4  A    between atoms: C_8  and  C_10 
REMARK    5  A    between atoms: C_14  and  C_15 
ROOT
HETATM    1  C           1     -21.106  -4.538  -9.004  0.00  0.00     0.249 C 
HETATM    2  N           1     -21.532  -4.865  -7.745  0.00  0.00    -0.345 N 
HETATM    3  H           1     -22.446  -4.570  -7.427  0.00  0.00     0.163 HD
HETATM    4  O           1     -20.014  -4.889  -9.383  0.00  0.00    -0.271 OA
ENDROOT
BRANCH   1   5
HETATM    5  C           1     -22.001  -3.737  -9.919  0.00  0.00     0.278 C 
BRANCH   5   6
HETATM    6  N           1     -21.372  -3.642 -11.277  0.00  0.00    -0.066 N 
HETATM    7  H           1     -20.420  -3.219 -11.191  0.00  0.00     0.275 HD
HETATM    8  H           1     -21.292  -4.598 -11.691  0.00  0.00     0.275 HD
HETATM    9  H           1     -21.964  -3.042 -11.894  0.00  0.00     0.275 HD
ENDBRANCH   5   6
BRANCH   5  10
HETATM   10  C           1     -23.355  -4.425 -10.035  0.00  0.00     0.017 C 
HETATM   11  C           1     -23.576  -4.870 -11.475  0.00  0.00     0.012 C 
HETATM   12  C           1     -24.455  -3.451  -9.631  0.00  0.00     0.012 C 
ENDBRANCH   5  10
ENDBRANCH   1   5
BRANCH   2  13
HETATM   13  C           1     -20.673  -5.634  -6.866  0.00  0.00     0.181 C 
HETATM   14  C           1     -19.877  -4.687  -5.978  0.00  0.00     0.043 C 
BRANCH  13  15
HETATM   15  C           1     -21.517  -6.542  -6.007  0.00  0.00     0.196 C 
HETATM   16  O           1     -21.324  -7.777  -6.024  0.00  0.00    -0.646 OA
HETATM   17  O           1     -22.410  -6.060  -5.277  0.00  0.00    -0.646 OA
ENDBRANCH  13  15
ENDBRANCH   2  13
TORSDOF 5
ENDMDL
MODEL 8
REMARK VINA RESULT:      -5.2     13.346     15.491
REMARK  5 active torsions:
REMARK  status: ('A' for Active; 'I' for Inactive)
REMARK    1  A    between atoms: N_2  and  C_10 
REMARK       I    between atoms: C_3  and  N_4 
REMARK    2  A    between atoms: C_3  and  C_10 
REMARK    3  A    between atoms: N_4  and  C_14 
REMARK    4  A    between atoms: C_8  and  C_10 
REMARK    5  A    between atoms: C_14  and  C_15 
ROOT
HETATM    1  C           1     -22.378  -4.118  -8.156  0.00  0.00     0.249 C 
HETATM    2  N           1     -22.181  -5.282  -7.464  0.00  0.00    -0.345 N 
HETATM    3  H           1     -22.648  -6.131  -7.757  0.00  0.00     0.163 HD
HETATM    4  O           1     -21.820  -3.106  -7.807  0.00  0.00    -0.271 OA
ENDROOT
BRANCH   1   5
HETATM    5  C           1     -23.292  -4.100  -9.357  0.00  0.00     0.278 C 
BRANCH   5   6
HETATM    6  N           1     -24.543  -3.343  -9.022  0.00  0.00    -0.066 N 
HETATM    7  H           1     -25.366  -3.823  -9.449  0.00  0.00     0.275 HD
HETATM    8  H           1     -24.660  -3.306  -7.984  0.00  0.00     0.275 HD
HETATM    9  H           1     -24.473  -2.371  -9.399  0.00  0.00     0.275 HD
ENDBRANCH   5   6
BRANCH   5  10
HETATM   10  C           1     -22.587  -3.422 -10.524  0.00  0.00     0.017 C 
HETATM   11  C           1     -23.611  -3.044 -11.586  0.00  0.00     0.012 C 
HETATM   12  C           1     -21.564  -4.378 -11.124  0.00  0.00     0.012 C 
ENDBRANCH   5  10
ENDBRANCH   1   5
BRANCH   2  13
HETATM   13  C           1     -21.303  -5.300  -6.311  0.00  0.00     0.181 C 
HETATM   14  C           1     -21.872  -6.238  -5.254  0.00  0.00     0.043 C 
BRANCH  13  15
HETATM   15  C           1     -19.936  -5.782  -6.728  0.00  0.00     0.196 C 
HETATM   16  O           1     -19.087  -4.966  -7.150  0.00  0.00    -0.646 OA
HETATM   17  O           1     -19.651  -6.997  -6.654  0.00  0.00    -0.646 OA
ENDBRANCH  13  15
ENDBRANCH   2  13
TORSDOF 5
ENDMDL
MODEL 9
REMARK VINA RESULT:      -5.0     12.820     14.798
REMARK  5 active torsions:
REMARK  status: ('A' for Active; 'I' for Inactive)
REMARK    1  A    between atoms: N_2  and  C_10 
REMARK       I    between atoms: C_3  and  N_4 
REMARK    2  A    between atoms: C_3  and  C_10 
REMARK    3  A    between atoms: N_4  and  C_14 
REMARK    4  A    between atoms: C_8  and  C_10 
REMARK    5  A    between atoms: C_14  and  C_15 
ROOT
HETATM    1  C           1     -21.699  -3.638 -10.930  0.00  0.00     0.249 C 
HETATM    2  N           1     -22.044  -4.316  -9.792  0.00  0.00    -0.345 N 
HETATM    3  H           1     -22.698  -5.087  -9.841  0.00  0.00     0.163 HD
HETATM    4  O           1     -20.920  -2.718 -10.872  0.00  0.00    -0.271 OA
ENDROOT
BRANCH   1   5
HETATM    5  C           1     -22.294  -4.042 -12.258  0.00  0.00     0.278 C 
BRANCH   5   6
HETATM    6  N           1     -23.279  -5.152 -12.047  0.00  0.00    -0.066 N 
HETATM    7  H           1     -22.773  -6.066 -12.012  0.00  0.00     0.275 HD
HETATM    8  H           1     -23.787  -5.001 -11.146  0.00  0.00     0.275 HD
HETATM    9  H           1     -23.964  -5.165 -12.836  0.00  0.00     0.275 HD
ENDBRANCH   5   6
BRANCH   5  10
HETATM   10  C           1     -23.002  -2.847 -12.882  0.00  0.00     0.017 C 
HETATM   11  C           1     -24.487  -2.905 -12.546  0.00  0.00     0.012 C 
HETATM   12  C           1     -22.824  -2.884 -14.395  0.00  0.00     0.012 C 
ENDBRANCH   5  10
ENDBRANCH   1   5
BRANCH   2  13
HETATM   13  C           1     -21.474  -3.929  -8.517  0.00  0.00     0.181 C 
HETATM   14  C           1     -22.486  -4.187  -7.409  0.00  0.00     0.043 C 
BRANCH  13  15
HETATM   15  C           1     -20.227  -4.739  -8.258  0.00  0.00     0.196 C 
HETATM   16  O           1     -20.301  -5.982  -8.144  0.00  0.00    -0.646 OA
HETATM   17  O           1     -19.120  -4.167  -8.159  0.00  0.00    -0.646 OA
ENDBRANCH  13  15
ENDBRANCH   2  13
TORSDOF 5
ENDMDL
