MODEL 1
REMARK VINA RESULT:      -7.3      0.000      0.000
REMARK  9 active torsions:
REMARK  status: ('A' for Active; 'I' for Inactive)
REMARK       I    between atoms: C_1  and  N_7 
REMARK    1  A    between atoms: C_1  and  C_12 
REMARK    2  A    between atoms: C_2  and  C_24 
REMARK    3  A    between atoms: N_7  and  C_24 
REMARK    4  A    between atoms: C_8  and  Se_9 
REMARK    5  A    between atoms: C_8  and  C_17 
REMARK    6  A    between atoms: C_12  and  C_13 
REMARK    7  A    between atoms: C_12  and  N_23 
REMARK    8  A    between atoms: C_13  and  C_14 
REMARK    9  A    between atoms: C_17  and  C_24 
ROOT
HETATM    1  C           1     -21.641  -4.621  -7.618  0.00  0.00     0.249 C 
HETATM    2  O           1     -21.551  -3.480  -7.228  0.00  0.00    -0.271 OA
HETATM    3  N           1     -22.217  -4.886  -8.831  0.00  0.00    -0.345 N 
HETATM    4  H           1     -22.292  -5.841  -9.157  0.00  0.00     0.163 HD
ENDROOT
BRANCH   1   5
HETATM    5  C           1     -21.117  -5.752  -6.768  0.00  0.00     0.278 C 
BRANCH   5   6
HETATM    6  C           1     -20.827  -5.241  -5.363  0.00  0.00     0.081 C 
BRANCH   6   7
HETATM    7  C           1     -21.112  -6.323  -4.368  0.00  0.00    -0.056 A 
HETATM    8  C           1     -21.295  -6.002  -3.023  0.00  0.00     0.007 A 
HETATM    9  C           1     -21.562  -7.009  -2.097  0.00  0.00     0.001 A 
HETATM   10  C           1     -21.646  -8.337  -2.515  0.00  0.00     0.000 A 
HETATM   11  C           1     -21.465  -8.658  -3.860  0.00  0.00     0.001 A 
HETATM   12  C           1     -21.198  -7.651  -4.787  0.00  0.00     0.007 A 
ENDBRANCH   6   7
ENDBRANCH   5   6
BRANCH   5  13
HETATM   13  N           1     -19.855  -6.289  -7.374  0.00  0.00    -0.066 N 
HETATM   14  H           1     -20.083  -6.803  -8.255  0.00  0.00     0.275 HD
HETATM   15  H           1     -19.394  -6.941  -6.700  0.00  0.00     0.275 HD
HETATM   16  H           1     -19.207  -5.498  -7.592  0.00  0.00     0.275 HD
ENDBRANCH   5  13
ENDBRANCH   1   5
BRANCH   3  17
HETATM   17  C           1     -22.721  -3.798  -9.648  0.00  0.00     0.185 C 
BRANCH  17  18
HETATM   18  C           1     -24.229  -3.839  -9.665  0.00  0.00     0.196 C 
HETATM   19  O           1     -24.885  -2.802  -9.425  0.00  0.00    -0.646 OA
HETATM   20  O           1     -24.822  -4.909  -9.920  0.00  0.00    -0.646 OA
ENDBRANCH  17  18
BRANCH  17  21
HETATM   21  C           1     -22.194  -3.945 -11.070  0.00  0.00     0.036 C 
BRANCH  21  22
HETATM   22  C           1     -22.456  -2.661 -11.845  0.00  0.00     0.003 C 
BRANCH  22  23
HETATM   23 Se           1     -23.954  -2.930 -13.063  0.00  0.00     0.000 Se
HETATM   24  C           1     -22.909  -2.617 -14.678  0.00  0.00     0.000 C 
ENDBRANCH  22  23
ENDBRANCH  21  22
ENDBRANCH  17  21
ENDBRANCH   3  17
TORSDOF 9
ENDMDL
MODEL 2
REMARK VINA RESULT:      -6.8      3.822      8.086
REMARK  9 active torsions:
REMARK  status: ('A' for Active; 'I' for Inactive)
REMARK       I    between atoms: C_1  and  N_7 
REMARK    1  A    between atoms: C_1  and  C_12 
REMARK    2  A    between atoms: C_2  and  C_24 
REMARK    3  A    between atoms: N_7  and  C_24 
REMARK    4  A    between atoms: C_8  and  Se_9 
REMARK    5  A    between atoms: C_8  and  C_17 
REMARK    6  A    between atoms: C_12  and  C_13 
REMARK    7  A    between atoms: C_12  and  N_23 
REMARK    8  A    between atoms: C_13  and  C_14 
REMARK    9  A    between atoms: C_17  and  C_24 
ROOT
HETATM    1  C           1     -20.954  -5.211  -6.119  0.00  0.00     0.249 C 
HETATM    2  O           1     -20.141  -4.584  -5.480  0.00  0.00    -0.271 OA
HETATM    3  N           1     -21.271  -6.492  -5.754  0.00  0.00    -0.345 N 
HETATM    4  H           1     -21.951  -7.016  -6.289  0.00  0.00     0.163 HD
ENDROOT
BRANCH   1   5
HETATM    5  C           1     -21.620  -4.581  -7.317  0.00  0.00     0.278 C 
BRANCH   5   6
HETATM    6  C           1     -20.829  -4.919  -8.574  0.00  0.00     0.081 C 
BRANCH   6   7
HETATM    7  C           1     -21.589  -4.463  -9.781  0.00  0.00    -0.056 A 
HETATM    8  C           1     -22.928  -4.820  -9.938  0.00  0.00     0.007 A 
HETATM    9  C           1     -23.636  -4.394 -11.061  0.00  0.00     0.001 A 
HETATM   10  C           1     -23.005  -3.611 -12.028  0.00  0.00     0.000 A 
HETATM   11  C           1     -21.666  -3.253 -11.871  0.00  0.00     0.001 A 
HETATM   12  C           1     -20.958  -3.679 -10.747  0.00  0.00     0.007 A 
ENDBRANCH   6   7
ENDBRANCH   5   6
BRANCH   5  13
HETATM   13  N           1     -21.663  -3.093  -7.140  0.00  0.00    -0.066 N 
HETATM   14  H           1     -21.820  -2.636  -8.066  0.00  0.00     0.275 HD
HETATM   15  H           1     -20.756  -2.763  -6.739  0.00  0.00     0.275 HD
HETATM   16  H           1     -22.443  -2.841  -6.491  0.00  0.00     0.275 HD
ENDBRANCH   5  13
ENDBRANCH   1   5
BRANCH   3  17
HETATM   17  C           1     -20.631  -7.097  -4.602  0.00  0.00     0.185 C 
BRANCH  17  18
HETATM   18  C           1     -19.923  -8.360  -5.026  0.00  0.00     0.196 C 
HETATM   19  O           1     -20.041  -9.402  -4.344  0.00  0.00    -0.646 OA
HETATM   20  O           1     -19.220  -8.365  -6.059  0.00  0.00    -0.646 OA
ENDBRANCH  17  18
BRANCH  17  21
HETATM   21  C           1     -21.685  -7.435  -3.555  0.00  0.00     0.036 C 
BRANCH  21  22
HETATM   22  C           1     -21.742  -6.324  -2.514  0.00  0.00     0.003 C 
BRANCH  22  23
HETATM   23 Se           1     -22.319  -7.062  -0.805  0.00  0.00     0.000 Se
HETATM   24  C           1     -20.975  -8.473  -0.775  0.00  0.00     0.000 C 
ENDBRANCH  22  23
ENDBRANCH  21  22
ENDBRANCH  17  21
ENDBRANCH   3  17
TORSDOF 9
ENDMDL
MODEL 3
REMARK VINA RESULT:      -6.7      3.957      8.254
REMARK  9 active torsions:
REMARK  status: ('A' for Active; 'I' for Inactive)
REMARK       I    between atoms: C_1  and  N_7 
REMARK    1  A    between atoms: C_1  and  C_12 
REMARK    2  A    between atoms: C_2  and  C_24 
REMARK    3  A    between atoms: N_7  and  C_24 
REMARK    4  A    between atoms: C_8  and  Se_9 
REMARK    5  A    between atoms: C_8  and  C_17 
REMARK    6  A    between atoms: C_12  and  C_13 
REMARK    7  A    between atoms: C_12  and  N_23 
REMARK    8  A    between atoms: C_13  and  C_14 
REMARK    9  A    between atoms: C_17  and  C_24 
ROOT
HETATM    1  C           1     -21.369  -5.706  -5.870  0.00  0.00     0.249 C 
HETATM    2  O           1     -20.524  -5.009  -5.359  0.00  0.00    -0.271 OA
HETATM    3  N           1     -21.520  -7.005  -5.466  0.00  0.00    -0.345 N 
HETATM    4  H           1     -22.228  -7.588  -5.893  0.00  0.00     0.163 HD
ENDROOT
BRANCH   1   5
HETATM    5  C           1     -22.258  -5.143  -6.951  0.00  0.00     0.278 C 
BRANCH   5   6
HETATM    6  C           1     -21.655  -3.849  -7.483  0.00  0.00     0.081 C 
BRANCH   6   7
HETATM    7  C           1     -21.612  -3.895  -8.980  0.00  0.00    -0.056 A 
HETATM    8  C           1     -20.405  -4.136  -9.635  0.00  0.00     0.007 A 
HETATM    9  C           1     -20.365  -4.180 -11.028  0.00  0.00     0.001 A 
HETATM   10  C           1     -21.532  -3.983 -11.766  0.00  0.00     0.000 A 
HETATM   11  C           1     -22.740  -3.744 -11.110  0.00  0.00     0.001 A 
HETATM   12  C           1     -22.780  -3.700  -9.717  0.00  0.00     0.007 A 
ENDBRANCH   6   7
ENDBRANCH   5   6
BRANCH   5  13
HETATM   13  N           1     -23.618  -4.864  -6.386  0.00  0.00    -0.066 N 
HETATM   14  H           1     -23.520  -4.448  -5.432  0.00  0.00     0.275 HD
HETATM   15  H           1     -24.158  -5.756  -6.323  0.00  0.00     0.275 HD
HETATM   16  H           1     -24.124  -4.194  -7.008  0.00  0.00     0.275 HD
ENDBRANCH   5  13
ENDBRANCH   1   5
BRANCH   3  17
HETATM   17  C           1     -20.666  -7.546  -4.426  0.00  0.00     0.185 C 
BRANCH  17  18
HETATM   18  C           1     -19.896  -8.723  -4.970  0.00  0.00     0.196 C 
HETATM   19  O           1     -19.098  -8.562  -5.919  0.00  0.00    -0.646 OA
HETATM   20  O           1     -20.055  -9.858  -4.472  0.00  0.00    -0.646 OA
ENDBRANCH  17  18
BRANCH  17  21
HETATM   21  C           1     -21.523  -8.000  -3.251  0.00  0.00     0.036 C 
BRANCH  21  22
HETATM   22  C           1     -20.918  -7.485  -1.951  0.00  0.00     0.003 C 
BRANCH  22  23
HETATM   23 Se           1     -22.300  -7.395  -0.580  0.00  0.00     0.000 Se
HETATM   24  C           1     -21.374  -8.574   0.664  0.00  0.00     0.000 C 
ENDBRANCH  22  23
ENDBRANCH  21  22
ENDBRANCH  17  21
ENDBRANCH   3  17
TORSDOF 9
ENDMDL
MODEL 4
REMARK VINA RESULT:      -6.7     12.389     13.956
REMARK  9 active torsions:
REMARK  status: ('A' for Active; 'I' for Inactive)
REMARK       I    between atoms: C_1  and  N_7 
REMARK    1  A    between atoms: C_1  and  C_12 
REMARK    2  A    between atoms: C_2  and  C_24 
REMARK    3  A    between atoms: N_7  and  C_24 
REMARK    4  A    between atoms: C_8  and  Se_9 
REMARK    5  A    between atoms: C_8  and  C_17 
REMARK    6  A    between atoms: C_12  and  C_13 
REMARK    7  A    between atoms: C_12  and  N_23 
REMARK    8  A    between atoms: C_13  and  C_14 
REMARK    9  A    between atoms: C_17  and  C_24 
ROOT
HETATM    1  C           1     -34.334  -2.453 -12.164  0.00  0.00     0.249 C 
HETATM    2  O           1     -33.676  -1.986 -11.264  0.00  0.00    -0.271 OA
HETATM    3  N           1     -35.247  -1.674 -12.821  0.00  0.00    -0.345 N 
HETATM    4  H           1     -35.798  -2.066 -13.574  0.00  0.00     0.163 HD
ENDROOT
BRANCH   1   5
HETATM    5  C           1     -34.149  -3.897 -12.561  0.00  0.00     0.278 C 
BRANCH   5   6
HETATM    6  C           1     -33.050  -4.522 -11.712  0.00  0.00     0.081 C 
BRANCH   6   7
HETATM    7  C           1     -33.598  -5.706 -10.977  0.00  0.00    -0.056 A 
HETATM    8  C           1     -34.819  -5.609 -10.311  0.00  0.00     0.007 A 
HETATM    9  C           1     -35.331  -6.712  -9.627  0.00  0.00     0.001 A 
HETATM   10  C           1     -34.620  -7.912  -9.610  0.00  0.00     0.000 A 
HETATM   11  C           1     -33.399  -8.010 -10.278  0.00  0.00     0.001 A 
HETATM   12  C           1     -32.888  -6.907 -10.961  0.00  0.00     0.007 A 
ENDBRANCH   6   7
ENDBRANCH   5   6
BRANCH   5  13
HETATM   13  N           1     -33.764  -3.971 -14.008  0.00  0.00    -0.066 N 
HETATM   14  H           1     -32.914  -4.570 -14.113  0.00  0.00     0.275 HD
HETATM   15  H           1     -33.559  -3.010 -14.364  0.00  0.00     0.275 HD
HETATM   16  H           1     -34.551  -4.385 -14.559  0.00  0.00     0.275 HD
ENDBRANCH   5  13
ENDBRANCH   1   5
BRANCH   3  17
HETATM   17  C           1     -35.425  -0.286 -12.439  0.00  0.00     0.185 C 
BRANCH  17  18
HETATM   18  C           1     -36.482  -0.191 -11.367  0.00  0.00     0.196 C 
HETATM   19  O           1     -36.335   0.603 -10.413  0.00  0.00    -0.646 OA
HETATM   20  O           1     -37.505  -0.907 -11.433  0.00  0.00    -0.646 OA
ENDBRANCH  17  18
BRANCH  17  21
HETATM   21  C           1     -35.861   0.524 -13.654  0.00  0.00     0.036 C 
BRANCH  21  22
HETATM   22  C           1     -34.968   0.183 -14.840  0.00  0.00     0.003 C 
BRANCH  22  23
HETATM   23 Se           1     -36.039  -0.635 -16.248  0.00  0.00     0.000 Se
HETATM   24  C           1     -37.750  -0.103 -15.481  0.00  0.00     0.000 C 
ENDBRANCH  22  23
ENDBRANCH  21  22
ENDBRANCH  17  21
ENDBRANCH   3  17
TORSDOF 9
ENDMDL
MODEL 5
REMARK VINA RESULT:      -6.5     12.546     14.403
REMARK  9 active torsions:
REMARK  status: ('A' for Active; 'I' for Inactive)
REMARK       I    between atoms: C_1  and  N_7 
REMARK    1  A    between atoms: C_1  and  C_12 
REMARK    2  A    between atoms: C_2  and  C_24 
REMARK    3  A    between atoms: N_7  and  C_24 
REMARK    4  A    between atoms: C_8  and  Se_9 
REMARK    5  A    between atoms: C_8  and  C_17 
REMARK    6  A    between atoms: C_12  and  C_13 
REMARK    7  A    between atoms: C_12  and  N_23 
REMARK    8  A    between atoms: C_13  and  C_14 
REMARK    9  A    between atoms: C_17  and  C_24 
ROOT
HETATM    1  C           1     -33.939  -4.542 -15.383  0.00  0.00     0.249 C 
HETATM    2  O           1     -35.032  -5.057 -15.350  0.00  0.00    -0.271 OA
HETATM    3  N           1     -33.411  -3.982 -14.251  0.00  0.00    -0.345 N 
HETATM    4  H           1     -32.496  -3.551 -14.280  0.00  0.00     0.163 HD
ENDROOT
BRANCH   1   5
HETATM    5  C           1     -33.156  -4.519 -16.673  0.00  0.00     0.278 C 
BRANCH   5   6
HETATM    6  C           1     -31.668  -4.423 -16.363  0.00  0.00     0.081 C 
BRANCH   6   7
HETATM    7  C           1     -30.972  -5.650 -16.864  0.00  0.00    -0.056 A 
HETATM    8  C           1     -31.589  -6.461 -17.817  0.00  0.00     0.007 A 
HETATM    9  C           1     -30.941  -7.603 -18.285  0.00  0.00     0.001 A 
HETATM   10  C           1     -29.676  -7.936 -17.800  0.00  0.00     0.000 A 
HETATM   11  C           1     -29.059  -7.125 -16.848  0.00  0.00     0.001 A 
HETATM   12  C           1     -29.707  -5.982 -16.380  0.00  0.00     0.007 A 
ENDBRANCH   6   7
ENDBRANCH   5   6
BRANCH   5  13
HETATM   13  N           1     -33.573  -3.332 -17.489  0.00  0.00    -0.066 N 
HETATM   14  H           1     -32.864  -2.572 -17.387  0.00  0.00     0.275 HD
HETATM   15  H           1     -34.502  -2.989 -17.154  0.00  0.00     0.275 HD
HETATM   16  H           1     -33.646  -3.608 -18.494  0.00  0.00     0.275 HD
ENDBRANCH   5  13
ENDBRANCH   1   5
BRANCH   3  17
HETATM   17  C           1     -34.164  -4.004 -13.012  0.00  0.00     0.185 C 
BRANCH  17  18
HETATM   18  C           1     -34.942  -2.719 -12.872  0.00  0.00     0.196 C 
HETATM   19  O           1     -35.706  -2.555 -11.896  0.00  0.00    -0.646 OA
HETATM   20  O           1     -34.822  -1.820 -13.731  0.00  0.00    -0.646 OA
ENDBRANCH  17  18
BRANCH  17  21
HETATM   21  C           1     -33.203  -4.145 -11.837  0.00  0.00     0.036 C 
BRANCH  21  22
HETATM   22  C           1     -33.239  -5.577 -11.319  0.00  0.00     0.003 C 
BRANCH  22  23
HETATM   23 Se           1     -34.814  -5.824 -10.198  0.00  0.00     0.000 Se
HETATM   24  C           1     -34.670  -7.767 -10.140  0.00  0.00     0.000 C 
ENDBRANCH  22  23
ENDBRANCH  21  22
ENDBRANCH  17  21
ENDBRANCH   3  17
TORSDOF 9
ENDMDL
MODEL 6
REMARK VINA RESULT:      -6.4     12.569     15.922
REMARK  9 active torsions:
REMARK  status: ('A' for Active; 'I' for Inactive)
REMARK       I    between atoms: C_1  and  N_7 
REMARK    1  A    between atoms: C_1  and  C_12 
REMARK    2  A    between atoms: C_2  and  C_24 
REMARK    3  A    between atoms: N_7  and  C_24 
REMARK    4  A    between atoms: C_8  and  Se_9 
REMARK    5  A    between atoms: C_8  and  C_17 
REMARK    6  A    between atoms: C_12  and  C_13 
REMARK    7  A    between atoms: C_12  and  N_23 
REMARK    8  A    between atoms: C_13  and  C_14 
REMARK    9  A    between atoms: C_17  and  C_24 
ROOT
HETATM    1  C           1     -35.116  -1.542 -11.263  0.00  0.00     0.249 C 
HETATM    2  O           1     -34.164  -1.275 -10.568  0.00  0.00    -0.271 OA
HETATM    3  N           1     -35.312  -2.828 -11.690  0.00  0.00    -0.345 N 
HETATM    4  H           1     -36.109  -3.051 -12.272  0.00  0.00     0.163 HD
ENDROOT
BRANCH   1   5
HETATM    5  C           1     -36.088  -0.459 -11.659  0.00  0.00     0.278 C 
BRANCH   5   6
HETATM    6  C           1     -35.486   0.381 -12.779  0.00  0.00     0.081 C 
BRANCH   6   7
HETATM    7  C           1     -36.109  -0.006 -14.084  0.00  0.00    -0.056 A 
HETATM    8  C           1     -37.494   0.042 -14.236  0.00  0.00     0.007 A 
HETATM    9  C           1     -38.075  -0.317 -15.452  0.00  0.00     0.001 A 
HETATM   10  C           1     -37.270  -0.723 -16.517  0.00  0.00     0.000 A 
HETATM   11  C           1     -35.884  -0.769 -16.365  0.00  0.00     0.001 A 
HETATM   12  C           1     -35.303  -0.410 -15.149  0.00  0.00     0.007 A 
ENDBRANCH   6   7
ENDBRANCH   5   6
BRANCH   5  13
HETATM   13  N           1     -36.370   0.417 -10.476  0.00  0.00    -0.066 N 
HETATM   14  H           1     -36.588   1.385 -10.802  0.00  0.00     0.275 HD
HETATM   15  H           1     -35.533   0.440  -9.851  0.00  0.00     0.275 HD
HETATM   16  H           1     -37.188   0.036  -9.947  0.00  0.00     0.275 HD
ENDBRANCH   5  13
ENDBRANCH   1   5
BRANCH   3  17
HETATM   17  C           1     -34.378  -3.870 -11.309  0.00  0.00     0.185 C 
BRANCH  17  18
HETATM   18  C           1     -33.330  -4.023 -12.384  0.00  0.00     0.196 C 
HETATM   19  O           1     -32.136  -4.220 -12.068  0.00  0.00    -0.646 OA
HETATM   20  O           1     -33.655  -3.953 -13.588  0.00  0.00    -0.646 OA
ENDBRANCH  17  18
BRANCH  17  21
HETATM   21  C           1     -35.126  -5.186 -11.139  0.00  0.00     0.036 C 
BRANCH  21  22
HETATM   22  C           1     -34.145  -6.282 -10.745  0.00  0.00     0.003 C 
BRANCH  22  23
HETATM   23 Se           1     -35.075  -7.649  -9.714  0.00  0.00     0.000 Se
HETATM   24  C           1     -33.664  -8.981  -9.898  0.00  0.00     0.000 C 
ENDBRANCH  22  23
ENDBRANCH  21  22
ENDBRANCH  17  21
ENDBRANCH   3  17
TORSDOF 9
ENDMDL
MODEL 7
REMARK VINA RESULT:      -6.3      4.375      8.219
REMARK  9 active torsions:
REMARK  status: ('A' for Active; 'I' for Inactive)
REMARK       I    between atoms: C_1  and  N_7 
REMARK    1  A    between atoms: C_1  and  C_12 
REMARK    2  A    between atoms: C_2  and  C_24 
REMARK    3  A    between atoms: N_7  and  C_24 
REMARK    4  A    between atoms: C_8  and  Se_9 
REMARK    5  A    between atoms: C_8  and  C_17 
REMARK    6  A    between atoms: C_12  and  C_13 
REMARK    7  A    between atoms: C_12  and  N_23 
REMARK    8  A    between atoms: C_13  and  C_14 
REMARK    9  A    between atoms: C_17  and  C_24 
ROOT
HETATM    1  C           1     -20.534  -7.104  -5.788  0.00  0.00     0.249 C 
HETATM    2  O           1     -19.502  -7.157  -6.415  0.00  0.00    -0.271 OA
HETATM    3  N           1     -20.732  -7.942  -4.724  0.00  0.00    -0.345 N 
HETATM    4  H           1     -21.596  -7.897  -4.199  0.00  0.00     0.163 HD
ENDROOT
BRANCH   1   5
HETATM    5  C           1     -21.604  -6.114  -6.179  0.00  0.00     0.278 C 
BRANCH   5   6
HETATM    6  C           1     -20.961  -4.774  -6.510  0.00  0.00     0.081 C 
BRANCH   6   7
HETATM    7  C           1     -21.205  -4.444  -7.950  0.00  0.00    -0.056 A 
HETATM    8  C           1     -22.476  -4.053  -8.369  0.00  0.00     0.007 A 
HETATM    9  C           1     -22.703  -3.744  -9.710  0.00  0.00     0.001 A 
HETATM   10  C           1     -21.659  -3.827 -10.632  0.00  0.00     0.000 A 
HETATM   11  C           1     -20.387  -4.217 -10.212  0.00  0.00     0.001 A 
HETATM   12  C           1     -20.160  -4.525  -8.871  0.00  0.00     0.007 A 
ENDBRANCH   6   7
ENDBRANCH   5   6
BRANCH   5  13
HETATM   13  N           1     -22.563  -5.940  -5.041  0.00  0.00    -0.066 N 
HETATM   14  H           1     -22.932  -4.963  -5.042  0.00  0.00     0.275 HD
HETATM   15  H           1     -22.070  -6.125  -4.138  0.00  0.00     0.275 HD
HETATM   16  H           1     -23.358  -6.611  -5.147  0.00  0.00     0.275 HD
ENDBRANCH   5  13
ENDBRANCH   1   5
BRANCH   3  17
HETATM   17  C           1     -19.704  -8.893  -4.348  0.00  0.00     0.185 C 
BRANCH  17  18
HETATM   18  C           1     -20.118 -10.278  -4.781  0.00  0.00     0.196 C 
HETATM   19  O           1     -20.154 -11.209  -3.947  0.00  0.00    -0.646 OA
HETATM   20  O           1     -20.424 -10.494  -5.973  0.00  0.00    -0.646 OA
ENDBRANCH  17  18
BRANCH  17  21
HETATM   21  C           1     -19.519  -8.869  -2.836  0.00  0.00     0.036 C 
BRANCH  21  22
HETATM   22  C           1     -20.607  -8.013  -2.203  0.00  0.00     0.003 C 
BRANCH  22  23
HETATM   23 Se           1     -21.876  -9.158  -1.268  0.00  0.00     0.000 Se
HETATM   24  C           1     -22.436  -7.784  -0.004  0.00  0.00     0.000 C 
ENDBRANCH  22  23
ENDBRANCH  21  22
ENDBRANCH  17  21
ENDBRANCH   3  17
TORSDOF 9
ENDMDL
MODEL 8
REMARK VINA RESULT:      -6.1      5.325      8.918
REMARK  9 active torsions:
REMARK  status: ('A' for Active; 'I' for Inactive)
REMARK       I    between atoms: C_1  and  N_7 
REMARK    1  A    between atoms: C_1  and  C_12 
REMARK    2  A    between atoms: C_2  and  C_24 
REMARK    3  A    between atoms: N_7  and  C_24 
REMARK    4  A    between atoms: C_8  and  Se_9 
REMARK    5  A    between atoms: C_8  and  C_17 
REMARK    6  A    between atoms: C_12  and  C_13 
REMARK    7  A    between atoms: C_12  and  N_23 
REMARK    8  A    between atoms: C_13  and  C_14 
REMARK    9  A    between atoms: C_17  and  C_24 
ROOT
HETATM    1  C           1     -21.376  -8.263  -3.737  0.00  0.00     0.249 C 
HETATM    2  O           1     -21.984  -9.274  -4.004  0.00  0.00    -0.271 OA
HETATM    3  N           1     -21.256  -7.861  -2.434  0.00  0.00    -0.345 N 
HETATM    4  H           1     -20.747  -7.015  -2.211  0.00  0.00     0.163 HD
ENDROOT
BRANCH   1   5
HETATM    5  C           1     -20.751  -7.446  -4.840  0.00  0.00     0.278 C 
BRANCH   5   6
HETATM    6  C           1     -21.224  -6.002  -4.734  0.00  0.00     0.081 C 
BRANCH   6   7
HETATM    7  C           1     -20.923  -5.282  -6.013  0.00  0.00    -0.056 A 
HETATM    8  C           1     -19.599  -5.061  -6.393  0.00  0.00     0.007 A 
HETATM    9  C           1     -19.318  -4.392  -7.583  0.00  0.00     0.001 A 
HETATM   10  C           1     -20.361  -3.943  -8.394  0.00  0.00     0.000 A 
HETATM   11  C           1     -21.685  -4.165  -8.014  0.00  0.00     0.001 A 
HETATM   12  C           1     -21.966  -4.834  -6.823  0.00  0.00     0.007 A 
ENDBRANCH   6   7
ENDBRANCH   5   6
BRANCH   5  13
HETATM   13  N           1     -21.156  -8.008  -6.169  0.00  0.00    -0.066 N 
HETATM   14  H           1     -21.114  -7.256  -6.894  0.00  0.00     0.275 HD
HETATM   15  H           1     -22.131  -8.379  -6.108  0.00  0.00     0.275 HD
HETATM   16  H           1     -20.505  -8.782  -6.435  0.00  0.00     0.275 HD
ENDBRANCH   5  13
ENDBRANCH   1   5
BRANCH   3  17
HETATM   17  C           1     -21.857  -8.646  -1.373  0.00  0.00     0.185 C 
BRANCH  17  18
HETATM   18  C           1     -22.520  -7.725  -0.379  0.00  0.00     0.196 C 
HETATM   19  O           1     -22.942  -8.178   0.707  0.00  0.00    -0.646 OA
HETATM   20  O           1     -22.646  -6.510  -0.642  0.00  0.00    -0.646 OA
ENDBRANCH  17  18
BRANCH  17  21
HETATM   21  C           1     -20.778  -9.460  -0.670  0.00  0.00     0.036 C 
BRANCH  21  22
HETATM   22  C           1     -20.954 -10.935  -1.004  0.00  0.00     0.003 C 
BRANCH  22  23
HETATM   23 Se           1     -22.170 -11.753   0.281  0.00  0.00     0.000 Se
HETATM   24  C           1     -23.700 -11.762  -0.926  0.00  0.00     0.000 C 
ENDBRANCH  22  23
ENDBRANCH  21  22
ENDBRANCH  17  21
ENDBRANCH   3  17
TORSDOF 9
ENDMDL
MODEL 9
REMARK VINA RESULT:      -6.1      5.001      8.393
REMARK  9 active torsions:
REMARK  status: ('A' for Active; 'I' for Inactive)
REMARK       I    between atoms: C_1  and  N_7 
REMARK    1  A    between atoms: C_1  and  C_12 
REMARK    2  A    between atoms: C_2  and  C_24 
REMARK    3  A    between atoms: N_7  and  C_24 
REMARK    4  A    between atoms: C_8  and  Se_9 
REMARK    5  A    between atoms: C_8  and  C_17 
REMARK    6  A    between atoms: C_12  and  C_13 
REMARK    7  A    between atoms: C_12  and  N_23 
REMARK    8  A    between atoms: C_13  and  C_14 
REMARK    9  A    between atoms: C_17  and  C_24 
ROOT
HETATM    1  C           1     -21.013  -7.705  -4.892  0.00  0.00     0.249 C 
HETATM    2  O           1     -20.946  -8.336  -5.921  0.00  0.00    -0.271 OA
HETATM    3  N           1     -20.479  -8.216  -3.740  0.00  0.00    -0.345 N 
HETATM    4  H           1     -20.536  -7.687  -2.879  0.00  0.00     0.163 HD
ENDROOT
BRANCH   1   5
HETATM    5  C           1     -21.684  -6.354  -4.879  0.00  0.00     0.278 C 
BRANCH   5   6
HETATM    6  C           1     -20.673  -5.280  -5.259  0.00  0.00     0.081 C 
BRANCH   6   7
HETATM    7  C           1     -20.874  -4.886  -6.690  0.00  0.00    -0.056 A 
HETATM    8  C           1     -22.150  -4.560  -7.150  0.00  0.00     0.007 A 
HETATM    9  C           1     -22.337  -4.193  -8.482  0.00  0.00     0.001 A 
HETATM   10  C           1     -21.250  -4.152  -9.354  0.00  0.00     0.000 A 
HETATM   11  C           1     -19.974  -4.478  -8.893  0.00  0.00     0.001 A 
HETATM   12  C           1     -19.786  -4.845  -7.561  0.00  0.00     0.007 A 
ENDBRANCH   6   7
ENDBRANCH   5   6
BRANCH   5  13
HETATM   13  N           1     -22.218  -6.075  -3.506  0.00  0.00    -0.066 N 
HETATM   14  H           1     -22.065  -5.068  -3.271  0.00  0.00     0.275 HD
HETATM   15  H           1     -21.720  -6.675  -2.810  0.00  0.00     0.275 HD
HETATM   16  H           1     -23.241  -6.286  -3.479  0.00  0.00     0.275 HD
ENDBRANCH   5  13
ENDBRANCH   1   5
BRANCH   3  17
HETATM   17  C           1     -19.834  -9.515  -3.752  0.00  0.00     0.185 C 
BRANCH  17  18
HETATM   18  C           1     -20.248 -10.294  -2.529  0.00  0.00     0.196 C 
HETATM   19  O           1     -19.382 -10.858  -1.825  0.00  0.00    -0.646 OA
HETATM   20  O           1     -21.456 -10.375  -2.219  0.00  0.00    -0.646 OA
ENDBRANCH  17  18
BRANCH  17  21
HETATM   21  C           1     -18.321  -9.330  -3.747  0.00  0.00     0.036 C 
BRANCH  21  22
HETATM   22  C           1     -17.719 -10.036  -4.955  0.00  0.00     0.003 C 
BRANCH  22  23
HETATM   23 Se           1     -15.816 -10.331  -4.654  0.00  0.00     0.000 Se
HETATM   24  C           1     -15.898  -9.983  -2.738  0.00  0.00     0.000 C 
ENDBRANCH  22  23
ENDBRANCH  21  22
ENDBRANCH  17  21
ENDBRANCH   3  17
TORSDOF 9
ENDMDL
