MODEL 1
REMARK VINA RESULT:      -6.9      0.000      0.000
REMARK  6 active torsions:
REMARK  status: ('A' for Active; 'I' for Inactive)
REMARK    1  A    between atoms: N_1  and  C_12 
REMARK    2  A    between atoms: C_5  and  C_6 
REMARK    3  A    between atoms: C_5  and  N_18 
REMARK       I    between atoms: C_11  and  N_18 
REMARK    4  A    between atoms: C_11  and  C_12 
REMARK    5  A    between atoms: C_12  and  C_13 
REMARK    6  A    between atoms: C_13  and  C_14 
ROOT
HETATM    1  O           1     -36.606  -1.349 -12.527  0.00  0.00    -0.271 OA
HETATM    2  H           1     -33.954  -0.958 -14.157  0.00  0.00     0.163 HD
HETATM    3  C           1     -35.427  -1.418 -12.776  0.00  0.00     0.249 C 
HETATM    4  N           1     -34.943  -0.901 -13.948  0.00  0.00    -0.345 N 
ENDROOT
BRANCH   3   5
HETATM    5  C           1     -34.485  -2.073 -11.795  0.00  0.00     0.275 C 
BRANCH   5   6
HETATM    6  N           1     -34.592  -1.387 -10.466  0.00  0.00    -0.066 N 
HETATM    7  H           1     -35.598  -1.298 -10.199  0.00  0.00     0.275 HD
HETATM    8  H           1     -34.087  -1.948  -9.743  0.00  0.00     0.275 HD
HETATM    9  H           1     -34.163  -0.435 -10.529  0.00  0.00     0.275 HD
ENDBRANCH   5   6
BRANCH   5  10
HETATM   10  C           1     -34.855  -3.542 -11.639  0.00  0.00     0.046 C 
BRANCH  10  11
HETATM   11  C           1     -33.707  -4.287 -10.972  0.00  0.00    -0.020 C 
HETATM   12  C           1     -34.157  -5.699 -10.616  0.00  0.00     0.009 C 
HETATM   13  C           1     -32.525  -4.358 -11.929  0.00  0.00     0.009 C 
ENDBRANCH  10  11
ENDBRANCH   5  10
ENDBRANCH   3   5
BRANCH   4  14
HETATM   14  C           1     -35.847  -0.271 -14.891  0.00  0.00     0.181 C 
HETATM   15  C           1     -35.401   1.163 -15.142  0.00  0.00     0.043 C 
BRANCH  14  16
HETATM   16  C           1     -35.832  -1.038 -16.190  0.00  0.00     0.196 C 
HETATM   17  O           1     -36.572  -0.686 -17.133  0.00  0.00    -0.646 OA
HETATM   18  O           1     -35.078  -2.027 -16.323  0.00  0.00    -0.646 OA
ENDBRANCH  14  16
ENDBRANCH   4  14
TORSDOF 6
ENDMDL
MODEL 2
REMARK VINA RESULT:      -6.1      1.706      2.343
REMARK  6 active torsions:
REMARK  status: ('A' for Active; 'I' for Inactive)
REMARK    1  A    between atoms: N_1  and  C_12 
REMARK    2  A    between atoms: C_5  and  C_6 
REMARK    3  A    between atoms: C_5  and  N_18 
REMARK       I    between atoms: C_11  and  N_18 
REMARK    4  A    between atoms: C_11  and  C_12 
REMARK    5  A    between atoms: C_12  and  C_13 
REMARK    6  A    between atoms: C_13  and  C_14 
ROOT
HETATM    1  O           1     -34.676  -2.765 -13.821  0.00  0.00    -0.271 OA
HETATM    2  H           1     -35.462  -0.490 -11.809  0.00  0.00     0.163 HD
HETATM    3  C           1     -34.731  -2.171 -12.772  0.00  0.00     0.249 C 
HETATM    4  N           1     -35.415  -0.988 -12.689  0.00  0.00    -0.345 N 
ENDROOT
BRANCH   3   5
HETATM    5  C           1     -34.047  -2.733 -11.549  0.00  0.00     0.275 C 
BRANCH   5   6
HETATM    6  N           1     -33.906  -1.655 -10.516  0.00  0.00    -0.066 N 
HETATM    7  H           1     -34.852  -1.380 -10.167  0.00  0.00     0.275 HD
HETATM    8  H           1     -33.330  -2.010  -9.719  0.00  0.00     0.275 HD
HETATM    9  H           1     -33.437  -0.824 -10.941  0.00  0.00     0.275 HD
ENDBRANCH   5   6
BRANCH   5  10
HETATM   10  C           1     -34.879  -3.875 -10.981  0.00  0.00     0.046 C 
BRANCH  10  11
HETATM   11  C           1     -34.263  -5.206 -11.391  0.00  0.00    -0.020 C 
HETATM   12  C           1     -32.769  -5.024 -11.626  0.00  0.00     0.009 C 
HETATM   13  C           1     -34.482  -6.227 -10.283  0.00  0.00     0.009 C 
ENDBRANCH  10  11
ENDBRANCH   5  10
ENDBRANCH   3   5
BRANCH   4  14
HETATM   14  C           1     -36.073  -0.447 -13.863  0.00  0.00     0.181 C 
HETATM   15  C           1     -37.514  -0.094 -13.520  0.00  0.00     0.043 C 
BRANCH  14  16
HETATM   16  C           1     -35.345   0.793 -14.321  0.00  0.00     0.196 C 
HETATM   17  O           1     -34.464   1.303 -13.597  0.00  0.00    -0.646 OA
HETATM   18  O           1     -35.624   1.310 -15.424  0.00  0.00    -0.646 OA
ENDBRANCH  14  16
ENDBRANCH   4  14
TORSDOF 6
ENDMDL
MODEL 3
REMARK VINA RESULT:      -6.1     11.645     13.163
REMARK  6 active torsions:
REMARK  status: ('A' for Active; 'I' for Inactive)
REMARK    1  A    between atoms: N_1  and  C_12 
REMARK    2  A    between atoms: C_5  and  C_6 
REMARK    3  A    between atoms: C_5  and  N_18 
REMARK       I    between atoms: C_11  and  N_18 
REMARK    4  A    between atoms: C_11  and  C_12 
REMARK    5  A    between atoms: C_12  and  C_13 
REMARK    6  A    between atoms: C_13  and  C_14 
ROOT
HETATM    1  O           1     -23.290  -5.146 -11.533  0.00  0.00    -0.271 OA
HETATM    2  H           1     -21.687  -2.757 -12.783  0.00  0.00     0.163 HD
HETATM    3  C           1     -22.383  -4.363 -11.677  0.00  0.00     0.249 C 
HETATM    4  N           1     -22.447  -3.414 -12.662  0.00  0.00    -0.345 N 
ENDROOT
BRANCH   3   5
HETATM    5  C           1     -21.177  -4.429 -10.772  0.00  0.00     0.275 C 
BRANCH   5   6
HETATM    6  N           1     -20.068  -3.606 -11.356  0.00  0.00    -0.066 N 
HETATM    7  H           1     -19.922  -3.875 -12.355  0.00  0.00     0.275 HD
HETATM    8  H           1     -20.320  -2.593 -11.301  0.00  0.00     0.275 HD
HETATM    9  H           1     -19.188  -3.775 -10.818  0.00  0.00     0.275 HD
ENDBRANCH   5   6
BRANCH   5  10
HETATM   10  C           1     -21.543  -3.885  -9.398  0.00  0.00     0.046 C 
BRANCH  10  11
HETATM   11  C           1     -21.024  -4.829  -8.322  0.00  0.00    -0.020 C 
HETATM   12  C           1     -19.614  -4.415  -7.919  0.00  0.00     0.009 C 
HETATM   13  C           1     -21.939  -4.764  -7.106  0.00  0.00     0.009 C 
ENDBRANCH  10  11
ENDBRANCH   5  10
ENDBRANCH   3   5
BRANCH   4  14
HETATM   14  C           1     -23.606  -3.349 -13.532  0.00  0.00     0.181 C 
HETATM   15  C           1     -24.799  -2.818 -12.749  0.00  0.00     0.043 C 
BRANCH  14  16
HETATM   16  C           1     -23.313  -2.428 -14.690  0.00  0.00     0.196 C 
HETATM   17  O           1     -24.006  -1.402 -14.864  0.00  0.00    -0.646 OA
HETATM   18  O           1     -22.377  -2.690 -15.477  0.00  0.00    -0.646 OA
ENDBRANCH  14  16
ENDBRANCH   4  14
TORSDOF 6
ENDMDL
MODEL 4
REMARK VINA RESULT:      -6.0     12.845     14.539
REMARK  6 active torsions:
REMARK  status: ('A' for Active; 'I' for Inactive)
REMARK    1  A    between atoms: N_1  and  C_12 
REMARK    2  A    between atoms: C_5  and  C_6 
REMARK    3  A    between atoms: C_5  and  N_18 
REMARK       I    between atoms: C_11  and  N_18 
REMARK    4  A    between atoms: C_11  and  C_12 
REMARK    5  A    between atoms: C_12  and  C_13 
REMARK    6  A    between atoms: C_13  and  C_14 
ROOT
HETATM    1  O           1     -21.473  -3.527  -7.058  0.00  0.00    -0.271 OA
HETATM    2  H           1     -22.378  -5.698  -9.133  0.00  0.00     0.163 HD
HETATM    3  C           1     -21.616  -4.628  -7.534  0.00  0.00     0.249 C 
HETATM    4  N           1     -22.258  -4.776  -8.734  0.00  0.00    -0.345 N 
ENDROOT
BRANCH   3   5
HETATM    5  C           1     -21.087  -5.840  -6.807  0.00  0.00     0.275 C 
BRANCH   5   6
HETATM    6  N           1     -19.773  -6.247  -7.405  0.00  0.00    -0.066 N 
HETATM    7  H           1     -19.930  -6.624  -8.366  0.00  0.00     0.275 HD
HETATM    8  H           1     -19.141  -5.417  -7.454  0.00  0.00     0.275 HD
HETATM    9  H           1     -19.334  -6.985  -6.809  0.00  0.00     0.275 HD
ENDBRANCH   5   6
BRANCH   5  10
HETATM   10  C           1     -20.891  -5.503  -5.334  0.00  0.00     0.046 C 
BRANCH  10  11
HETATM   11  C           1     -21.808  -6.375  -4.487  0.00  0.00    -0.020 C 
HETATM   12  C           1     -21.619  -7.837  -4.874  0.00  0.00     0.009 C 
HETATM   13  C           1     -21.464  -6.192  -3.015  0.00  0.00     0.009 C 
ENDBRANCH  10  11
ENDBRANCH   5  10
ENDBRANCH   3   5
BRANCH   4  14
HETATM   14  C           1     -22.767  -3.612  -9.434  0.00  0.00     0.181 C 
HETATM   15  C           1     -22.049  -3.469 -10.769  0.00  0.00     0.043 C 
BRANCH  14  16
HETATM   16  C           1     -24.247  -3.777  -9.672  0.00  0.00     0.196 C 
HETATM   17  O           1     -25.014  -2.798  -9.544  0.00  0.00    -0.646 OA
HETATM   18  O           1     -24.708  -4.893  -9.998  0.00  0.00    -0.646 OA
ENDBRANCH  14  16
ENDBRANCH   4  14
TORSDOF 6
ENDMDL
MODEL 5
REMARK VINA RESULT:      -5.9     12.100     13.826
REMARK  6 active torsions:
REMARK  status: ('A' for Active; 'I' for Inactive)
REMARK    1  A    between atoms: N_1  and  C_12 
REMARK    2  A    between atoms: C_5  and  C_6 
REMARK    3  A    between atoms: C_5  and  N_18 
REMARK       I    between atoms: C_11  and  N_18 
REMARK    4  A    between atoms: C_11  and  C_12 
REMARK    5  A    between atoms: C_12  and  C_13 
REMARK    6  A    between atoms: C_13  and  C_14 
ROOT
HETATM    1  O           1     -20.725  -3.742  -9.113  0.00  0.00    -0.271 OA
HETATM    2  H           1     -23.841  -4.095  -9.191  0.00  0.00     0.163 HD
HETATM    3  C           1     -21.831  -4.006  -8.706  0.00  0.00     0.249 C 
HETATM    4  N           1     -22.914  -3.874  -9.532  0.00  0.00    -0.345 N 
ENDROOT
BRANCH   3   5
HETATM    5  C           1     -22.019  -4.481  -7.286  0.00  0.00     0.275 C 
BRANCH   5   6
HETATM    6  N           1     -23.480  -4.485  -6.949  0.00  0.00    -0.066 N 
HETATM    7  H           1     -24.026  -4.123  -7.763  0.00  0.00     0.275 HD
HETATM    8  H           1     -23.785  -5.460  -6.730  0.00  0.00     0.275 HD
HETATM    9  H           1     -23.648  -3.873  -6.118  0.00  0.00     0.275 HD
ENDBRANCH   5   6
BRANCH   5  10
HETATM   10  C           1     -21.463  -5.892  -7.145  0.00  0.00     0.046 C 
BRANCH  10  11
HETATM   11  C           1     -20.682  -6.004  -5.843  0.00  0.00    -0.020 C 
HETATM   12  C           1     -20.133  -4.635  -5.460  0.00  0.00     0.009 C 
HETATM   13  C           1     -21.604  -6.506  -4.740  0.00  0.00     0.009 C 
ENDBRANCH  10  11
ENDBRANCH   5  10
ENDBRANCH   3   5
BRANCH   4  14
HETATM   14  C           1     -22.734  -3.417 -10.897  0.00  0.00     0.181 C 
HETATM   15  C           1     -22.072  -4.517 -11.716  0.00  0.00     0.043 C 
BRANCH  14  16
HETATM   16  C           1     -24.078  -3.082 -11.495  0.00  0.00     0.196 C 
HETATM   17  O           1     -25.115  -3.195 -10.807  0.00  0.00    -0.646 OA
HETATM   18  O           1     -24.154  -2.692 -12.681  0.00  0.00    -0.646 OA
ENDBRANCH  14  16
ENDBRANCH   4  14
TORSDOF 6
ENDMDL
MODEL 6
REMARK VINA RESULT:      -5.9      1.627      2.187
REMARK  6 active torsions:
REMARK  status: ('A' for Active; 'I' for Inactive)
REMARK    1  A    between atoms: N_1  and  C_12 
REMARK    2  A    between atoms: C_5  and  C_6 
REMARK    3  A    between atoms: C_5  and  N_18 
REMARK       I    between atoms: C_11  and  N_18 
REMARK    4  A    between atoms: C_11  and  C_12 
REMARK    5  A    between atoms: C_12  and  C_13 
REMARK    6  A    between atoms: C_13  and  C_14 
ROOT
HETATM    1  O           1     -34.950  -2.224 -13.383  0.00  0.00    -0.271 OA
HETATM    2  H           1     -34.814  -0.030 -11.145  0.00  0.00     0.163 HD
HETATM    3  C           1     -34.662  -1.726 -12.321  0.00  0.00     0.249 C 
HETATM    4  N           1     -35.055  -0.446 -12.035  0.00  0.00    -0.345 N 
ENDROOT
BRANCH   3   5
HETATM    5  C           1     -33.869  -2.515 -11.309  0.00  0.00     0.275 C 
BRANCH   5   6
HETATM    6  N           1     -33.665  -1.685 -10.076  0.00  0.00    -0.066 N 
HETATM    7  H           1     -34.483  -1.803  -9.437  0.00  0.00     0.275 HD
HETATM    8  H           1     -32.793  -1.993  -9.589  0.00  0.00     0.275 HD
HETATM    9  H           1     -33.576  -0.679 -10.345  0.00  0.00     0.275 HD
ENDBRANCH   5   6
BRANCH   5  10
HETATM   10  C           1     -34.629  -3.784 -10.945  0.00  0.00     0.046 C 
BRANCH  10  11
HETATM   11  C           1     -33.648  -4.938 -10.790  0.00  0.00    -0.020 C 
HETATM   12  C           1     -34.390  -6.260 -10.944  0.00  0.00     0.009 C 
HETATM   13  C           1     -32.570  -4.834 -11.860  0.00  0.00     0.009 C 
ENDBRANCH  10  11
ENDBRANCH   5  10
ENDBRANCH   3   5
BRANCH   4  14
HETATM   14  C           1     -35.818   0.312 -13.008  0.00  0.00     0.181 C 
HETATM   15  C           1     -35.098   0.283 -14.351  0.00  0.00     0.043 C 
BRANCH  14  16
HETATM   16  C           1     -37.189  -0.298 -13.158  0.00  0.00     0.196 C 
HETATM   17  O           1     -37.574  -0.704 -14.276  0.00  0.00    -0.646 OA
HETATM   18  O           1     -37.940  -0.399 -12.164  0.00  0.00    -0.646 OA
ENDBRANCH  14  16
ENDBRANCH   4  14
TORSDOF 6
ENDMDL
MODEL 7
REMARK VINA RESULT:      -5.6      2.445      3.922
REMARK  6 active torsions:
REMARK  status: ('A' for Active; 'I' for Inactive)
REMARK    1  A    between atoms: N_1  and  C_12 
REMARK    2  A    between atoms: C_5  and  C_6 
REMARK    3  A    between atoms: C_5  and  N_18 
REMARK       I    between atoms: C_11  and  N_18 
REMARK    4  A    between atoms: C_11  and  C_12 
REMARK    5  A    between atoms: C_12  and  C_13 
REMARK    6  A    between atoms: C_13  and  C_14 
ROOT
HETATM    1  O           1     -34.704  -1.036 -13.413  0.00  0.00    -0.271 OA
HETATM    2  H           1     -36.416  -2.037 -10.982  0.00  0.00     0.163 HD
HETATM    3  C           1     -35.120  -1.804 -12.580  0.00  0.00     0.249 C 
HETATM    4  N           1     -36.067  -1.393 -11.681  0.00  0.00    -0.345 N 
ENDROOT
BRANCH   3   5
HETATM    5  C           1     -34.596  -3.219 -12.529  0.00  0.00     0.275 C 
BRANCH   5   6
HETATM    6  N           1     -33.942  -3.557 -13.835  0.00  0.00    -0.066 N 
HETATM    7  H           1     -34.642  -4.001 -14.471  0.00  0.00     0.275 HD
HETATM    8  H           1     -33.574  -2.684 -14.277  0.00  0.00     0.275 HD
HETATM    9  H           1     -33.154  -4.223 -13.668  0.00  0.00     0.275 HD
ENDBRANCH   5   6
BRANCH   5  10
HETATM   10  C           1     -33.576  -3.342 -11.404  0.00  0.00     0.046 C 
BRANCH  10  11
HETATM   11  C           1     -33.874  -4.589 -10.582  0.00  0.00    -0.020 C 
HETATM   12  C           1     -35.378  -4.834 -10.556  0.00  0.00     0.009 C 
HETATM   13  C           1     -33.176  -5.788 -11.210  0.00  0.00     0.009 C 
ENDBRANCH  10  11
ENDBRANCH   5  10
ENDBRANCH   3   5
BRANCH   4  14
HETATM   14  C           1     -36.571  -0.033 -11.730  0.00  0.00     0.181 C 
HETATM   15  C           1     -37.784   0.025 -12.649  0.00  0.00     0.043 C 
BRANCH  14  16
HETATM   16  C           1     -36.968   0.404 -10.342  0.00  0.00     0.196 C 
HETATM   17  O           1     -36.192   0.217  -9.380  0.00  0.00    -0.646 OA
HETATM   18  O           1     -38.075   0.956 -10.153  0.00  0.00    -0.646 OA
ENDBRANCH  14  16
ENDBRANCH   4  14
TORSDOF 6
ENDMDL
MODEL 8
REMARK VINA RESULT:      -5.6      3.424      5.062
REMARK  6 active torsions:
REMARK  status: ('A' for Active; 'I' for Inactive)
REMARK    1  A    between atoms: N_1  and  C_12 
REMARK    2  A    between atoms: C_5  and  C_6 
REMARK    3  A    between atoms: C_5  and  N_18 
REMARK       I    between atoms: C_11  and  N_18 
REMARK    4  A    between atoms: C_11  and  C_12 
REMARK    5  A    between atoms: C_12  and  C_13 
REMARK    6  A    between atoms: C_13  and  C_14 
ROOT
HETATM    1  O           1     -34.986   0.113 -12.017  0.00  0.00    -0.271 OA
HETATM    2  H           1     -35.760  -2.485 -10.438  0.00  0.00     0.163 HD
HETATM    3  C           1     -35.611  -0.592 -11.262  0.00  0.00     0.249 C 
HETATM    4  N           1     -35.236  -1.895 -11.071  0.00  0.00    -0.345 N 
ENDROOT
BRANCH   3   5
HETATM    5  C           1     -36.807  -0.036 -10.527  0.00  0.00     0.275 C 
BRANCH   5   6
HETATM    6  N           1     -38.066  -0.508 -11.191  0.00  0.00    -0.066 N 
HETATM    7  H           1     -37.934  -1.487 -11.532  0.00  0.00     0.275 HD
HETATM    8  H           1     -38.853  -0.480 -10.505  0.00  0.00     0.275 HD
HETATM    9  H           1     -38.287   0.115 -12.001  0.00  0.00     0.275 HD
ENDBRANCH   5   6
BRANCH   5  10
HETATM   10  C           1     -36.784  -0.519  -9.082  0.00  0.00     0.046 C 
BRANCH  10  11
HETATM   11  C           1     -37.625   0.413  -8.221  0.00  0.00    -0.020 C 
HETATM   12  C           1     -36.898   0.688  -6.910  0.00  0.00     0.009 C 
HETATM   13  C           1     -37.847   1.725  -8.962  0.00  0.00     0.009 C 
ENDBRANCH  10  11
ENDBRANCH   5  10
ENDBRANCH   3   5
BRANCH   4  14
HETATM   14  C           1     -34.087  -2.429 -11.777  0.00  0.00     0.181 C 
HETATM   15  C           1     -33.344  -3.402 -10.872  0.00  0.00     0.043 C 
BRANCH  14  16
HETATM   16  C           1     -34.552  -3.150 -13.019  0.00  0.00     0.196 C 
HETATM   17  O           1     -34.796  -4.375 -12.976  0.00  0.00    -0.646 OA
HETATM   18  O           1     -34.693  -2.521 -14.090  0.00  0.00    -0.646 OA
ENDBRANCH  14  16
ENDBRANCH   4  14
TORSDOF 6
ENDMDL
MODEL 9
REMARK VINA RESULT:      -5.5      2.679      4.981
REMARK  6 active torsions:
REMARK  status: ('A' for Active; 'I' for Inactive)
REMARK    1  A    between atoms: N_1  and  C_12 
REMARK    2  A    between atoms: C_5  and  C_6 
REMARK    3  A    between atoms: C_5  and  N_18 
REMARK       I    between atoms: C_11  and  N_18 
REMARK    4  A    between atoms: C_11  and  C_12 
REMARK    5  A    between atoms: C_12  and  C_13 
REMARK    6  A    between atoms: C_13  and  C_14 
ROOT
HETATM    1  O           1     -35.130  -1.644 -14.177  0.00  0.00    -0.271 OA
HETATM    2  H           1     -34.918  -1.842 -11.053  0.00  0.00     0.163 HD
HETATM    3  C           1     -35.289  -1.324 -13.023  0.00  0.00     0.249 C 
HETATM    4  N           1     -34.786  -2.109 -12.020  0.00  0.00    -0.345 N 
ENDROOT
BRANCH   3   5
HETATM    5  C           1     -36.041  -0.060 -12.686  0.00  0.00     0.275 C 
BRANCH   5   6
HETATM    6  N           1     -36.627   0.522 -13.938  0.00  0.00    -0.066 N 
HETATM    7  H           1     -36.430  -0.114 -14.743  0.00  0.00     0.275 HD
HETATM    8  H           1     -37.660   0.629 -13.822  0.00  0.00     0.275 HD
HETATM    9  H           1     -36.198   1.457 -14.121  0.00  0.00     0.275 HD
ENDBRANCH   5   6
BRANCH   5  10
HETATM   10  C           1     -37.160  -0.382 -11.704  0.00  0.00     0.046 C 
BRANCH  10  11
HETATM   11  C           1     -36.846   0.243 -10.352  0.00  0.00    -0.020 C 
HETATM   12  C           1     -38.075   0.981  -9.834  0.00  0.00     0.009 C 
HETATM   13  C           1     -36.459  -0.851  -9.366  0.00  0.00     0.009 C 
ENDBRANCH  10  11
ENDBRANCH   5  10
ENDBRANCH   3   5
BRANCH   4  14
HETATM   14  C           1     -34.062  -3.324 -12.343  0.00  0.00     0.181 C 
HETATM   15  C           1     -32.788  -3.392 -11.512  0.00  0.00     0.043 C 
BRANCH  14  16
HETATM   16  C           1     -34.929  -4.520 -12.036  0.00  0.00     0.196 C 
HETATM   17  O           1     -35.363  -4.697 -10.878  0.00  0.00    -0.646 OA
HETATM   18  O           1     -35.212  -5.336 -12.941  0.00  0.00    -0.646 OA
ENDBRANCH  14  16
ENDBRANCH   4  14
TORSDOF 6
ENDMDL
