MODEL 1
REMARK VINA RESULT:      -8.2      0.000      0.000
REMARK  16 active torsions:
REMARK  status: ('A' for Active; 'I' for Inactive)
REMARK       I    between atoms: N_1  and  C_15 
REMARK    1  A    between atoms: C_4  and  C_5 
REMARK    2  A    between atoms: C_5  and  C_6 
REMARK    3  A    between atoms: C_5  and  N_21 
REMARK    4  A    between atoms: C_6  and  C_7 
REMARK    5  A    between atoms: C_7  and  N_8 
REMARK    6  A    between atoms: N_8  and  C_34 
REMARK    7  A    between atoms: C_10  and  C_17 
REMARK    8  A    between atoms: C_10  and  N_24 
REMARK    9  A    between atoms: N_13  and  C_19 
REMARK       I    between atoms: N_14  and  C_15 
REMARK   10  A    between atoms: C_17  and  C_18 
REMARK   11  A    between atoms: C_18  and  C_19 
REMARK   12  A    between atoms: C_19  and  C_20 
REMARK       I    between atoms: C_20  and  N_21 
REMARK   13  A    between atoms: C_23  and  C_34 
REMARK   14  A    between atoms: C_29  and  O_30 
REMARK   15  A    between atoms: C_32  and  C_35 
REMARK   16  A    between atoms: C_34  and  C_35 
ROOT
HETATM    1  C           1     -21.127  -4.284  -7.366  0.00  0.00     0.187 C 
ENDROOT
BRANCH   1   2
HETATM    2  C           1     -19.787  -4.328  -8.060  0.00  0.00     0.196 C 
HETATM    3  O           1     -18.741  -4.470  -7.390  0.00  0.00    -0.646 OA
HETATM    4  O           1     -19.724  -4.221  -9.303  0.00  0.00    -0.646 OA
ENDBRANCH   1   2
BRANCH   1   5
HETATM    5  C           1     -21.026  -4.987  -6.020  0.00  0.00     0.066 C 
BRANCH   5   6
HETATM    6  C           1     -21.283  -6.477  -6.203  0.00  0.00     0.273 C 
BRANCH   6   7
HETATM    7  N           1     -20.037  -7.193  -6.116  0.00  0.00     0.098 N 
HETATM    8  H           1     -19.262  -6.534  -6.193  0.00  0.00     0.317 HD
BRANCH   7   9
HETATM    9  C           1     -19.992  -7.835  -4.831  0.00  0.00     0.324 C 
BRANCH   9  10
HETATM   10  C           1     -18.993  -8.966  -4.869  0.00  0.00     0.207 C 
HETATM   11  O           1     -18.344  -9.261  -3.843  0.00  0.00    -0.646 OA
HETATM   12  O           1     -18.816  -9.607  -5.928  0.00  0.00    -0.646 OA
ENDBRANCH   9  10
BRANCH   9  13
HETATM   13  C           1     -21.371  -8.386  -4.491  0.00  0.00     0.085 C 
BRANCH  13  14
HETATM   14  C           1     -21.624  -8.231  -3.024  0.00  0.00    -0.055 A 
HETATM   15  C           1     -21.619  -9.351  -2.193  0.00  0.00     0.010 A 
HETATM   16  C           1     -21.853  -9.206  -0.826  0.00  0.00     0.037 A 
HETATM   17  C           1     -22.093  -7.942  -0.289  0.00  0.00     0.065 A 
HETATM   18  C           1     -22.098  -6.821  -1.120  0.00  0.00     0.037 A 
HETATM   19  C           1     -21.864  -6.966  -2.488  0.00  0.00     0.010 A 
BRANCH  17  20
HETATM   20  O           1     -22.322  -7.801   1.039  0.00  0.00    -0.361 OA
HETATM   21  H           1     -21.926  -8.564   1.494  0.00  0.00     0.217 HD
ENDBRANCH  17  20
ENDBRANCH  13  14
ENDBRANCH   9  13
ENDBRANCH   7   9
ENDBRANCH   6   7
ENDBRANCH   5   6
ENDBRANCH   1   5
BRANCH   1  22
HETATM   22  N           1     -22.117  -4.954  -8.186  0.00  0.00    -0.345 N 
HETATM   23  C           1     -22.927  -4.225  -9.016  0.00  0.00     0.249 C 
HETATM   24  O           1     -22.818  -3.023  -9.062  0.00  0.00    -0.271 OA
HETATM   25  H           1     -22.209  -5.961  -8.148  0.00  0.00     0.163 HD
BRANCH  23  26
HETATM   26  C           1     -23.958  -4.923  -9.869  0.00  0.00     0.274 C 
BRANCH  26  27
HETATM   27  N           1     -25.292  -4.266  -9.676  0.00  0.00    -0.067 N 
HETATM   28  H           1     -26.045  -4.892 -10.045  0.00  0.00     0.275 HD
HETATM   29  H           1     -25.452  -4.094  -8.658  0.00  0.00     0.275 HD
HETATM   30  H           1     -25.311  -3.358 -10.192  0.00  0.00     0.275 HD
ENDBRANCH  26  27
BRANCH  26  31
HETATM   31  C           1     -23.553  -4.827 -11.334  0.00  0.00     0.044 C 
BRANCH  31  32
HETATM   32  C           1     -24.231  -3.620 -11.971  0.00  0.00     0.023 C 
BRANCH  32  33
HETATM   33  C           1     -23.223  -2.866 -12.829  0.00  0.00     0.138 C 
BRANCH  33  34
HETATM   34  N           1     -23.884  -1.720 -13.471  0.00  0.00    -0.227 N 
HETATM   35  C           1     -23.632  -1.439 -14.679  0.00  0.00     0.665 C 
HETATM   36  N           1     -22.788  -2.163 -15.352  0.00  0.00    -0.235 N 
HETATM   37  N           1     -24.202  -0.453 -15.231  0.00  0.00    -0.235 N 
HETATM   38  H           1     -22.580  -1.931 -16.349  0.00  0.00     0.174 HD
HETATM   39  H           1     -22.318  -2.977 -14.896  0.00  0.00     0.174 HD
HETATM   40  H           1     -23.993  -0.220 -16.233  0.00  0.00     0.174 HD
HETATM   41  H           1     -24.883   0.132 -14.687  0.00  0.00     0.174 HD
HETATM   42  H           1     -24.566  -1.135 -12.926  0.00  0.00     0.177 HD
ENDBRANCH  33  34
ENDBRANCH  32  33
ENDBRANCH  31  32
ENDBRANCH  26  31
ENDBRANCH  23  26
ENDBRANCH   1  22
TORSDOF 16
ENDMDL
MODEL 2
REMARK VINA RESULT:      -7.8      6.613     10.181
REMARK  16 active torsions:
REMARK  status: ('A' for Active; 'I' for Inactive)
REMARK       I    between atoms: N_1  and  C_15 
REMARK    1  A    between atoms: C_4  and  C_5 
REMARK    2  A    between atoms: C_5  and  C_6 
REMARK    3  A    between atoms: C_5  and  N_21 
REMARK    4  A    between atoms: C_6  and  C_7 
REMARK    5  A    between atoms: C_7  and  N_8 
REMARK    6  A    between atoms: N_8  and  C_34 
REMARK    7  A    between atoms: C_10  and  C_17 
REMARK    8  A    between atoms: C_10  and  N_24 
REMARK    9  A    between atoms: N_13  and  C_19 
REMARK       I    between atoms: N_14  and  C_15 
REMARK   10  A    between atoms: C_17  and  C_18 
REMARK   11  A    between atoms: C_18  and  C_19 
REMARK   12  A    between atoms: C_19  and  C_20 
REMARK       I    between atoms: C_20  and  N_21 
REMARK   13  A    between atoms: C_23  and  C_34 
REMARK   14  A    between atoms: C_29  and  O_30 
REMARK   15  A    between atoms: C_32  and  C_35 
REMARK   16  A    between atoms: C_34  and  C_35 
ROOT
HETATM    1  C           1     -25.571  -6.346 -16.263  0.00  0.00     0.187 C 
ENDROOT
BRANCH   1   2
HETATM    2  C           1     -24.623  -7.314 -16.928  0.00  0.00     0.196 C 
HETATM    3  O           1     -24.195  -8.304 -16.295  0.00  0.00    -0.646 OA
HETATM    4  O           1     -24.266  -7.126 -18.111  0.00  0.00    -0.646 OA
ENDBRANCH   1   2
BRANCH   1   5
HETATM    5  C           1     -25.186  -6.182 -14.799  0.00  0.00     0.066 C 
BRANCH   5   6
HETATM    6  C           1     -24.918  -4.711 -14.505  0.00  0.00     0.273 C 
BRANCH   6   7
HETATM    7  N           1     -23.733  -4.592 -13.698  0.00  0.00     0.098 N 
HETATM    8  H           1     -22.927  -4.921 -14.228  0.00  0.00     0.317 HD
BRANCH   7   9
HETATM    9  C           1     -23.561  -3.201 -13.379  0.00  0.00     0.324 C 
BRANCH   9  10
HETATM   10  C           1     -23.333  -2.418 -14.649  0.00  0.00     0.207 C 
HETATM   11  O           1     -24.057  -1.436 -14.916  0.00  0.00    -0.646 OA
HETATM   12  O           1     -22.419  -2.754 -15.433  0.00  0.00    -0.646 OA
ENDBRANCH   9  10
BRANCH   9  13
HETATM   13  C           1     -22.358  -3.038 -12.458  0.00  0.00     0.085 C 
BRANCH  13  14
HETATM   14  C           1     -22.752  -3.384 -11.056  0.00  0.00    -0.055 A 
HETATM   15  C           1     -24.083  -3.266 -10.655  0.00  0.00     0.010 A 
HETATM   16  C           1     -24.449  -3.589  -9.350  0.00  0.00     0.037 A 
HETATM   17  C           1     -23.486  -4.030  -8.443  0.00  0.00     0.065 A 
HETATM   18  C           1     -22.154  -4.149  -8.843  0.00  0.00     0.037 A 
HETATM   19  C           1     -21.788  -3.825 -10.150  0.00  0.00     0.010 A 
BRANCH  17  20
HETATM   20  O           1     -23.842  -4.344  -7.174  0.00  0.00    -0.361 OA
HETATM   21  H           1     -23.043  -4.308  -6.620  0.00  0.00     0.217 HD
ENDBRANCH  17  20
ENDBRANCH  13  14
ENDBRANCH   9  13
ENDBRANCH   7   9
ENDBRANCH   6   7
ENDBRANCH   5   6
ENDBRANCH   1   5
BRANCH   1  22
HETATM   22  N           1     -26.924  -6.858 -16.351  0.00  0.00    -0.345 N 
HETATM   23  C           1     -27.748  -6.448 -17.366  0.00  0.00     0.249 C 
HETATM   24  O           1     -27.346  -5.659 -18.188  0.00  0.00    -0.271 OA
HETATM   25  H           1     -27.261  -7.519 -15.663  0.00  0.00     0.163 HD
BRANCH  23  26
HETATM   26  C           1     -29.156  -6.982 -17.458  0.00  0.00     0.274 C 
BRANCH  26  27
HETATM   27  N           1     -29.185  -8.400 -16.971  0.00  0.00    -0.067 N 
HETATM   28  H           1     -28.210  -8.718 -16.765  0.00  0.00     0.275 HD
HETATM   29  H           1     -29.761  -8.459 -16.102  0.00  0.00     0.275 HD
HETATM   30  H           1     -29.601  -9.013 -17.708  0.00  0.00     0.275 HD
ENDBRANCH  26  27
BRANCH  26  31
HETATM   31  C           1     -30.079  -6.132 -16.594  0.00  0.00     0.044 C 
BRANCH  31  32
HETATM   32  C           1     -31.363  -5.837 -17.359  0.00  0.00     0.023 C 
BRANCH  32  33
HETATM   33  C           1     -31.859  -4.442 -16.999  0.00  0.00     0.138 C 
BRANCH  33  34
HETATM   34  N           1     -32.454  -4.465 -15.654  0.00  0.00    -0.227 N 
HETATM   35  C           1     -33.634  -4.042 -15.477  0.00  0.00     0.665 C 
HETATM   36  N           1     -34.320  -3.588 -16.484  0.00  0.00    -0.235 N 
HETATM   37  N           1     -34.146  -4.062 -14.319  0.00  0.00    -0.235 N 
HETATM   38  H           1     -35.294  -3.240 -16.338  0.00  0.00     0.174 HD
HETATM   39  H           1     -33.897  -3.572 -17.439  0.00  0.00     0.174 HD
HETATM   40  H           1     -35.124  -3.712 -14.173  0.00  0.00     0.174 HD
HETATM   41  H           1     -33.592  -4.428 -13.507  0.00  0.00     0.174 HD
HETATM   42  H           1     -31.899  -4.831 -14.841  0.00  0.00     0.177 HD
ENDBRANCH  33  34
ENDBRANCH  32  33
ENDBRANCH  31  32
ENDBRANCH  26  31
ENDBRANCH  23  26
ENDBRANCH   1  22
TORSDOF 16
ENDMDL
MODEL 3
REMARK VINA RESULT:      -7.8     12.550     15.424
REMARK  16 active torsions:
REMARK  status: ('A' for Active; 'I' for Inactive)
REMARK       I    between atoms: N_1  and  C_15 
REMARK    1  A    between atoms: C_4  and  C_5 
REMARK    2  A    between atoms: C_5  and  C_6 
REMARK    3  A    between atoms: C_5  and  N_21 
REMARK    4  A    between atoms: C_6  and  C_7 
REMARK    5  A    between atoms: C_7  and  N_8 
REMARK    6  A    between atoms: N_8  and  C_34 
REMARK    7  A    between atoms: C_10  and  C_17 
REMARK    8  A    between atoms: C_10  and  N_24 
REMARK    9  A    between atoms: N_13  and  C_19 
REMARK       I    between atoms: N_14  and  C_15 
REMARK   10  A    between atoms: C_17  and  C_18 
REMARK   11  A    between atoms: C_18  and  C_19 
REMARK   12  A    between atoms: C_19  and  C_20 
REMARK       I    between atoms: C_20  and  N_21 
REMARK   13  A    between atoms: C_23  and  C_34 
REMARK   14  A    between atoms: C_29  and  O_30 
REMARK   15  A    between atoms: C_32  and  C_35 
REMARK   16  A    between atoms: C_34  and  C_35 
ROOT
HETATM    1  C           1     -34.581  -4.192 -12.373  0.00  0.00     0.187 C 
ENDROOT
BRANCH   1   2
HETATM    2  C           1     -33.265  -4.421 -11.668  0.00  0.00     0.196 C 
HETATM    3  O           1     -32.947  -5.572 -11.298  0.00  0.00    -0.646 OA
HETATM    4  O           1     -32.496  -3.459 -11.453  0.00  0.00    -0.646 OA
ENDBRANCH   1   2
BRANCH   1   5
HETATM    5  C           1     -34.583  -4.939 -13.700  0.00  0.00     0.066 C 
BRANCH   5   6
HETATM    6  C           1     -33.939  -4.070 -14.774  0.00  0.00     0.273 C 
BRANCH   6   7
HETATM    7  N           1     -33.784  -4.836 -15.981  0.00  0.00     0.098 N 
HETATM    8  H           1     -34.429  -4.487 -16.690  0.00  0.00     0.317 HD
BRANCH   7   9
HETATM    9  C           1     -32.432  -4.663 -16.438  0.00  0.00     0.324 C 
BRANCH   9  10
HETATM   10  C           1     -32.343  -3.417 -17.285  0.00  0.00     0.207 C 
HETATM   11  O           1     -31.227  -2.974 -17.629  0.00  0.00    -0.646 OA
HETATM   12  O           1     -33.387  -2.829 -17.642  0.00  0.00    -0.646 OA
ENDBRANCH   9  10
BRANCH   9  13
HETATM   13  C           1     -32.019  -5.872 -17.267  0.00  0.00     0.085 C 
BRANCH  13  14
HETATM   14  C           1     -30.550  -6.107 -17.111  0.00  0.00    -0.055 A 
HETATM   15  C           1     -29.768  -6.408 -18.226  0.00  0.00     0.010 A 
HETATM   16  C           1     -28.398  -6.625 -18.080  0.00  0.00     0.037 A 
HETATM   17  C           1     -27.809  -6.543 -16.819  0.00  0.00     0.065 A 
HETATM   18  C           1     -28.590  -6.242 -15.703  0.00  0.00     0.037 A 
HETATM   19  C           1     -29.960  -6.025 -15.849  0.00  0.00     0.010 A 
BRANCH  17  20
HETATM   20  O           1     -26.479  -6.755 -16.677  0.00  0.00    -0.361 OA
HETATM   21  H           1     -26.078  -5.937 -16.338  0.00  0.00     0.217 HD
ENDBRANCH  17  20
ENDBRANCH  13  14
ENDBRANCH   9  13
ENDBRANCH   7   9
ENDBRANCH   6   7
ENDBRANCH   5   6
ENDBRANCH   1   5
BRANCH   1  22
HETATM   22  N           1     -34.755  -2.774 -12.618  0.00  0.00    -0.345 N 
HETATM   23  C           1     -35.629  -2.049 -11.852  0.00  0.00     0.249 C 
HETATM   24  O           1     -36.254  -2.591 -10.972  0.00  0.00    -0.271 OA
HETATM   25  H           1     -34.232  -2.319 -13.355  0.00  0.00     0.163 HD
BRANCH  23  26
HETATM   26  C           1     -35.811  -0.573 -12.107  0.00  0.00     0.274 C 
BRANCH  26  27
HETATM   27  N           1     -36.023   0.136 -10.803  0.00  0.00    -0.067 N 
HETATM   28  H           1     -35.688   1.123 -10.883  0.00  0.00     0.275 HD
HETATM   29  H           1     -37.041   0.134 -10.567  0.00  0.00     0.275 HD
HETATM   30  H           1     -35.489  -0.352 -10.050  0.00  0.00     0.275 HD
ENDBRANCH  26  27
BRANCH  26  31
HETATM   31  C           1     -34.568  -0.017 -12.789  0.00  0.00     0.044 C 
BRANCH  31  32
HETATM   32  C           1     -34.920   1.275 -13.515  0.00  0.00     0.023 C 
BRANCH  32  33
HETATM   33  C           1     -34.948   1.022 -15.017  0.00  0.00     0.138 C 
BRANCH  33  34
HETATM   34  N           1     -36.326   0.727 -15.439  0.00  0.00    -0.227 N 
HETATM   35  C           1     -36.580  -0.341 -16.069  0.00  0.00     0.665 C 
HETATM   36  N           1     -35.623  -1.178 -16.342  0.00  0.00    -0.235 N 
HETATM   37  N           1     -37.766  -0.595 -16.432  0.00  0.00    -0.235 N 
HETATM   38  H           1     -35.833  -2.059 -16.861  0.00  0.00     0.174 HD
HETATM   39  H           1     -34.644  -0.969 -16.042  0.00  0.00     0.174 HD
HETATM   40  H           1     -37.976  -1.480 -16.954  0.00  0.00     0.174 HD
HETATM   41  H           1     -38.538   0.081 -16.212  0.00  0.00     0.174 HD
HETATM   42  H           1     -37.098   1.404 -15.218  0.00  0.00     0.177 HD
ENDBRANCH  33  34
ENDBRANCH  32  33
ENDBRANCH  31  32
ENDBRANCH  26  31
ENDBRANCH  23  26
ENDBRANCH   1  22
TORSDOF 16
ENDMDL
MODEL 4
REMARK VINA RESULT:      -7.6      2.362      4.668
REMARK  16 active torsions:
REMARK  status: ('A' for Active; 'I' for Inactive)
REMARK       I    between atoms: N_1  and  C_15 
REMARK    1  A    between atoms: C_4  and  C_5 
REMARK    2  A    between atoms: C_5  and  C_6 
REMARK    3  A    between atoms: C_5  and  N_21 
REMARK    4  A    between atoms: C_6  and  C_7 
REMARK    5  A    between atoms: C_7  and  N_8 
REMARK    6  A    between atoms: N_8  and  C_34 
REMARK    7  A    between atoms: C_10  and  C_17 
REMARK    8  A    between atoms: C_10  and  N_24 
REMARK    9  A    between atoms: N_13  and  C_19 
REMARK       I    between atoms: N_14  and  C_15 
REMARK   10  A    between atoms: C_17  and  C_18 
REMARK   11  A    between atoms: C_18  and  C_19 
REMARK   12  A    between atoms: C_19  and  C_20 
REMARK       I    between atoms: C_20  and  N_21 
REMARK   13  A    between atoms: C_23  and  C_34 
REMARK   14  A    between atoms: C_29  and  O_30 
REMARK   15  A    between atoms: C_32  and  C_35 
REMARK   16  A    between atoms: C_34  and  C_35 
ROOT
HETATM    1  C           1     -19.911  -8.155  -5.039  0.00  0.00     0.187 C 
ENDROOT
BRANCH   1   2
HETATM    2  C           1     -18.674  -8.997  -5.239  0.00  0.00     0.196 C 
HETATM    3  O           1     -18.065  -9.458  -4.249  0.00  0.00    -0.646 OA
HETATM    4  O           1     -18.257  -9.231  -6.394  0.00  0.00    -0.646 OA
ENDBRANCH   1   2
BRANCH   1   5
HETATM    5  C           1     -21.148  -9.034  -5.161  0.00  0.00     0.066 C 
BRANCH   5   6
HETATM    6  C           1     -21.725  -9.295  -3.775  0.00  0.00     0.273 C 
BRANCH   6   7
HETATM    7  N           1     -21.339  -8.232  -2.887  0.00  0.00     0.098 N 
HETATM    8  H           1     -21.633  -7.338  -3.281  0.00  0.00     0.317 HD
BRANCH   7   9
HETATM    9  C           1     -22.008  -8.445  -1.633  0.00  0.00     0.324 C 
BRANCH   9  10
HETATM   10  C           1     -22.398  -7.114  -1.038  0.00  0.00     0.207 C 
HETATM   11  O           1     -23.006  -7.072   0.053  0.00  0.00    -0.646 OA
HETATM   12  O           1     -22.113  -6.055  -1.637  0.00  0.00    -0.646 OA
ENDBRANCH   9  10
BRANCH   9  13
HETATM   13  C           1     -21.072  -9.175  -0.678  0.00  0.00     0.085 C 
BRANCH  13  14
HETATM   14  C           1     -21.738 -10.419  -0.179  0.00  0.00    -0.055 A 
HETATM   15  C           1     -20.999 -11.376   0.516  0.00  0.00     0.010 A 
HETATM   16  C           1     -21.619 -12.535   0.981  0.00  0.00     0.037 A 
HETATM   17  C           1     -22.980 -12.738   0.752  0.00  0.00     0.065 A 
HETATM   18  C           1     -23.720 -11.780   0.057  0.00  0.00     0.037 A 
HETATM   19  C           1     -23.099 -10.622  -0.409  0.00  0.00     0.010 A 
BRANCH  17  20
HETATM   20  O           1     -23.583 -13.863   1.203  0.00  0.00    -0.361 OA
HETATM   21  H           1     -24.450 -13.935   0.768  0.00  0.00     0.217 HD
ENDBRANCH  17  20
ENDBRANCH  13  14
ENDBRANCH   9  13
ENDBRANCH   7   9
ENDBRANCH   6   7
ENDBRANCH   5   6
ENDBRANCH   1   5
BRANCH   1  22
HETATM   22  N           1     -19.956  -7.117  -6.050  0.00  0.00    -0.345 N 
HETATM   23  C           1     -20.467  -5.884  -5.744  0.00  0.00     0.249 C 
HETATM   24  O           1     -20.881  -5.662  -4.631  0.00  0.00    -0.271 OA
HETATM   25  H           1     -19.609  -7.303  -6.983  0.00  0.00     0.163 HD
BRANCH  23  26
HETATM   26  C           1     -20.515  -4.803  -6.796  0.00  0.00     0.274 C 
BRANCH  26  27
HETATM   27  N           1     -19.143  -4.608  -7.371  0.00  0.00    -0.067 N 
HETATM   28  H           1     -19.179  -4.736  -8.408  0.00  0.00     0.275 HD
HETATM   29  H           1     -18.808  -3.643  -7.152  0.00  0.00     0.275 HD
HETATM   30  H           1     -18.488  -5.308  -6.956  0.00  0.00     0.275 HD
ENDBRANCH  26  27
BRANCH  26  31
HETATM   31  C           1     -21.475  -5.214  -7.904  0.00  0.00     0.044 C 
BRANCH  31  32
HETATM   32  C           1     -22.001  -3.971  -8.608  0.00  0.00     0.023 C 
BRANCH  32  33
HETATM   33  C           1     -21.835  -4.131 -10.114  0.00  0.00     0.138 C 
BRANCH  33  34
HETATM   34  N           1     -22.802  -3.269 -10.810  0.00  0.00    -0.227 N 
HETATM   35  C           1     -22.704  -3.087 -12.059  0.00  0.00     0.665 C 
HETATM   36  N           1     -21.749  -3.663 -12.726  0.00  0.00    -0.235 N 
HETATM   37  N           1     -23.537  -2.345 -12.657  0.00  0.00    -0.235 N 
HETATM   38  H           1     -21.668  -3.513 -13.757  0.00  0.00     0.174 HD
HETATM   39  H           1     -21.061  -4.275 -12.232  0.00  0.00     0.174 HD
HETATM   40  H           1     -23.456  -2.195 -13.692  0.00  0.00     0.174 HD
HETATM   41  H           1     -24.308  -1.880 -12.118  0.00  0.00     0.174 HD
HETATM   42  H           1     -23.574  -2.804 -10.269  0.00  0.00     0.177 HD
ENDBRANCH  33  34
ENDBRANCH  32  33
ENDBRANCH  31  32
ENDBRANCH  26  31
ENDBRANCH  23  26
ENDBRANCH   1  22
TORSDOF 16
ENDMDL
MODEL 5
REMARK VINA RESULT:      -7.6      3.294      5.694
REMARK  16 active torsions:
REMARK  status: ('A' for Active; 'I' for Inactive)
REMARK       I    between atoms: N_1  and  C_15 
REMARK    1  A    between atoms: C_4  and  C_5 
REMARK    2  A    between atoms: C_5  and  C_6 
REMARK    3  A    between atoms: C_5  and  N_21 
REMARK    4  A    between atoms: C_6  and  C_7 
REMARK    5  A    between atoms: C_7  and  N_8 
REMARK    6  A    between atoms: N_8  and  C_34 
REMARK    7  A    between atoms: C_10  and  C_17 
REMARK    8  A    between atoms: C_10  and  N_24 
REMARK    9  A    between atoms: N_13  and  C_19 
REMARK       I    between atoms: N_14  and  C_15 
REMARK   10  A    between atoms: C_17  and  C_18 
REMARK   11  A    between atoms: C_18  and  C_19 
REMARK   12  A    between atoms: C_19  and  C_20 
REMARK       I    between atoms: C_20  and  N_21 
REMARK   13  A    between atoms: C_23  and  C_34 
REMARK   14  A    between atoms: C_29  and  O_30 
REMARK   15  A    between atoms: C_32  and  C_35 
REMARK   16  A    between atoms: C_34  and  C_35 
ROOT
HETATM    1  C           1     -20.925 -10.172  -4.701  0.00  0.00     0.187 C 
ENDROOT
BRANCH   1   2
HETATM    2  C           1     -20.825 -11.020  -5.946  0.00  0.00     0.196 C 
HETATM    3  O           1     -21.827 -11.640  -6.362  0.00  0.00    -0.646 OA
HETATM    4  O           1     -19.738 -11.104  -6.558  0.00  0.00    -0.646 OA
ENDBRANCH   1   2
BRANCH   1   5
HETATM    5  C           1     -21.714 -10.923  -3.637  0.00  0.00     0.066 C 
BRANCH   5   6
HETATM    6  C           1     -20.799 -11.918  -2.934  0.00  0.00     0.273 C 
BRANCH   6   7
HETATM    7  N           1     -21.162 -12.005  -1.544  0.00  0.00     0.098 N 
HETATM    8  H           1     -21.234 -12.986  -1.273  0.00  0.00     0.317 HD
BRANCH   7   9
HETATM    9  C           1     -20.122 -11.372  -0.781  0.00  0.00     0.324 C 
BRANCH   9  10
HETATM   10  C           1     -19.231 -12.428  -0.172  0.00  0.00     0.207 C 
HETATM   11  O           1     -19.732 -13.469   0.305  0.00  0.00    -0.646 OA
HETATM   12  O           1     -17.993 -12.261  -0.145  0.00  0.00    -0.646 OA
ENDBRANCH   9  10
BRANCH   9  13
HETATM   13  C           1     -20.745 -10.533   0.327  0.00  0.00     0.085 C 
BRANCH  13  14
HETATM   14  C           1     -21.215  -9.230  -0.239  0.00  0.00    -0.055 A 
HETATM   15  C           1     -22.385  -8.641   0.242  0.00  0.00     0.010 A 
HETATM   16  C           1     -22.823  -7.427  -0.284  0.00  0.00     0.037 A 
HETATM   17  C           1     -22.093  -6.800  -1.293  0.00  0.00     0.065 A 
HETATM   18  C           1     -20.922  -7.387  -1.775  0.00  0.00     0.037 A 
HETATM   19  C           1     -20.485  -8.603  -1.248  0.00  0.00     0.010 A 
BRANCH  17  20
HETATM   20  O           1     -22.518  -5.620  -1.806  0.00  0.00    -0.361 OA
HETATM   21  H           1     -22.273  -5.595  -2.746  0.00  0.00     0.217 HD
ENDBRANCH  17  20
ENDBRANCH  13  14
ENDBRANCH   9  13
ENDBRANCH   7   9
ENDBRANCH   6   7
ENDBRANCH   5   6
ENDBRANCH   1   5
BRANCH   1  22
HETATM   22  N           1     -21.603  -8.931  -5.017  0.00  0.00    -0.345 N 
HETATM   23  C           1     -20.876  -7.798  -5.273  0.00  0.00     0.249 C 
HETATM   24  O           1     -19.670  -7.835  -5.235  0.00  0.00    -0.271 OA
HETATM   25  H           1     -22.614  -8.900  -5.049  0.00  0.00     0.163 HD
BRANCH  23  26
HETATM   26  C           1     -21.582  -6.506  -5.603  0.00  0.00     0.274 C 
BRANCH  26  27
HETATM   27  N           1     -22.821  -6.387  -4.765  0.00  0.00    -0.067 N 
HETATM   28  H           1     -23.664  -6.450  -5.379  0.00  0.00     0.275 HD
HETATM   29  H           1     -22.843  -7.162  -4.064  0.00  0.00     0.275 HD
HETATM   30  H           1     -22.819  -5.467  -4.269  0.00  0.00     0.275 HD
ENDBRANCH  26  27
BRANCH  26  31
HETATM   31  C           1     -20.658  -5.332  -5.309  0.00  0.00     0.044 C 
BRANCH  31  32
HETATM   32  C           1     -20.643  -4.385  -6.502  0.00  0.00     0.023 C 
BRANCH  32  33
HETATM   33  C           1     -21.552  -4.931  -7.595  0.00  0.00     0.138 C 
BRANCH  33  34
HETATM   34  N           1     -22.739  -4.073  -7.722  0.00  0.00    -0.227 N 
HETATM   35  C           1     -23.393  -4.053  -8.806  0.00  0.00     0.665 C 
HETATM   36  N           1     -23.016  -4.791  -9.806  0.00  0.00    -0.235 N 
HETATM   37  N           1     -24.415  -3.313  -8.914  0.00  0.00    -0.235 N 
HETATM   38  H           1     -23.555  -4.775 -10.700  0.00  0.00     0.174 HD
HETATM   39  H           1     -22.172  -5.402  -9.717  0.00  0.00     0.174 HD
HETATM   40  H           1     -24.957  -3.297  -9.812  0.00  0.00     0.174 HD
HETATM   41  H           1     -24.719  -2.717  -8.106  0.00  0.00     0.174 HD
HETATM   42  H           1     -23.043  -3.476  -6.913  0.00  0.00     0.177 HD
ENDBRANCH  33  34
ENDBRANCH  32  33
ENDBRANCH  31  32
ENDBRANCH  26  31
ENDBRANCH  23  26
ENDBRANCH   1  22
TORSDOF 16
ENDMDL
MODEL 6
REMARK VINA RESULT:      -7.5      6.504     10.075
REMARK  16 active torsions:
REMARK  status: ('A' for Active; 'I' for Inactive)
REMARK       I    between atoms: N_1  and  C_15 
REMARK    1  A    between atoms: C_4  and  C_5 
REMARK    2  A    between atoms: C_5  and  C_6 
REMARK    3  A    between atoms: C_5  and  N_21 
REMARK    4  A    between atoms: C_6  and  C_7 
REMARK    5  A    between atoms: C_7  and  N_8 
REMARK    6  A    between atoms: N_8  and  C_34 
REMARK    7  A    between atoms: C_10  and  C_17 
REMARK    8  A    between atoms: C_10  and  N_24 
REMARK    9  A    between atoms: N_13  and  C_19 
REMARK       I    between atoms: N_14  and  C_15 
REMARK   10  A    between atoms: C_17  and  C_18 
REMARK   11  A    between atoms: C_18  and  C_19 
REMARK   12  A    between atoms: C_19  and  C_20 
REMARK       I    between atoms: C_20  and  N_21 
REMARK   13  A    between atoms: C_23  and  C_34 
REMARK   14  A    between atoms: C_29  and  O_30 
REMARK   15  A    between atoms: C_32  and  C_35 
REMARK   16  A    between atoms: C_34  and  C_35 
ROOT
HETATM    1  C           1     -25.558  -6.337 -16.175  0.00  0.00     0.187 C 
ENDROOT
BRANCH   1   2
HETATM    2  C           1     -24.683  -7.251 -16.997  0.00  0.00     0.196 C 
HETATM    3  O           1     -24.480  -7.002 -18.206  0.00  0.00    -0.646 OA
HETATM    4  O           1     -24.163  -8.258 -16.470  0.00  0.00    -0.646 OA
ENDBRANCH   1   2
BRANCH   1   5
HETATM    5  C           1     -24.994  -6.226 -14.765  0.00  0.00     0.066 C 
BRANCH   5   6
HETATM    6  C           1     -24.896  -4.757 -14.371  0.00  0.00     0.273 C 
BRANCH   6   7
HETATM    7  N           1     -23.754  -4.565 -13.518  0.00  0.00     0.098 N 
HETATM    8  H           1     -22.921  -4.932 -13.979  0.00  0.00     0.317 HD
BRANCH   7   9
HETATM    9  C           1     -23.599  -3.152 -13.306  0.00  0.00     0.324 C 
BRANCH   9  10
HETATM   10  C           1     -23.374  -2.466 -14.632  0.00  0.00     0.207 C 
HETATM   11  O           1     -22.495  -2.889 -15.412  0.00  0.00    -0.646 OA
HETATM   12  O           1     -24.066  -1.474 -14.947  0.00  0.00    -0.646 OA
ENDBRANCH   9  10
BRANCH   9  13
HETATM   13  C           1     -22.404  -2.904 -12.395  0.00  0.00     0.085 C 
BRANCH  13  14
HETATM   14  C           1     -22.750  -3.307 -10.996  0.00  0.00    -0.055 A 
HETATM   15  C           1     -21.746  -3.720 -10.120  0.00  0.00     0.010 A 
HETATM   16  C           1     -22.068  -4.095  -8.816  0.00  0.00     0.037 A 
HETATM   17  C           1     -23.395  -4.058  -8.387  0.00  0.00     0.065 A 
HETATM   18  C           1     -24.400  -3.645  -9.263  0.00  0.00     0.037 A 
HETATM   19  C           1     -24.077  -3.270 -10.567  0.00  0.00     0.010 A 
BRANCH  17  20
HETATM   20  O           1     -23.708  -4.423  -7.121  0.00  0.00    -0.361 OA
HETATM   21  H           1     -23.672  -3.629  -6.562  0.00  0.00     0.217 HD
ENDBRANCH  17  20
ENDBRANCH  13  14
ENDBRANCH   9  13
ENDBRANCH   7   9
ENDBRANCH   6   7
ENDBRANCH   5   6
ENDBRANCH   1   5
BRANCH   1  22
HETATM   22  N           1     -26.901  -6.880 -16.115  0.00  0.00    -0.345 N 
HETATM   23  C           1     -27.840  -6.489 -17.033  0.00  0.00     0.249 C 
HETATM   24  O           1     -27.548  -5.691 -17.891  0.00  0.00    -0.271 OA
HETATM   25  H           1     -27.145  -7.549 -15.396  0.00  0.00     0.163 HD
BRANCH  23  26
HETATM   26  C           1     -29.238  -7.054 -16.971  0.00  0.00     0.274 C 
BRANCH  26  27
HETATM   27  N           1     -30.107  -6.146 -16.153  0.00  0.00    -0.067 N 
HETATM   28  H           1     -30.913  -6.689 -15.768  0.00  0.00     0.275 HD
HETATM   29  H           1     -29.549  -5.747 -15.365  0.00  0.00     0.275 HD
HETATM   30  H           1     -30.464  -5.371 -16.755  0.00  0.00     0.275 HD
ENDBRANCH  26  27
BRANCH  26  31
HETATM   31  C           1     -29.804  -7.165 -18.380  0.00  0.00     0.044 C 
BRANCH  31  32
HETATM   32  C           1     -29.288  -8.438 -19.038  0.00  0.00     0.023 C 
BRANCH  32  33
HETATM   33  C           1     -28.894  -8.141 -20.479  0.00  0.00     0.138 C 
BRANCH  33  34
HETATM   34  N           1     -27.543  -8.661 -20.736  0.00  0.00    -0.227 N 
HETATM   35  C           1     -26.549  -7.877 -20.725  0.00  0.00     0.665 C 
HETATM   36  N           1     -26.723  -6.612 -20.485  0.00  0.00    -0.235 N 
HETATM   37  N           1     -25.387  -8.326 -20.946  0.00  0.00    -0.235 N 
HETATM   38  H           1     -25.903  -5.965 -20.475  0.00  0.00     0.174 HD
HETATM   39  H           1     -27.683  -6.241 -20.302  0.00  0.00     0.174 HD
HETATM   40  H           1     -24.563  -7.676 -20.937  0.00  0.00     0.174 HD
HETATM   41  H           1     -25.247  -9.348 -21.140  0.00  0.00     0.174 HD
HETATM   42  H           1     -27.404  -9.684 -20.930  0.00  0.00     0.177 HD
ENDBRANCH  33  34
ENDBRANCH  32  33
ENDBRANCH  31  32
ENDBRANCH  26  31
ENDBRANCH  23  26
ENDBRANCH   1  22
TORSDOF 16
ENDMDL
MODEL 7
REMARK VINA RESULT:      -7.5      1.943      3.157
REMARK  16 active torsions:
REMARK  status: ('A' for Active; 'I' for Inactive)
REMARK       I    between atoms: N_1  and  C_15 
REMARK    1  A    between atoms: C_4  and  C_5 
REMARK    2  A    between atoms: C_5  and  C_6 
REMARK    3  A    between atoms: C_5  and  N_21 
REMARK    4  A    between atoms: C_6  and  C_7 
REMARK    5  A    between atoms: C_7  and  N_8 
REMARK    6  A    between atoms: N_8  and  C_34 
REMARK    7  A    between atoms: C_10  and  C_17 
REMARK    8  A    between atoms: C_10  and  N_24 
REMARK    9  A    between atoms: N_13  and  C_19 
REMARK       I    between atoms: N_14  and  C_15 
REMARK   10  A    between atoms: C_17  and  C_18 
REMARK   11  A    between atoms: C_18  and  C_19 
REMARK   12  A    between atoms: C_19  and  C_20 
REMARK       I    between atoms: C_20  and  N_21 
REMARK   13  A    between atoms: C_23  and  C_34 
REMARK   14  A    between atoms: C_29  and  O_30 
REMARK   15  A    between atoms: C_32  and  C_35 
REMARK   16  A    between atoms: C_34  and  C_35 
ROOT
HETATM    1  C           1     -21.487  -6.782  -5.290  0.00  0.00     0.187 C 
ENDROOT
BRANCH   1   2
HETATM    2  C           1     -21.583  -6.093  -3.950  0.00  0.00     0.196 C 
HETATM    3  O           1     -22.652  -6.128  -3.304  0.00  0.00    -0.646 OA
HETATM    4  O           1     -20.593  -5.486  -3.489  0.00  0.00    -0.646 OA
ENDBRANCH   1   2
BRANCH   1   5
HETATM    5  C           1     -20.439  -7.883  -5.221  0.00  0.00     0.066 C 
BRANCH   5   6
HETATM    6  C           1     -21.119  -9.215  -4.927  0.00  0.00     0.273 C 
BRANCH   6   7
HETATM    7  N           1     -20.131 -10.178  -4.519  0.00  0.00     0.098 N 
HETATM    8  H           1     -19.468 -10.328  -5.280  0.00  0.00     0.317 HD
BRANCH   7   9
HETATM    9  C           1     -19.439  -9.638  -3.381  0.00  0.00     0.324 C 
BRANCH   9  10
HETATM   10  C           1     -17.949  -9.732  -3.607  0.00  0.00     0.207 C 
HETATM   11  O           1     -17.507 -10.292  -4.632  0.00  0.00    -0.646 OA
HETATM   12  O           1     -17.159  -9.249  -2.767  0.00  0.00    -0.646 OA
ENDBRANCH   9  10
BRANCH   9  13
HETATM   13  C           1     -19.815 -10.431  -2.136  0.00  0.00     0.085 C 
BRANCH  13  14
HETATM   14  C           1     -20.883  -9.702  -1.383  0.00  0.00    -0.055 A 
HETATM   15  C           1     -20.749  -8.337  -1.126  0.00  0.00     0.010 A 
HETATM   16  C           1     -21.745  -7.658  -0.426  0.00  0.00     0.037 A 
HETATM   17  C           1     -22.875  -8.342   0.020  0.00  0.00     0.065 A 
HETATM   18  C           1     -23.010  -9.707  -0.237  0.00  0.00     0.037 A 
HETATM   19  C           1     -22.014 -10.386  -0.937  0.00  0.00     0.010 A 
BRANCH  17  20
HETATM   20  O           1     -23.842  -7.682   0.701  0.00  0.00    -0.361 OA
HETATM   21  H           1     -24.444  -7.278   0.054  0.00  0.00     0.217 HD
ENDBRANCH  17  20
ENDBRANCH  13  14
ENDBRANCH   9  13
ENDBRANCH   7   9
ENDBRANCH   6   7
ENDBRANCH   5   6
ENDBRANCH   1   5
BRANCH   1  22
HETATM   22  N           1     -21.106  -5.817  -6.302  0.00  0.00    -0.345 N 
HETATM   23  C           1     -22.046  -4.971  -6.831  0.00  0.00     0.249 C 
HETATM   24  O           1     -23.191  -5.031  -6.453  0.00  0.00    -0.271 OA
HETATM   25  H           1     -20.146  -5.766  -6.618  0.00  0.00     0.163 HD
BRANCH  23  26
HETATM   26  C           1     -21.649  -3.966  -7.885  0.00  0.00     0.274 C 
BRANCH  26  27
HETATM   27  N           1     -20.163  -3.768  -7.850  0.00  0.00    -0.067 N 
HETATM   28  H           1     -19.687  -4.698  -7.872  0.00  0.00     0.275 HD
HETATM   29  H           1     -19.867  -3.207  -8.681  0.00  0.00     0.275 HD
HETATM   30  H           1     -19.899  -3.262  -6.975  0.00  0.00     0.275 HD
ENDBRANCH  26  27
BRANCH  26  31
HETATM   31  C           1     -22.060  -4.480  -9.257  0.00  0.00     0.044 C 
BRANCH  31  32
HETATM   32  C           1     -23.267  -3.695  -9.755  0.00  0.00     0.023 C 
BRANCH  32  33
HETATM   33  C           1     -23.697  -4.232 -11.114  0.00  0.00     0.138 C 
BRANCH  33  34
HETATM   34  N           1     -24.169  -3.122 -11.954  0.00  0.00    -0.227 N 
HETATM   35  C           1     -23.485  -2.745 -12.950  0.00  0.00     0.665 C 
HETATM   36  N           1     -22.364  -3.341 -13.230  0.00  0.00    -0.235 N 
HETATM   37  N           1     -23.892  -1.789 -13.673  0.00  0.00    -0.235 N 
HETATM   38  H           1     -21.799  -3.032 -14.052  0.00  0.00     0.174 HD
HETATM   39  H           1     -22.028  -4.130 -12.633  0.00  0.00     0.174 HD
HETATM   40  H           1     -23.324  -1.478 -14.498  0.00  0.00     0.174 HD
HETATM   41  H           1     -24.797  -1.309 -13.446  0.00  0.00     0.174 HD
HETATM   42  H           1     -25.075  -2.641 -11.727  0.00  0.00     0.177 HD
ENDBRANCH  33  34
ENDBRANCH  32  33
ENDBRANCH  31  32
ENDBRANCH  26  31
ENDBRANCH  23  26
ENDBRANCH   1  22
TORSDOF 16
ENDMDL
MODEL 8
REMARK VINA RESULT:      -7.4      2.129      4.307
REMARK  16 active torsions:
REMARK  status: ('A' for Active; 'I' for Inactive)
REMARK       I    between atoms: N_1  and  C_15 
REMARK    1  A    between atoms: C_4  and  C_5 
REMARK    2  A    between atoms: C_5  and  C_6 
REMARK    3  A    between atoms: C_5  and  N_21 
REMARK    4  A    between atoms: C_6  and  C_7 
REMARK    5  A    between atoms: C_7  and  N_8 
REMARK    6  A    between atoms: N_8  and  C_34 
REMARK    7  A    between atoms: C_10  and  C_17 
REMARK    8  A    between atoms: C_10  and  N_24 
REMARK    9  A    between atoms: N_13  and  C_19 
REMARK       I    between atoms: N_14  and  C_15 
REMARK   10  A    between atoms: C_17  and  C_18 
REMARK   11  A    between atoms: C_18  and  C_19 
REMARK   12  A    between atoms: C_19  and  C_20 
REMARK       I    between atoms: C_20  and  N_21 
REMARK   13  A    between atoms: C_23  and  C_34 
REMARK   14  A    between atoms: C_29  and  O_30 
REMARK   15  A    between atoms: C_32  and  C_35 
REMARK   16  A    between atoms: C_34  and  C_35 
ROOT
HETATM    1  C           1     -20.984  -6.444  -5.052  0.00  0.00     0.187 C 
ENDROOT
BRANCH   1   2
HETATM    2  C           1     -20.476  -7.851  -5.259  0.00  0.00     0.196 C 
HETATM    3  O           1     -21.169  -8.680  -5.887  0.00  0.00    -0.646 OA
HETATM    4  O           1     -19.362  -8.186  -4.801  0.00  0.00    -0.646 OA
ENDBRANCH   1   2
BRANCH   1   5
HETATM    5  C           1     -22.022  -6.439  -3.938  0.00  0.00     0.066 C 
BRANCH   5   6
HETATM    6  C           1     -21.328  -6.243  -2.596  0.00  0.00     0.273 C 
BRANCH   6   7
HETATM    7  N           1     -22.259  -6.503  -1.531  0.00  0.00     0.098 N 
HETATM    8  H           1     -23.211  -6.377  -1.875  0.00  0.00     0.317 HD
BRANCH   7   9
HETATM    9  C           1     -22.077  -7.866  -1.115  0.00  0.00     0.324 C 
BRANCH   9  10
HETATM   10  C           1     -22.393  -7.990   0.356  0.00  0.00     0.207 C 
HETATM   11  O           1     -21.466  -8.088   1.188  0.00  0.00    -0.646 OA
HETATM   12  O           1     -23.583  -7.995   0.741  0.00  0.00    -0.646 OA
ENDBRANCH   9  10
BRANCH   9  13
HETATM   13  C           1     -20.633  -8.283  -1.362  0.00  0.00     0.085 C 
BRANCH  13  14
HETATM   14  C           1     -20.604  -9.658  -1.951  0.00  0.00    -0.055 A 
HETATM   15  C           1     -21.724 -10.157  -2.617  0.00  0.00     0.010 A 
HETATM   16  C           1     -21.697 -11.438  -3.167  0.00  0.00     0.037 A 
HETATM   17  C           1     -20.549 -12.222  -3.051  0.00  0.00     0.065 A 
HETATM   18  C           1     -19.428 -11.724  -2.386  0.00  0.00     0.037 A 
HETATM   19  C           1     -19.457 -10.443  -1.836  0.00  0.00     0.010 A 
BRANCH  17  20
HETATM   20  O           1     -20.523 -13.467  -3.585  0.00  0.00    -0.361 OA
HETATM   21  H           1     -19.709 -13.551  -4.111  0.00  0.00     0.217 HD
ENDBRANCH  17  20
ENDBRANCH  13  14
ENDBRANCH   9  13
ENDBRANCH   7   9
ENDBRANCH   6   7
ENDBRANCH   5   6
ENDBRANCH   1   5
BRANCH   1  22
HETATM   22  N           1     -21.590  -5.966  -6.278  0.00  0.00    -0.345 N 
HETATM   23  C           1     -20.909  -5.092  -7.084  0.00  0.00     0.249 C 
HETATM   24  O           1     -19.802  -4.721  -6.771  0.00  0.00    -0.271 OA
HETATM   25  H           1     -22.517  -6.276  -6.540  0.00  0.00     0.163 HD
BRANCH  23  26
HETATM   26  C           1     -21.540  -4.593  -8.361  0.00  0.00     0.274 C 
BRANCH  26  27
HETATM   27  N           1     -22.400  -3.403  -8.059  0.00  0.00    -0.067 N 
HETATM   28  H           1     -22.443  -2.782  -8.899  0.00  0.00     0.275 HD
HETATM   29  H           1     -23.364  -3.723  -7.815  0.00  0.00     0.275 HD
HETATM   30  H           1     -21.993  -2.873  -7.256  0.00  0.00     0.275 HD
ENDBRANCH  26  27
BRANCH  26  31
HETATM   31  C           1     -20.449  -4.194  -9.345  0.00  0.00     0.044 C 
BRANCH  31  32
HETATM   32  C           1     -20.957  -4.373 -10.769  0.00  0.00     0.023 C 
BRANCH  32  33
HETATM   33  C           1     -21.079  -3.011 -11.440  0.00  0.00     0.138 C 
BRANCH  33  34
HETATM   34  N           1     -22.499  -2.680 -11.626  0.00  0.00    -0.227 N 
HETATM   35  C           1     -23.028  -2.782 -12.772  0.00  0.00     0.665 C 
HETATM   36  N           1     -22.316  -3.180 -13.784  0.00  0.00    -0.235 N 
HETATM   37  N           1     -24.252  -2.498 -12.932  0.00  0.00    -0.235 N 
HETATM   38  H           1     -22.752  -3.264 -14.729  0.00  0.00     0.174 HD
HETATM   39  H           1     -21.306  -3.415 -13.652  0.00  0.00     0.174 HD
HETATM   40  H           1     -24.690  -2.582 -13.881  0.00  0.00     0.174 HD
HETATM   41  H           1     -24.826  -2.176 -12.114  0.00  0.00     0.174 HD
HETATM   42  H           1     -23.074  -2.359 -10.808  0.00  0.00     0.177 HD
ENDBRANCH  33  34
ENDBRANCH  32  33
ENDBRANCH  31  32
ENDBRANCH  26  31
ENDBRANCH  23  26
ENDBRANCH   1  22
TORSDOF 16
ENDMDL
MODEL 9
REMARK VINA RESULT:      -7.3      2.042      3.615
REMARK  16 active torsions:
REMARK  status: ('A' for Active; 'I' for Inactive)
REMARK       I    between atoms: N_1  and  C_15 
REMARK    1  A    between atoms: C_4  and  C_5 
REMARK    2  A    between atoms: C_5  and  C_6 
REMARK    3  A    between atoms: C_5  and  N_21 
REMARK    4  A    between atoms: C_6  and  C_7 
REMARK    5  A    between atoms: C_7  and  N_8 
REMARK    6  A    between atoms: N_8  and  C_34 
REMARK    7  A    between atoms: C_10  and  C_17 
REMARK    8  A    between atoms: C_10  and  N_24 
REMARK    9  A    between atoms: N_13  and  C_19 
REMARK       I    between atoms: N_14  and  C_15 
REMARK   10  A    between atoms: C_17  and  C_18 
REMARK   11  A    between atoms: C_18  and  C_19 
REMARK   12  A    between atoms: C_19  and  C_20 
REMARK       I    between atoms: C_20  and  N_21 
REMARK   13  A    between atoms: C_23  and  C_34 
REMARK   14  A    between atoms: C_29  and  O_30 
REMARK   15  A    between atoms: C_32  and  C_35 
REMARK   16  A    between atoms: C_34  and  C_35 
ROOT
HETATM    1  C           1     -20.971  -4.821  -6.283  0.00  0.00     0.187 C 
ENDROOT
BRANCH   1   2
HETATM    2  C           1     -19.734  -5.262  -7.028  0.00  0.00     0.196 C 
HETATM    3  O           1     -18.683  -4.590  -6.948  0.00  0.00    -0.646 OA
HETATM    4  O           1     -19.763  -6.298  -7.727  0.00  0.00    -0.646 OA
ENDBRANCH   1   2
BRANCH   1   5
HETATM    5  C           1     -21.086  -5.604  -4.982  0.00  0.00     0.066 C 
BRANCH   5   6
HETATM    6  C           1     -21.284  -7.082  -5.295  0.00  0.00     0.273 C 
BRANCH   6   7
HETATM    7  N           1     -21.682  -7.776  -4.099  0.00  0.00     0.098 N 
HETATM    8  H           1     -22.676  -7.999  -4.150  0.00  0.00     0.317 HD
BRANCH   7   9
HETATM    9  C           1     -20.922  -8.994  -4.027  0.00  0.00     0.324 C 
BRANCH   9  10
HETATM   10  C           1     -21.820 -10.122  -3.580  0.00  0.00     0.207 C 
HETATM   11  O           1     -22.139 -11.023  -4.384  0.00  0.00    -0.646 OA
HETATM   12  O           1     -22.244 -10.153  -2.404  0.00  0.00    -0.646 OA
ENDBRANCH   9  10
BRANCH   9  13
HETATM   13  C           1     -19.784  -8.823  -3.029  0.00  0.00     0.085 C 
BRANCH  13  14
HETATM   14  C           1     -18.504  -9.295  -3.645  0.00  0.00    -0.055 A 
HETATM   15  C           1     -17.367  -9.460  -2.854  0.00  0.00     0.010 A 
HETATM   16  C           1     -16.175  -9.900  -3.428  0.00  0.00     0.037 A 
HETATM   17  C           1     -16.118 -10.175  -4.794  0.00  0.00     0.065 A 
HETATM   18  C           1     -17.255 -10.010  -5.586  0.00  0.00     0.037 A 
HETATM   19  C           1     -18.447  -9.570  -5.012  0.00  0.00     0.010 A 
BRANCH  17  20
HETATM   20  O           1     -14.960 -10.602  -5.352  0.00  0.00    -0.361 OA
HETATM   21  H           1     -15.182 -11.134  -6.135  0.00  0.00     0.217 HD
ENDBRANCH  17  20
ENDBRANCH  13  14
ENDBRANCH   9  13
ENDBRANCH   7   9
ENDBRANCH   6   7
ENDBRANCH   5   6
ENDBRANCH   1   5
BRANCH   1  22
HETATM   22  N           1     -22.141  -5.070  -7.101  0.00  0.00    -0.345 N 
HETATM   23  C           1     -22.500  -4.176  -8.074  0.00  0.00     0.249 C 
HETATM   24  O           1     -21.841  -3.179  -8.250  0.00  0.00    -0.271 OA
HETATM   25  H           1     -22.693  -5.906  -6.954  0.00  0.00     0.163 HD
BRANCH  23  26
HETATM   26  C           1     -23.719  -4.435  -8.926  0.00  0.00     0.274 C 
BRANCH  26  27
HETATM   27  N           1     -24.592  -3.216  -8.931  0.00  0.00    -0.067 N 
HETATM   28  H           1     -25.508  -3.445  -9.379  0.00  0.00     0.275 HD
HETATM   29  H           1     -24.755  -2.900  -7.949  0.00  0.00     0.275 HD
HETATM   30  H           1     -24.123  -2.454  -9.470  0.00  0.00     0.275 HD
ENDBRANCH  26  27
BRANCH  26  31
HETATM   31  C           1     -23.285  -4.754 -10.350  0.00  0.00     0.044 C 
BRANCH  31  32
HETATM   32  C           1     -23.968  -3.795 -11.317  0.00  0.00     0.023 C 
BRANCH  32  33
HETATM   33  C           1     -22.915  -3.097 -12.168  0.00  0.00     0.138 C 
BRANCH  33  34
HETATM   34  N           1     -23.567  -2.115 -13.048  0.00  0.00    -0.227 N 
HETATM   35  C           1     -23.321  -2.116 -14.290  0.00  0.00     0.665 C 
HETATM   36  N           1     -22.492  -2.985 -14.787  0.00  0.00    -0.235 N 
HETATM   37  N           1     -23.883  -1.271 -15.047  0.00  0.00    -0.235 N 
HETATM   38  H           1     -22.289  -2.986 -15.812  0.00  0.00     0.174 HD
HETATM   39  H           1     -22.029  -3.683 -14.162  0.00  0.00     0.174 HD
HETATM   40  H           1     -23.679  -1.272 -16.076  0.00  0.00     0.174 HD
HETATM   41  H           1     -24.551  -0.569 -14.644  0.00  0.00     0.174 HD
HETATM   42  H           1     -24.237  -1.413 -12.645  0.00  0.00     0.177 HD
ENDBRANCH  33  34
ENDBRANCH  32  33
ENDBRANCH  31  32
ENDBRANCH  26  31
ENDBRANCH  23  26
ENDBRANCH   1  22
TORSDOF 16
ENDMDL
