MODEL 1
REMARK VINA RESULT:      -6.1      0.000      0.000
REMARK  9 active torsions:
REMARK  status: ('A' for Active; 'I' for Inactive)
REMARK    1  A    between atoms: N_2  and  C_6 
REMARK    2  A    between atoms: S_3  and  C_14 
REMARK    3  A    between atoms: C_6  and  C_7 
REMARK    4  A    between atoms: C_6  and  C_13 
REMARK       I    between atoms: C_7  and  N_19 
REMARK    5  A    between atoms: C_13  and  C_20 
REMARK    6  A    between atoms: C_14  and  C_15 
REMARK    7  A    between atoms: C_15  and  C_16 
REMARK    8  A    between atoms: C_16  and  C_17 
REMARK    9  A    between atoms: C_16  and  N_19 
ROOT
HETATM    1  O           1     -21.535  -3.441  -7.310  0.00  0.00    -0.271 OA
HETATM    2  C           1     -21.651  -4.587  -7.675  0.00  0.00     0.249 C 
HETATM    3  H           1     -22.358  -5.827  -9.175  0.00  0.00     0.163 HD
HETATM    4  N           1     -22.259  -4.867  -8.870  0.00  0.00    -0.345 N 
ENDROOT
BRANCH   2   5
HETATM    5  C           1     -21.127  -5.710  -6.814  0.00  0.00     0.284 C 
BRANCH   5   6
HETATM    6  N           1     -19.861  -6.248  -7.411  0.00  0.00    -0.066 N 
HETATM    7  H           1     -20.092  -6.851  -8.233  0.00  0.00     0.275 HD
HETATM    8  H           1     -19.258  -5.453  -7.722  0.00  0.00     0.275 HD
HETATM    9  H           1     -19.352  -6.813  -6.695  0.00  0.00     0.275 HD
ENDBRANCH   5   6
BRANCH   5  10
HETATM   10  C           1     -20.845  -5.186  -5.412  0.00  0.00     0.155 C 
BRANCH  10  11
HETATM   11  C           1     -21.175  -6.255  -4.399  0.00  0.00     0.175 C 
HETATM   12  O           1     -22.058  -6.050  -3.539  0.00  0.00    -0.648 OA
HETATM   13  O           1     -20.566  -7.346  -4.422  0.00  0.00    -0.648 OA
ENDBRANCH  10  11
ENDBRANCH   5  10
ENDBRANCH   2   5
BRANCH   4  14
HETATM   14  C           1     -22.763  -3.787  -9.697  0.00  0.00     0.186 C 
BRANCH  14  15
HETATM   15  C           1     -22.271  -3.973 -11.126  0.00  0.00     0.046 C 
BRANCH  15  16
HETATM   16  C           1     -22.541  -2.706 -11.926  0.00  0.00     0.076 C 
BRANCH  16  17
HETATM   17  S           1     -23.874  -3.014 -13.118  0.00  0.00    -0.173 SA
HETATM   18  C           1     -22.894  -2.669 -14.606  0.00  0.00     0.089 C 
ENDBRANCH  16  17
ENDBRANCH  15  16
ENDBRANCH  14  15
BRANCH  14  19
HETATM   19  C           1     -24.272  -3.801  -9.679  0.00  0.00     0.196 C 
HETATM   20  O           1     -24.904  -2.748  -9.445  0.00  0.00    -0.646 OA
HETATM   21  O           1     -24.889  -4.866  -9.898  0.00  0.00    -0.646 OA
ENDBRANCH  14  19
ENDBRANCH   4  14
TORSDOF 9
ENDMDL
MODEL 2
REMARK VINA RESULT:      -5.8      3.380      6.897
REMARK  9 active torsions:
REMARK  status: ('A' for Active; 'I' for Inactive)
REMARK    1  A    between atoms: N_2  and  C_6 
REMARK    2  A    between atoms: S_3  and  C_14 
REMARK    3  A    between atoms: C_6  and  C_7 
REMARK    4  A    between atoms: C_6  and  C_13 
REMARK       I    between atoms: C_7  and  N_19 
REMARK    5  A    between atoms: C_13  and  C_20 
REMARK    6  A    between atoms: C_14  and  C_15 
REMARK    7  A    between atoms: C_15  and  C_16 
REMARK    8  A    between atoms: C_16  and  C_17 
REMARK    9  A    between atoms: C_16  and  N_19 
ROOT
HETATM    1  O           1     -23.006  -3.150  -8.638  0.00  0.00    -0.271 OA
HETATM    2  C           1     -23.109  -4.279  -9.055  0.00  0.00     0.249 C 
HETATM    3  H           1     -22.302  -6.185  -9.011  0.00  0.00     0.163 HD
HETATM    4  N           1     -22.215  -5.239  -8.661  0.00  0.00    -0.345 N 
ENDROOT
BRANCH   2   5
HETATM    5  C           1     -24.223  -4.632 -10.010  0.00  0.00     0.284 C 
BRANCH   5   6
HETATM    6  N           1     -25.315  -3.609  -9.902  0.00  0.00    -0.066 N 
HETATM    7  H           1     -25.581  -3.488  -8.898  0.00  0.00     0.275 HD
HETATM    8  H           1     -24.978  -2.698 -10.285  0.00  0.00     0.275 HD
HETATM    9  H           1     -26.147  -3.931 -10.446  0.00  0.00     0.275 HD
ENDBRANCH   5   6
BRANCH   5  10
HETATM   10  C           1     -23.684  -4.650 -11.435  0.00  0.00     0.155 C 
BRANCH  10  11
HETATM   11  C           1     -23.994  -3.335 -12.107  0.00  0.00     0.175 C 
HETATM   12  O           1     -23.184  -2.387 -12.029  0.00  0.00    -0.648 OA
HETATM   13  O           1     -25.062  -3.195 -12.741  0.00  0.00    -0.648 OA
ENDBRANCH  10  11
ENDBRANCH   5  10
ENDBRANCH   2   5
BRANCH   4  14
HETATM   14  C           1     -21.145  -4.900  -7.743  0.00  0.00     0.186 C 
BRANCH  14  15
HETATM   15  C           1     -20.892  -6.073  -6.805  0.00  0.00     0.046 C 
BRANCH  15  16
HETATM   16  C           1     -21.010  -5.604  -5.362  0.00  0.00     0.076 C 
BRANCH  16  17
HETATM   17  S           1     -21.920  -6.841  -4.395  0.00  0.00    -0.173 SA
HETATM   18  C           1     -21.504  -6.165  -2.763  0.00  0.00     0.089 C 
ENDBRANCH  16  17
ENDBRANCH  15  16
ENDBRANCH  14  15
BRANCH  14  19
HETATM   19  C           1     -19.889  -4.600  -8.524  0.00  0.00     0.196 C 
HETATM   20  O           1     -18.872  -4.178  -7.933  0.00  0.00    -0.646 OA
HETATM   21  O           1     -19.866  -4.774  -9.761  0.00  0.00    -0.646 OA
ENDBRANCH  14  19
ENDBRANCH   4  14
TORSDOF 9
ENDMDL
MODEL 3
REMARK VINA RESULT:      -5.6     10.063     12.592
REMARK  9 active torsions:
REMARK  status: ('A' for Active; 'I' for Inactive)
REMARK    1  A    between atoms: N_2  and  C_6 
REMARK    2  A    between atoms: S_3  and  C_14 
REMARK    3  A    between atoms: C_6  and  C_7 
REMARK    4  A    between atoms: C_6  and  C_13 
REMARK       I    between atoms: C_7  and  N_19 
REMARK    5  A    between atoms: C_13  and  C_20 
REMARK    6  A    between atoms: C_14  and  C_15 
REMARK    7  A    between atoms: C_15  and  C_16 
REMARK    8  A    between atoms: C_16  and  C_17 
REMARK    9  A    between atoms: C_16  and  N_19 
ROOT
HETATM    1  O           1     -30.351  -7.932 -17.699  0.00  0.00    -0.271 OA
HETATM    2  C           1     -30.359  -6.734 -17.541  0.00  0.00     0.249 C 
HETATM    3  H           1     -29.189  -5.061 -17.198  0.00  0.00     0.163 HD
HETATM    4  N           1     -29.183  -6.064 -17.331  0.00  0.00    -0.345 N 
ENDROOT
BRANCH   2   5
HETATM    5  C           1     -31.663  -5.976 -17.574  0.00  0.00     0.284 C 
BRANCH   5   6
HETATM    6  N           1     -32.787  -6.902 -17.214  0.00  0.00    -0.066 N 
HETATM    7  H           1     -33.660  -6.348 -17.060  0.00  0.00     0.275 HD
HETATM    8  H           1     -32.940  -7.583 -17.991  0.00  0.00     0.275 HD
HETATM    9  H           1     -32.544  -7.420 -16.339  0.00  0.00     0.275 HD
ENDBRANCH   5   6
BRANCH   5  10
HETATM   10  C           1     -31.611  -4.829 -16.574  0.00  0.00     0.155 C 
BRANCH  10  11
HETATM   11  C           1     -31.932  -3.533 -17.278  0.00  0.00     0.175 C 
HETATM   12  O           1     -31.010  -2.835 -17.752  0.00  0.00    -0.648 OA
HETATM   13  O           1     -33.119  -3.159 -17.387  0.00  0.00    -0.648 OA
ENDBRANCH  10  11
ENDBRANCH   5  10
ENDBRANCH   2   5
BRANCH   4  14
HETATM   14  C           1     -27.929  -6.792 -17.299  0.00  0.00     0.186 C 
BRANCH  14  15
HETATM   15  C           1     -26.926  -6.116 -18.224  0.00  0.00     0.046 C 
BRANCH  15  16
HETATM   16  C           1     -27.158  -6.583 -19.654  0.00  0.00     0.076 C 
BRANCH  16  17
HETATM   17  S           1     -25.559  -6.844 -20.473  0.00  0.00    -0.173 SA
HETATM   18  C           1     -24.584  -7.024 -18.952  0.00  0.00     0.089 C 
ENDBRANCH  16  17
ENDBRANCH  15  16
ENDBRANCH  14  15
BRANCH  14  19
HETATM   19  C           1     -27.389  -6.801 -15.890  0.00  0.00     0.196 C 
HETATM   20  O           1     -27.916  -7.531 -15.023  0.00  0.00    -0.646 OA
HETATM   21  O           1     -26.412  -6.080 -15.591  0.00  0.00    -0.646 OA
ENDBRANCH  14  19
ENDBRANCH   4  14
TORSDOF 9
ENDMDL
MODEL 4
REMARK VINA RESULT:      -5.3      2.389      3.234
REMARK  9 active torsions:
REMARK  status: ('A' for Active; 'I' for Inactive)
REMARK    1  A    between atoms: N_2  and  C_6 
REMARK    2  A    between atoms: S_3  and  C_14 
REMARK    3  A    between atoms: C_6  and  C_7 
REMARK    4  A    between atoms: C_6  and  C_13 
REMARK       I    between atoms: C_7  and  N_19 
REMARK    5  A    between atoms: C_13  and  C_20 
REMARK    6  A    between atoms: C_14  and  C_15 
REMARK    7  A    between atoms: C_15  and  C_16 
REMARK    8  A    between atoms: C_16  and  C_17 
REMARK    9  A    between atoms: C_16  and  N_19 
ROOT
HETATM    1  O           1     -21.073  -7.083  -6.916  0.00  0.00    -0.271 OA
HETATM    2  C           1     -21.315  -6.069  -6.305  0.00  0.00     0.249 C 
HETATM    3  H           1     -21.818  -4.068  -6.469  0.00  0.00     0.163 HD
HETATM    4  N           1     -21.616  -4.917  -6.981  0.00  0.00    -0.345 N 
ENDROOT
BRANCH   2   5
HETATM    5  C           1     -21.283  -6.072  -4.796  0.00  0.00     0.284 C 
BRANCH   5   6
HETATM    6  N           1     -22.682  -6.193  -4.268  0.00  0.00    -0.066 N 
HETATM    7  H           1     -22.742  -5.738  -3.329  0.00  0.00     0.275 HD
HETATM    8  H           1     -23.344  -5.722  -4.925  0.00  0.00     0.275 HD
HETATM    9  H           1     -22.935  -7.203  -4.182  0.00  0.00     0.275 HD
ENDBRANCH   5   6
BRANCH   5  10
HETATM   10  C           1     -20.452  -7.252  -4.307  0.00  0.00     0.155 C 
BRANCH  10  11
HETATM   11  C           1     -21.344  -8.227  -3.578  0.00  0.00     0.175 C 
HETATM   12  O           1     -21.883  -9.166  -4.201  0.00  0.00    -0.648 OA
HETATM   13  O           1     -21.542  -8.095  -2.352  0.00  0.00    -0.648 OA
ENDBRANCH  10  11
ENDBRANCH   5  10
ENDBRANCH   2   5
BRANCH   4  14
HETATM   14  C           1     -21.646  -4.914  -8.431  0.00  0.00     0.186 C 
BRANCH  14  15
HETATM   15  C           1     -22.745  -3.978  -8.913  0.00  0.00     0.046 C 
BRANCH  15  16
HETATM   16  C           1     -23.520  -4.642 -10.043  0.00  0.00     0.076 C 
BRANCH  16  17
HETATM   17  S           1     -24.072  -3.379 -11.223  0.00  0.00    -0.173 SA
HETATM   18  C           1     -22.415  -2.843 -11.732  0.00  0.00     0.089 C 
ENDBRANCH  16  17
ENDBRANCH  15  16
ENDBRANCH  14  15
BRANCH  14  19
HETATM   19  C           1     -20.314  -4.442  -8.960  0.00  0.00     0.196 C 
HETATM   20  O           1     -19.949  -4.764 -10.112  0.00  0.00    -0.646 OA
HETATM   21  O           1     -19.576  -3.727  -8.248  0.00  0.00    -0.646 OA
ENDBRANCH  14  19
ENDBRANCH   4  14
TORSDOF 9
ENDMDL
MODEL 5
REMARK VINA RESULT:      -5.2      3.864      7.526
REMARK  9 active torsions:
REMARK  status: ('A' for Active; 'I' for Inactive)
REMARK    1  A    between atoms: N_2  and  C_6 
REMARK    2  A    between atoms: S_3  and  C_14 
REMARK    3  A    between atoms: C_6  and  C_7 
REMARK    4  A    between atoms: C_6  and  C_13 
REMARK       I    between atoms: C_7  and  N_19 
REMARK    5  A    between atoms: C_13  and  C_20 
REMARK    6  A    between atoms: C_14  and  C_15 
REMARK    7  A    between atoms: C_15  and  C_16 
REMARK    8  A    between atoms: C_16  and  C_17 
REMARK    9  A    between atoms: C_16  and  N_19 
ROOT
HETATM    1  O           1     -20.545  -4.299  -6.125  0.00  0.00    -0.271 OA
HETATM    2  C           1     -21.139  -5.091  -6.817  0.00  0.00     0.249 C 
HETATM    3  H           1     -21.841  -7.034  -6.953  0.00  0.00     0.163 HD
HETATM    4  N           1     -21.343  -6.370  -6.373  0.00  0.00    -0.345 N 
ENDROOT
BRANCH   2   5
HETATM    5  C           1     -21.657  -4.670  -8.170  0.00  0.00     0.284 C 
BRANCH   5   6
HETATM    6  N           1     -22.677  -3.583  -7.999  0.00  0.00    -0.066 N 
HETATM    7  H           1     -23.325  -3.834  -7.218  0.00  0.00     0.275 HD
HETATM    8  H           1     -22.193  -2.685  -7.774  0.00  0.00     0.275 HD
HETATM    9  H           1     -23.221  -3.475  -8.884  0.00  0.00     0.275 HD
ENDBRANCH   5   6
BRANCH   5  10
HETATM   10  C           1     -20.502  -4.154  -9.019  0.00  0.00     0.155 C 
BRANCH  10  11
HETATM   11  C           1     -20.856  -4.279 -10.480  0.00  0.00     0.175 C 
HETATM   12  O           1     -19.956  -4.253 -11.346  0.00  0.00    -0.648 OA
HETATM   13  O           1     -22.051  -4.408 -10.824  0.00  0.00    -0.648 OA
ENDBRANCH  10  11
ENDBRANCH   5  10
ENDBRANCH   2   5
BRANCH   4  14
HETATM   14  C           1     -20.845  -6.775  -5.073  0.00  0.00     0.186 C 
BRANCH  14  15
HETATM   15  C           1     -21.979  -6.721  -4.057  0.00  0.00     0.046 C 
BRANCH  15  16
HETATM   16  C           1     -21.492  -6.037  -2.787  0.00  0.00     0.076 C 
BRANCH  16  17
HETATM   17  S           1     -22.206  -6.868  -1.340  0.00  0.00    -0.173 SA
HETATM   18  C           1     -20.878  -8.090  -1.137  0.00  0.00     0.089 C 
ENDBRANCH  16  17
ENDBRANCH  15  16
ENDBRANCH  14  15
BRANCH  14  19
HETATM   19  C           1     -20.309  -8.182  -5.155  0.00  0.00     0.196 C 
HETATM   20  O           1     -20.913  -9.116  -4.583  0.00  0.00    -0.646 OA
HETATM   21  O           1     -19.262  -8.416  -5.796  0.00  0.00    -0.646 OA
ENDBRANCH  14  19
ENDBRANCH   4  14
TORSDOF 9
ENDMDL
MODEL 6
REMARK VINA RESULT:      -5.2      5.040      8.530
REMARK  9 active torsions:
REMARK  status: ('A' for Active; 'I' for Inactive)
REMARK    1  A    between atoms: N_2  and  C_6 
REMARK    2  A    between atoms: S_3  and  C_14 
REMARK    3  A    between atoms: C_6  and  C_7 
REMARK    4  A    between atoms: C_6  and  C_13 
REMARK       I    between atoms: C_7  and  N_19 
REMARK    5  A    between atoms: C_13  and  C_20 
REMARK    6  A    between atoms: C_14  and  C_15 
REMARK    7  A    between atoms: C_15  and  C_16 
REMARK    8  A    between atoms: C_16  and  C_17 
REMARK    9  A    between atoms: C_16  and  N_19 
ROOT
HETATM    1  O           1     -22.407  -7.011  -5.031  0.00  0.00    -0.271 OA
HETATM    2  C           1     -21.248  -6.846  -4.732  0.00  0.00     0.249 C 
HETATM    3  H           1     -19.834  -7.066  -3.236  0.00  0.00     0.163 HD
HETATM    4  N           1     -20.805  -7.204  -3.487  0.00  0.00    -0.345 N 
ENDROOT
BRANCH   2   5
HETATM    5  C           1     -20.290  -6.245  -5.731  0.00  0.00     0.284 C 
BRANCH   5   6
HETATM    6  N           1     -20.700  -6.642  -7.117  0.00  0.00    -0.066 N 
HETATM    7  H           1     -21.738  -6.766  -7.152  0.00  0.00     0.275 HD
HETATM    8  H           1     -20.417  -5.897  -7.792  0.00  0.00     0.275 HD
HETATM    9  H           1     -20.234  -7.541  -7.374  0.00  0.00     0.275 HD
ENDBRANCH   5   6
BRANCH   5  10
HETATM   10  C           1     -20.315  -4.727  -5.609  0.00  0.00     0.155 C 
BRANCH  10  11
HETATM   11  C           1     -20.691  -4.122  -6.939  0.00  0.00     0.175 C 
HETATM   12  O           1     -21.883  -3.839  -7.182  0.00  0.00    -0.648 OA
HETATM   13  O           1     -19.809  -3.904  -7.797  0.00  0.00    -0.648 OA
ENDBRANCH  10  11
ENDBRANCH   5  10
ENDBRANCH   2   5
BRANCH   4  14
HETATM   14  C           1     -21.726  -7.782  -2.527  0.00  0.00     0.186 C 
BRANCH  14  15
HETATM   15  C           1     -21.011  -8.858  -1.722  0.00  0.00     0.046 C 
BRANCH  15  16
HETATM   16  C           1     -21.758 -10.178  -1.860  0.00  0.00     0.076 C 
BRANCH  16  17
HETATM   17  S           1     -22.281 -10.752  -0.220  0.00  0.00    -0.173 SA
HETATM   18  C           1     -21.051  -9.807   0.723  0.00  0.00     0.089 C 
ENDBRANCH  16  17
ENDBRANCH  15  16
ENDBRANCH  14  15
BRANCH  14  19
HETATM   19  C           1     -22.224  -6.704  -1.596  0.00  0.00     0.196 C 
HETATM   20  O           1     -22.816  -7.015  -0.540  0.00  0.00    -0.646 OA
HETATM   21  O           1     -22.043  -5.500  -1.880  0.00  0.00    -0.646 OA
ENDBRANCH  14  19
ENDBRANCH   4  14
TORSDOF 9
ENDMDL
MODEL 7
REMARK VINA RESULT:      -5.1      4.113      7.662
REMARK  9 active torsions:
REMARK  status: ('A' for Active; 'I' for Inactive)
REMARK    1  A    between atoms: N_2  and  C_6 
REMARK    2  A    between atoms: S_3  and  C_14 
REMARK    3  A    between atoms: C_6  and  C_7 
REMARK    4  A    between atoms: C_6  and  C_13 
REMARK       I    between atoms: C_7  and  N_19 
REMARK    5  A    between atoms: C_13  and  C_20 
REMARK    6  A    between atoms: C_14  and  C_15 
REMARK    7  A    between atoms: C_15  and  C_16 
REMARK    8  A    between atoms: C_16  and  C_17 
REMARK    9  A    between atoms: C_16  and  N_19 
ROOT
HETATM    1  O           1     -22.571  -5.730  -5.583  0.00  0.00    -0.271 OA
HETATM    2  C           1     -21.373  -5.882  -5.554  0.00  0.00     0.249 C 
HETATM    3  H           1     -19.812  -6.894  -4.645  0.00  0.00     0.163 HD
HETATM    4  N           1     -20.816  -6.767  -4.669  0.00  0.00    -0.345 N 
ENDROOT
BRANCH   2   5
HETATM    5  C           1     -20.490  -5.097  -6.493  0.00  0.00     0.284 C 
BRANCH   5   6
HETATM    6  N           1     -19.941  -6.014  -7.546  0.00  0.00    -0.066 N 
HETATM    7  H           1     -20.232  -6.997  -7.339  0.00  0.00     0.275 HD
HETATM    8  H           1     -20.311  -5.732  -8.481  0.00  0.00     0.275 HD
HETATM    9  H           1     -18.898  -5.954  -7.550  0.00  0.00     0.275 HD
ENDBRANCH   5   6
BRANCH   5  10
HETATM   10  C           1     -21.305  -3.994  -7.155  0.00  0.00     0.155 C 
BRANCH  10  11
HETATM   11  C           1     -21.409  -4.266  -8.636  0.00  0.00     0.175 C 
HETATM   12  O           1     -22.408  -4.862  -9.093  0.00  0.00    -0.648 OA
HETATM   13  O           1     -20.496  -3.895  -9.405  0.00  0.00    -0.648 OA
ENDBRANCH  10  11
ENDBRANCH   5  10
ENDBRANCH   2   5
BRANCH   4  14
HETATM   14  C           1     -21.665  -7.521  -3.767  0.00  0.00     0.186 C 
BRANCH  14  15
HETATM   15  C           1     -21.161  -8.955  -3.678  0.00  0.00     0.046 C 
BRANCH  15  16
HETATM   16  C           1     -19.849  -9.081  -4.438  0.00  0.00     0.076 C 
BRANCH  16  17
HETATM   17  S           1     -18.510  -9.473  -3.276  0.00  0.00    -0.173 SA
HETATM   18  C           1     -19.503 -10.522  -2.176  0.00  0.00     0.089 C 
ENDBRANCH  16  17
ENDBRANCH  15  16
ENDBRANCH  14  15
BRANCH  14  19
HETATM   19  C           1     -21.630  -6.888  -2.398  0.00  0.00     0.196 C 
HETATM   20  O           1     -22.267  -5.834  -2.179  0.00  0.00    -0.646 OA
HETATM   21  O           1     -20.967  -7.419  -1.481  0.00  0.00    -0.646 OA
ENDBRANCH  14  19
ENDBRANCH   4  14
TORSDOF 9
ENDMDL
MODEL 8
REMARK VINA RESULT:      -5.0      2.905      4.049
REMARK  9 active torsions:
REMARK  status: ('A' for Active; 'I' for Inactive)
REMARK    1  A    between atoms: N_2  and  C_6 
REMARK    2  A    between atoms: S_3  and  C_14 
REMARK    3  A    between atoms: C_6  and  C_7 
REMARK    4  A    between atoms: C_6  and  C_13 
REMARK       I    between atoms: C_7  and  N_19 
REMARK    5  A    between atoms: C_13  and  C_20 
REMARK    6  A    between atoms: C_14  and  C_15 
REMARK    7  A    between atoms: C_15  and  C_16 
REMARK    8  A    between atoms: C_16  and  C_17 
REMARK    9  A    between atoms: C_16  and  N_19 
ROOT
HETATM    1  O           1     -21.177  -7.728  -6.374  0.00  0.00    -0.271 OA
HETATM    2  C           1     -21.552  -6.956  -5.523  0.00  0.00     0.249 C 
HETATM    3  H           1     -22.010  -4.981  -5.106  0.00  0.00     0.163 HD
HETATM    4  N           1     -21.696  -5.627  -5.819  0.00  0.00    -0.345 N 
ENDROOT
BRANCH   2   5
HETATM    5  C           1     -21.860  -7.458  -4.133  0.00  0.00     0.284 C 
BRANCH   5   6
HETATM    6  N           1     -21.134  -8.749  -3.896  0.00  0.00    -0.066 N 
HETATM    7  H           1     -20.946  -9.216  -4.812  0.00  0.00     0.275 HD
HETATM    8  H           1     -20.229  -8.556  -3.412  0.00  0.00     0.275 HD
HETATM    9  H           1     -21.723  -9.374  -3.300  0.00  0.00     0.275 HD
ENDBRANCH   5   6
BRANCH   5  10
HETATM   10  C           1     -21.409  -6.425  -3.108  0.00  0.00     0.155 C 
BRANCH  10  11
HETATM   11  C           1     -21.684  -6.944  -1.718  0.00  0.00     0.175 C 
HETATM   12  O           1     -20.903  -7.765  -1.191  0.00  0.00    -0.648 OA
HETATM   13  O           1     -22.693  -6.552  -1.094  0.00  0.00    -0.648 OA
ENDBRANCH  10  11
ENDBRANCH   5  10
ENDBRANCH   2   5
BRANCH   4  14
HETATM   14  C           1     -21.400  -5.145  -7.154  0.00  0.00     0.186 C 
BRANCH  14  15
HETATM   15  C           1     -22.322  -3.981  -7.489  0.00  0.00     0.046 C 
BRANCH  15  16
HETATM   16  C           1     -23.226  -4.367  -8.652  0.00  0.00     0.076 C 
BRANCH  16  17
HETATM   17  S           1     -22.544  -3.700 -10.197  0.00  0.00    -0.173 SA
HETATM   18  C           1     -24.141  -3.308 -10.966  0.00  0.00     0.089 C 
ENDBRANCH  16  17
ENDBRANCH  15  16
ENDBRANCH  14  15
BRANCH  14  19
HETATM   19  C           1     -19.964  -4.684  -7.215  0.00  0.00     0.196 C 
HETATM   20  O           1     -19.292  -4.594  -6.165  0.00  0.00    -0.646 OA
HETATM   21  O           1     -19.447  -4.394  -8.316  0.00  0.00    -0.646 OA
ENDBRANCH  14  19
ENDBRANCH   4  14
TORSDOF 9
ENDMDL
MODEL 9
REMARK VINA RESULT:      -4.7      6.374      9.855
REMARK  9 active torsions:
REMARK  status: ('A' for Active; 'I' for Inactive)
REMARK    1  A    between atoms: N_2  and  C_6 
REMARK    2  A    between atoms: S_3  and  C_14 
REMARK    3  A    between atoms: C_6  and  C_7 
REMARK    4  A    between atoms: C_6  and  C_13 
REMARK       I    between atoms: C_7  and  N_19 
REMARK    5  A    between atoms: C_13  and  C_20 
REMARK    6  A    between atoms: C_14  and  C_15 
REMARK    7  A    between atoms: C_15  and  C_16 
REMARK    8  A    between atoms: C_16  and  C_17 
REMARK    9  A    between atoms: C_16  and  N_19 
ROOT
HETATM    1  O           1     -22.153 -10.250  -3.291  0.00  0.00    -0.271 OA
HETATM    2  C           1     -21.323  -9.386  -3.130  0.00  0.00     0.249 C 
HETATM    3  H           1     -20.542  -8.013  -1.793  0.00  0.00     0.163 HD
HETATM    4  N           1     -21.236  -8.736  -1.928  0.00  0.00    -0.345 N 
ENDROOT
BRANCH   2   5
HETATM    5  C           1     -20.384  -9.023  -4.254  0.00  0.00     0.284 C 
BRANCH   5   6
HETATM    6  N           1     -20.866  -9.650  -5.529  0.00  0.00    -0.066 N 
HETATM    7  H           1     -20.347  -9.239  -6.338  0.00  0.00     0.275 HD
HETATM    8  H           1     -20.696 -10.681  -5.496  0.00  0.00     0.275 HD
HETATM    9  H           1     -21.888  -9.468  -5.641  0.00  0.00     0.275 HD
ENDBRANCH   5   6
BRANCH   5  10
HETATM   10  C           1     -20.346  -7.509  -4.416  0.00  0.00     0.155 C 
BRANCH  10  11
HETATM   11  C           1     -21.348  -7.090  -5.463  0.00  0.00     0.175 C 
HETATM   12  O           1     -20.980  -6.909  -6.644  0.00  0.00    -0.648 OA
HETATM   13  O           1     -22.547  -6.924  -5.150  0.00  0.00    -0.648 OA
ENDBRANCH  10  11
ENDBRANCH   5  10
ENDBRANCH   2   5
BRANCH   4  14
HETATM   14  C           1     -22.139  -9.086  -0.848  0.00  0.00     0.186 C 
BRANCH  14  15
HETATM   15  C           1     -21.365  -9.810   0.245  0.00  0.00     0.046 C 
BRANCH  15  16
HETATM   16  C           1     -21.510 -11.314   0.061  0.00  0.00     0.076 C 
BRANCH  16  17
HETATM   17  S           1     -23.270 -11.745  -0.039  0.00  0.00    -0.173 SA
HETATM   18  C           1     -23.200 -13.138   1.122  0.00  0.00     0.089 C 
ENDBRANCH  16  17
ENDBRANCH  15  16
ENDBRANCH  14  15
BRANCH  14  19
HETATM   19  C           1     -22.755  -7.830  -0.282  0.00  0.00     0.196 C 
HETATM   20  O           1     -22.661  -6.751  -0.906  0.00  0.00    -0.646 OA
HETATM   21  O           1     -23.361  -7.870   0.811  0.00  0.00    -0.646 OA
ENDBRANCH  14  19
ENDBRANCH   4  14
TORSDOF 9
ENDMDL
