MODEL 1
REMARK VINA RESULT:      -7.8      0.000      0.000
REMARK  18 active torsions:
REMARK  status: ('A' for Active; 'I' for Inactive)
REMARK       I    between atoms: N_1  and  C_41 
REMARK    1  A    between atoms: N_2  and  C_23 
REMARK    2  A    between atoms: C_6  and  O_7 
REMARK    3  A    between atoms: O_7  and  P_8 
REMARK    4  A    between atoms: P_8  and  O_10 
REMARK    5  A    between atoms: N_14  and  C_35 
REMARK    6  A    between atoms: N_14  and  C_15 
REMARK    7  A    between atoms: C_15  and  C_16 
REMARK    8  A    between atoms: C_16  and  C_17 
REMARK    9  A    between atoms: C_17  and  C_18 
REMARK   10  A    between atoms: C_17  and  N_21 
REMARK       I    between atoms: N_21  and  C_22 
REMARK   11  A    between atoms: C_22  and  C_23 
REMARK   12  A    between atoms: C_23  and  C_30 
REMARK   13  A    between atoms: C_26  and  C_30 
REMARK   14  A    between atoms: C_26  and  C_27 
REMARK   15  A    between atoms: C_27  and  N_40 
REMARK   16  A    between atoms: C_33  and  C_35 
REMARK   17  A    between atoms: C_35  and  C_36 
REMARK   18  A    between atoms: C_36  and  C_37 
REMARK       I    between atoms: N_40  and  C_41 
ROOT
HETATM    1  C           1     -21.288  -7.488  -2.310  0.00  0.00     0.187 C 
ENDROOT
BRANCH   1   2
HETATM    2  C           1     -21.924  -6.229  -2.885  0.00  0.00     0.066 C 
BRANCH   2   3
HETATM    3  C           1     -21.901  -6.296  -4.406  0.00  0.00     0.273 C 
BRANCH   3   4
HETATM    4  N           1     -21.171  -5.172  -4.925  0.00  0.00     0.098 N 
HETATM    5  H           1     -20.224  -5.177  -4.545  0.00  0.00     0.317 HD
BRANCH   4   6
HETATM    6  C           1     -21.115  -5.309  -6.355  0.00  0.00     0.324 C 
BRANCH   6   7
HETATM    7  C           1     -19.763  -5.846  -6.755  0.00  0.00     0.207 C 
HETATM    8  O           1     -19.551  -7.078  -6.743  0.00  0.00    -0.646 OA
HETATM    9  O           1     -18.855  -5.059  -7.099  0.00  0.00    -0.646 OA
ENDBRANCH   6   7
BRANCH   6  10
HETATM   10  C           1     -21.334  -3.949  -7.004  0.00  0.00     0.085 C 
BRANCH  10  11
HETATM   11  C           1     -21.951  -4.134  -8.356  0.00  0.00    -0.055 A 
HETATM   12  C           1     -21.136  -4.272  -9.480  0.00  0.00     0.010 A 
HETATM   13  C           1     -21.710  -4.445 -10.740  0.00  0.00     0.038 A 
HETATM   14  C           1     -23.098  -4.479 -10.875  0.00  0.00     0.081 A 
HETATM   15  C           1     -23.912  -4.342  -9.750  0.00  0.00     0.038 A 
HETATM   16  C           1     -23.339  -4.169  -8.491  0.00  0.00     0.010 A 
BRANCH  14  17
HETATM   17  O           1     -23.655  -4.647 -12.099  0.00  0.00    -0.247 OA
BRANCH  17  18
HETATM   18  P           1     -23.995  -3.327 -12.964  0.00  0.00     0.411 P 
HETATM   19  O           1     -23.060  -2.240 -12.596  0.00  0.00    -0.624 OA
HETATM   20  O           1     -25.384  -2.898 -12.683  0.00  0.00    -0.624 OA
BRANCH  18  21
HETATM   21  O           1     -23.840  -3.659 -14.537  0.00  0.00    -0.300 OA
HETATM   22  H           1     -22.933  -3.891 -14.648  0.00  0.00     0.223 HD
ENDBRANCH  18  21
ENDBRANCH  17  18
ENDBRANCH  14  17
ENDBRANCH  10  11
ENDBRANCH   6  10
ENDBRANCH   4   6
ENDBRANCH   3   4
ENDBRANCH   2   3
ENDBRANCH   1   2
BRANCH   1  23
HETATM   23  C           1     -21.961  -7.843  -1.007  0.00  0.00     0.196 C 
HETATM   24  O           1     -22.832  -7.084  -0.527  0.00  0.00    -0.646 OA
HETATM   25  O           1     -21.649  -8.894  -0.409  0.00  0.00    -0.646 OA
ENDBRANCH   1  23
BRANCH   1  26
HETATM   26  N           1     -21.448  -8.582  -3.250  0.00  0.00    -0.345 N 
HETATM   27  C           1     -20.362  -9.326  -3.625  0.00  0.00     0.249 C 
HETATM   28  O           1     -19.271  -9.071  -3.175  0.00  0.00    -0.271 OA
HETATM   29  H           1     -22.363  -8.795  -3.627  0.00  0.00     0.163 HD
BRANCH  27  30
HETATM   30  C           1     -20.529 -10.463  -4.602  0.00  0.00     0.274 C 
BRANCH  30  31
HETATM   31  N           1     -20.795  -9.911  -5.971  0.00  0.00    -0.067 N 
HETATM   32  H           1     -21.298 -10.625  -6.544  0.00  0.00     0.275 HD
HETATM   33  H           1     -21.382  -9.050  -5.892  0.00  0.00     0.275 HD
HETATM   34  H           1     -19.886  -9.672  -6.433  0.00  0.00     0.275 HD
ENDBRANCH  30  31
BRANCH  30  35
HETATM   35  C           1     -19.256 -11.298  -4.631  0.00  0.00     0.044 C 
BRANCH  35  36
HETATM   36  C           1     -18.657 -11.266  -6.030  0.00  0.00     0.023 C 
BRANCH  36  37
HETATM   37  C           1     -17.227 -10.745  -5.960  0.00  0.00     0.138 C 
BRANCH  37  38
HETATM   38  N           1     -17.066  -9.914  -4.758  0.00  0.00    -0.227 N 
HETATM   39  H           1     -17.753  -9.147  -4.554  0.00  0.00     0.177 HD
HETATM   40  C           1     -16.100 -10.124  -3.968  0.00  0.00     0.665 C 
HETATM   41  N           1     -15.249 -11.075  -4.220  0.00  0.00    -0.235 N 
HETATM   42  N           1     -15.961  -9.409  -2.932  0.00  0.00    -0.235 N 
HETATM   43  H           1     -14.451 -11.248  -3.568  0.00  0.00     0.174 HD
HETATM   44  H           1     -15.363 -11.665  -5.075  0.00  0.00     0.174 HD
HETATM   45  H           1     -15.159  -9.584  -2.277  0.00  0.00     0.174 HD
HETATM   46  H           1     -16.649  -8.642  -2.729  0.00  0.00     0.174 HD
ENDBRANCH  37  38
ENDBRANCH  36  37
ENDBRANCH  35  36
ENDBRANCH  30  35
ENDBRANCH  27  30
ENDBRANCH   1  26
TORSDOF 18
ENDMDL
MODEL 2
REMARK VINA RESULT:      -7.7      1.421      2.200
REMARK  18 active torsions:
REMARK  status: ('A' for Active; 'I' for Inactive)
REMARK       I    between atoms: N_1  and  C_41 
REMARK    1  A    between atoms: N_2  and  C_23 
REMARK    2  A    between atoms: C_6  and  O_7 
REMARK    3  A    between atoms: O_7  and  P_8 
REMARK    4  A    between atoms: P_8  and  O_10 
REMARK    5  A    between atoms: N_14  and  C_35 
REMARK    6  A    between atoms: N_14  and  C_15 
REMARK    7  A    between atoms: C_15  and  C_16 
REMARK    8  A    between atoms: C_16  and  C_17 
REMARK    9  A    between atoms: C_17  and  C_18 
REMARK   10  A    between atoms: C_17  and  N_21 
REMARK       I    between atoms: N_21  and  C_22 
REMARK   11  A    between atoms: C_22  and  C_23 
REMARK   12  A    between atoms: C_23  and  C_30 
REMARK   13  A    between atoms: C_26  and  C_30 
REMARK   14  A    between atoms: C_26  and  C_27 
REMARK   15  A    between atoms: C_27  and  N_40 
REMARK   16  A    between atoms: C_33  and  C_35 
REMARK   17  A    between atoms: C_35  and  C_36 
REMARK   18  A    between atoms: C_36  and  C_37 
REMARK       I    between atoms: N_40  and  C_41 
ROOT
HETATM    1  C           1     -21.461  -7.565  -1.318  0.00  0.00     0.187 C 
ENDROOT
BRANCH   1   2
HETATM    2  C           1     -21.885  -6.310  -2.070  0.00  0.00     0.066 C 
BRANCH   2   3
HETATM    3  C           1     -21.899  -6.594  -3.566  0.00  0.00     0.273 C 
BRANCH   3   4
HETATM    4  N           1     -21.194  -5.551  -4.260  0.00  0.00     0.098 N 
HETATM    5  H           1     -20.194  -5.638  -4.077  0.00  0.00     0.317 HD
BRANCH   4   6
HETATM    6  C           1     -21.440  -5.717  -5.666  0.00  0.00     0.324 C 
BRANCH   6   7
HETATM    7  C           1     -20.671  -6.912  -6.174  0.00  0.00     0.207 C 
HETATM    8  O           1     -19.466  -6.794  -6.483  0.00  0.00    -0.646 OA
HETATM    9  O           1     -21.240  -8.019  -6.287  0.00  0.00    -0.646 OA
ENDBRANCH   6   7
BRANCH   6  10
HETATM   10  C           1     -20.988  -4.467  -6.411  0.00  0.00     0.085 C 
BRANCH  10  11
HETATM   11  C           1     -21.497  -4.512  -7.818  0.00  0.00    -0.055 A 
HETATM   12  C           1     -22.869  -4.564  -8.062  0.00  0.00     0.010 A 
HETATM   13  C           1     -23.344  -4.605  -9.373  0.00  0.00     0.038 A 
HETATM   14  C           1     -22.446  -4.593 -10.440  0.00  0.00     0.081 A 
HETATM   15  C           1     -21.073  -4.539 -10.196  0.00  0.00     0.038 A 
HETATM   16  C           1     -20.599  -4.499  -8.885  0.00  0.00     0.010 A 
BRANCH  14  17
HETATM   17  O           1     -22.907  -4.633 -11.714  0.00  0.00    -0.247 OA
BRANCH  17  18
HETATM   18  P           1     -23.610  -3.305 -12.306  0.00  0.00     0.411 P 
HETATM   19  O           1     -22.734  -2.135 -12.073  0.00  0.00    -0.624 OA
HETATM   20  O           1     -24.909  -3.090 -11.628  0.00  0.00    -0.624 OA
BRANCH  18  21
HETATM   21  O           1     -23.853  -3.487 -13.893  0.00  0.00    -0.300 OA
HETATM   22  H           1     -24.738  -3.802 -13.969  0.00  0.00     0.223 HD
ENDBRANCH  18  21
ENDBRANCH  17  18
ENDBRANCH  14  17
ENDBRANCH  10  11
ENDBRANCH   6  10
ENDBRANCH   4   6
ENDBRANCH   3   4
ENDBRANCH   2   3
ENDBRANCH   1   2
BRANCH   1  23
HETATM   23  C           1     -22.237  -7.666  -0.028  0.00  0.00     0.196 C 
HETATM   24  O           1     -23.460  -7.406  -0.013  0.00  0.00    -0.646 OA
HETATM   25  O           1     -21.658  -8.009   1.024  0.00  0.00    -0.646 OA
ENDBRANCH   1  23
BRANCH   1  26
HETATM   26  N           1     -21.731  -8.733  -2.136  0.00  0.00    -0.345 N 
HETATM   27  C           1     -20.978  -9.866  -1.980  0.00  0.00     0.249 C 
HETATM   28  O           1     -20.091  -9.894  -1.162  0.00  0.00    -0.271 OA
HETATM   29  H           1     -22.475  -8.709  -2.822  0.00  0.00     0.163 HD
BRANCH  27  30
HETATM   30  C           1     -21.259 -11.080  -2.831  0.00  0.00     0.274 C 
BRANCH  30  31
HETATM   31  N           1     -21.950 -12.122  -2.002  0.00  0.00    -0.067 N 
HETATM   32  H           1     -22.733 -12.541  -2.552  0.00  0.00     0.275 HD
HETATM   33  H           1     -21.267 -12.869  -1.743  0.00  0.00     0.275 HD
HETATM   34  H           1     -22.331 -11.680  -1.134  0.00  0.00     0.275 HD
ENDBRANCH  30  31
BRANCH  30  35
HETATM   35  C           1     -22.154 -10.685  -3.999  0.00  0.00     0.044 C 
BRANCH  35  36
HETATM   36  C           1     -21.895 -11.616  -5.175  0.00  0.00     0.023 C 
BRANCH  36  37
HETATM   37  C           1     -20.400 -11.881  -5.296  0.00  0.00     0.138 C 
BRANCH  37  38
HETATM   38  N           1     -19.768 -10.788  -6.050  0.00  0.00    -0.227 N 
HETATM   39  H           1     -20.222 -10.421  -6.923  0.00  0.00     0.177 HD
HETATM   40  C           1     -18.678 -10.288  -5.646  0.00  0.00     0.665 C 
HETATM   41  N           1     -18.116 -10.742  -4.564  0.00  0.00    -0.235 N 
HETATM   42  N           1     -18.133  -9.347  -6.294  0.00  0.00    -0.235 N 
HETATM   43  H           1     -17.215 -10.330  -4.231  0.00  0.00     0.174 HD
HETATM   44  H           1     -18.565 -11.519  -4.029  0.00  0.00     0.174 HD
HETATM   45  H           1     -17.229  -8.932  -5.959  0.00  0.00     0.174 HD
HETATM   46  H           1     -18.588  -8.980  -7.167  0.00  0.00     0.174 HD
ENDBRANCH  37  38
ENDBRANCH  36  37
ENDBRANCH  35  36
ENDBRANCH  30  35
ENDBRANCH  27  30
ENDBRANCH   1  26
TORSDOF 18
ENDMDL
MODEL 3
REMARK VINA RESULT:      -7.7      4.218      9.155
REMARK  18 active torsions:
REMARK  status: ('A' for Active; 'I' for Inactive)
REMARK       I    between atoms: N_1  and  C_41 
REMARK    1  A    between atoms: N_2  and  C_23 
REMARK    2  A    between atoms: C_6  and  O_7 
REMARK    3  A    between atoms: O_7  and  P_8 
REMARK    4  A    between atoms: P_8  and  O_10 
REMARK    5  A    between atoms: N_14  and  C_35 
REMARK    6  A    between atoms: N_14  and  C_15 
REMARK    7  A    between atoms: C_15  and  C_16 
REMARK    8  A    between atoms: C_16  and  C_17 
REMARK    9  A    between atoms: C_17  and  C_18 
REMARK   10  A    between atoms: C_17  and  N_21 
REMARK       I    between atoms: N_21  and  C_22 
REMARK   11  A    between atoms: C_22  and  C_23 
REMARK   12  A    between atoms: C_23  and  C_30 
REMARK   13  A    between atoms: C_26  and  C_30 
REMARK   14  A    between atoms: C_26  and  C_27 
REMARK   15  A    between atoms: C_27  and  N_40 
REMARK   16  A    between atoms: C_33  and  C_35 
REMARK   17  A    between atoms: C_35  and  C_36 
REMARK   18  A    between atoms: C_36  and  C_37 
REMARK       I    between atoms: N_40  and  C_41 
ROOT
HETATM    1  C           1     -21.047  -6.393  -5.383  0.00  0.00     0.187 C 
ENDROOT
BRANCH   1   2
HETATM    2  C           1     -22.050  -6.436  -4.238  0.00  0.00     0.066 C 
BRANCH   2   3
HETATM    3  C           1     -21.335  -6.150  -2.924  0.00  0.00     0.273 C 
BRANCH   3   4
HETATM    4  N           1     -22.221  -6.423  -1.826  0.00  0.00     0.098 N 
HETATM    5  H           1     -23.187  -6.404  -2.155  0.00  0.00     0.317 HD
BRANCH   4   6
HETATM    6  C           1     -21.910  -7.735  -1.328  0.00  0.00     0.324 C 
BRANCH   6   7
HETATM    7  C           1     -22.341  -7.841   0.114  0.00  0.00     0.207 C 
HETATM    8  O           1     -23.529  -7.612   0.430  0.00  0.00    -0.646 OA
HETATM    9  O           1     -21.510  -8.157   0.993  0.00  0.00    -0.646 OA
ENDBRANCH   6   7
BRANCH   6  10
HETATM   10  C           1     -20.409  -7.972  -1.429  0.00  0.00     0.085 C 
BRANCH  10  11
HETATM   11  C           1     -20.150  -9.190  -2.261  0.00  0.00    -0.055 A 
HETATM   12  C           1     -21.214  -9.991  -2.675  0.00  0.00     0.010 A 
HETATM   13  C           1     -20.974 -11.125  -3.451  0.00  0.00     0.038 A 
HETATM   14  C           1     -19.669 -11.457  -3.813  0.00  0.00     0.081 A 
HETATM   15  C           1     -18.604 -10.656  -3.400  0.00  0.00     0.038 A 
HETATM   16  C           1     -18.845  -9.522  -2.624  0.00  0.00     0.010 A 
BRANCH  14  17
HETATM   17  O           1     -19.435 -12.559  -4.566  0.00  0.00    -0.247 OA
BRANCH  17  18
HETATM   18  P           1     -19.665 -12.449  -6.161  0.00  0.00     0.411 P 
HETATM   19  O           1     -21.032 -12.907  -6.496  0.00  0.00    -0.624 OA
HETATM   20  O           1     -18.676 -13.297  -6.862  0.00  0.00    -0.624 OA
BRANCH  18  21
HETATM   21  O           1     -19.485 -10.912  -6.626  0.00  0.00    -0.300 OA
HETATM   22  H           1     -18.578 -10.714  -6.465  0.00  0.00     0.223 HD
ENDBRANCH  18  21
ENDBRANCH  17  18
ENDBRANCH  14  17
ENDBRANCH  10  11
ENDBRANCH   6  10
ENDBRANCH   4   6
ENDBRANCH   3   4
ENDBRANCH   2   3
ENDBRANCH   1   2
BRANCH   1  23
HETATM   23  C           1     -20.547  -7.788  -5.668  0.00  0.00     0.196 C 
HETATM   24  O           1     -19.319  -8.024  -5.666  0.00  0.00    -0.646 OA
HETATM   25  O           1     -21.360  -8.706  -5.905  0.00  0.00    -0.646 OA
ENDBRANCH   1  23
BRANCH   1  26
HETATM   26  N           1     -21.689  -5.859  -6.569  0.00  0.00    -0.345 N 
HETATM   27  C           1     -20.993  -5.035  -7.412  0.00  0.00     0.249 C 
HETATM   28  O           1     -19.845  -4.753  -7.169  0.00  0.00    -0.271 OA
HETATM   29  H           1     -22.652  -6.095  -6.773  0.00  0.00     0.163 HD
BRANCH  27  30
HETATM   30  C           1     -21.662  -4.480  -8.645  0.00  0.00     0.274 C 
BRANCH  30  31
HETATM   31  N           1     -22.664  -3.438  -8.244  0.00  0.00    -0.067 N 
HETATM   32  H           1     -22.519  -3.182  -7.242  0.00  0.00     0.275 HD
HETATM   33  H           1     -22.541  -2.589  -8.842  0.00  0.00     0.275 HD
HETATM   34  H           1     -23.630  -3.817  -8.371  0.00  0.00     0.275 HD
ENDBRANCH  30  31
BRANCH  30  35
HETATM   35  C           1     -20.613  -3.853  -9.553  0.00  0.00     0.044 C 
BRANCH  35  36
HETATM   36  C           1     -20.755  -4.416 -10.960  0.00  0.00     0.023 C 
BRANCH  36  37
HETATM   37  C           1     -22.109  -4.016 -11.534  0.00  0.00     0.138 C 
BRANCH  37  38
HETATM   38  N           1     -21.965  -3.708 -12.964  0.00  0.00    -0.227 N 
HETATM   39  H           1     -21.179  -4.133 -13.516  0.00  0.00     0.177 HD
HETATM   40  C           1     -22.789  -2.933 -13.531  0.00  0.00     0.665 C 
HETATM   41  N           1     -23.763  -2.407 -12.847  0.00  0.00    -0.235 N 
HETATM   42  N           1     -22.665  -2.667 -14.762  0.00  0.00    -0.235 N 
HETATM   43  H           1     -24.442  -1.766 -13.315  0.00  0.00     0.174 HD
HETATM   44  H           1     -23.864  -2.626 -11.831  0.00  0.00     0.174 HD
HETATM   45  H           1     -23.348  -2.024 -15.232  0.00  0.00     0.174 HD
HETATM   46  H           1     -21.879  -3.093 -15.314  0.00  0.00     0.174 HD
ENDBRANCH  37  38
ENDBRANCH  36  37
ENDBRANCH  35  36
ENDBRANCH  30  35
ENDBRANCH  27  30
ENDBRANCH   1  26
TORSDOF 18
ENDMDL
MODEL 4
REMARK VINA RESULT:      -7.5      4.735      9.973
REMARK  18 active torsions:
REMARK  status: ('A' for Active; 'I' for Inactive)
REMARK       I    between atoms: N_1  and  C_41 
REMARK    1  A    between atoms: N_2  and  C_23 
REMARK    2  A    between atoms: C_6  and  O_7 
REMARK    3  A    between atoms: O_7  and  P_8 
REMARK    4  A    between atoms: P_8  and  O_10 
REMARK    5  A    between atoms: N_14  and  C_35 
REMARK    6  A    between atoms: N_14  and  C_15 
REMARK    7  A    between atoms: C_15  and  C_16 
REMARK    8  A    between atoms: C_16  and  C_17 
REMARK    9  A    between atoms: C_17  and  C_18 
REMARK   10  A    between atoms: C_17  and  N_21 
REMARK       I    between atoms: N_21  and  C_22 
REMARK   11  A    between atoms: C_22  and  C_23 
REMARK   12  A    between atoms: C_23  and  C_30 
REMARK   13  A    between atoms: C_26  and  C_30 
REMARK   14  A    between atoms: C_26  and  C_27 
REMARK   15  A    between atoms: C_27  and  N_40 
REMARK   16  A    between atoms: C_33  and  C_35 
REMARK   17  A    between atoms: C_35  and  C_36 
REMARK   18  A    between atoms: C_36  and  C_37 
REMARK       I    between atoms: N_40  and  C_41 
ROOT
HETATM    1  C           1     -21.447  -5.359  -6.131  0.00  0.00     0.187 C 
ENDROOT
BRANCH   1   2
HETATM    2  C           1     -21.911  -6.449  -5.173  0.00  0.00     0.066 C 
BRANCH   2   3
HETATM    3  C           1     -21.148  -6.332  -3.861  0.00  0.00     0.273 C 
BRANCH   3   4
HETATM    4  N           1     -21.635  -7.315  -2.932  0.00  0.00     0.098 N 
HETATM    5  H           1     -22.645  -7.409  -3.037  0.00  0.00     0.317 HD
BRANCH   4   6
HETATM    6  C           1     -21.001  -8.566  -3.245  0.00  0.00     0.324 C 
BRANCH   6   7
HETATM    7  C           1     -21.919  -9.703  -2.871  0.00  0.00     0.207 C 
HETATM    8  O           1     -22.278  -9.851  -1.683  0.00  0.00    -0.646 OA
HETATM    9  O           1     -22.321 -10.496  -3.750  0.00  0.00    -0.646 OA
ENDBRANCH   6   7
BRANCH   6  10
HETATM   10  C           1     -19.699  -8.684  -2.463  0.00  0.00     0.085 C 
BRANCH  10  11
HETATM   11  C           1     -18.609  -9.156  -3.375  0.00  0.00    -0.055 A 
HETATM   12  C           1     -18.859  -9.312  -4.738  0.00  0.00     0.010 A 
HETATM   13  C           1     -17.844  -9.751  -5.588  0.00  0.00     0.038 A 
HETATM   14  C           1     -16.578 -10.033  -5.074  0.00  0.00     0.081 A 
HETATM   15  C           1     -16.328  -9.876  -3.710  0.00  0.00     0.038 A 
HETATM   16  C           1     -17.343  -9.437  -2.861  0.00  0.00     0.010 A 
BRANCH  14  17
HETATM   17  O           1     -15.591 -10.459  -5.899  0.00  0.00    -0.247 OA
BRANCH  17  18
HETATM   18  P           1     -15.439 -12.049  -6.140  0.00  0.00     0.411 P 
HETATM   19  O           1     -14.008 -12.388  -6.311  0.00  0.00    -0.624 OA
HETATM   20  O           1     -16.185 -12.437  -7.358  0.00  0.00    -0.624 OA
BRANCH  18  21
HETATM   21  O           1     -16.032 -12.845  -4.866  0.00  0.00    -0.300 OA
HETATM   22  H           1     -16.787 -12.349  -4.599  0.00  0.00     0.223 HD
ENDBRANCH  18  21
ENDBRANCH  17  18
ENDBRANCH  14  17
ENDBRANCH  10  11
ENDBRANCH   6  10
ENDBRANCH   4   6
ENDBRANCH   3   4
ENDBRANCH   2   3
ENDBRANCH   1   2
BRANCH   1  23
HETATM   23  C           1     -20.025  -5.634  -6.555  0.00  0.00     0.196 C 
HETATM   24  O           1     -19.719  -6.751  -7.028  0.00  0.00    -0.646 OA
HETATM   25  O           1     -19.154  -4.746  -6.434  0.00  0.00    -0.646 OA
ENDBRANCH   1  23
BRANCH   1  26
HETATM   26  N           1     -22.305  -5.346  -7.300  0.00  0.00    -0.345 N 
HETATM   27  C           1     -22.410  -4.211  -8.059  0.00  0.00     0.249 C 
HETATM   28  O           1     -21.787  -3.222  -7.756  0.00  0.00    -0.271 OA
HETATM   29  H           1     -22.827  -6.175  -7.555  0.00  0.00     0.163 HD
BRANCH  27  30
HETATM   30  C           1     -23.302  -4.198  -9.275  0.00  0.00     0.274 C 
BRANCH  30  31
HETATM   31  N           1     -24.486  -3.314  -9.016  0.00  0.00    -0.067 N 
HETATM   32  H           1     -24.745  -2.812  -9.895  0.00  0.00     0.275 HD
HETATM   33  H           1     -25.293  -3.897  -8.698  0.00  0.00     0.275 HD
HETATM   34  H           1     -24.244  -2.617  -8.275  0.00  0.00     0.275 HD
ENDBRANCH  30  31
BRANCH  30  35
HETATM   35  C           1     -22.524  -3.666 -10.471  0.00  0.00     0.044 C 
BRANCH  35  36
HETATM   36  C           1     -23.300  -3.947 -11.750  0.00  0.00     0.023 C 
BRANCH  36  37
HETATM   37  C           1     -22.728  -3.110 -12.887  0.00  0.00     0.138 C 
BRANCH  37  38
HETATM   38  N           1     -23.656  -2.014 -13.205  0.00  0.00    -0.227 N 
HETATM   39  H           1     -24.272  -1.614 -12.455  0.00  0.00     0.177 HD
HETATM   40  C           1     -23.709  -1.552 -14.382  0.00  0.00     0.665 C 
HETATM   41  N           1     -22.945  -2.047 -15.311  0.00  0.00    -0.235 N 
HETATM   42  N           1     -24.507  -0.608 -14.656  0.00  0.00    -0.235 N 
HETATM   43  H           1     -22.990  -1.666 -16.282  0.00  0.00     0.174 HD
HETATM   44  H           1     -22.287  -2.826 -15.085  0.00  0.00     0.174 HD
HETATM   45  H           1     -24.552  -0.224 -15.632  0.00  0.00     0.174 HD
HETATM   46  H           1     -25.123  -0.208 -13.905  0.00  0.00     0.174 HD
ENDBRANCH  37  38
ENDBRANCH  36  37
ENDBRANCH  35  36
ENDBRANCH  30  35
ENDBRANCH  27  30
ENDBRANCH   1  26
TORSDOF 18
ENDMDL
MODEL 5
REMARK VINA RESULT:      -7.4      4.250      8.914
REMARK  18 active torsions:
REMARK  status: ('A' for Active; 'I' for Inactive)
REMARK       I    between atoms: N_1  and  C_41 
REMARK    1  A    between atoms: N_2  and  C_23 
REMARK    2  A    between atoms: C_6  and  O_7 
REMARK    3  A    between atoms: O_7  and  P_8 
REMARK    4  A    between atoms: P_8  and  O_10 
REMARK    5  A    between atoms: N_14  and  C_35 
REMARK    6  A    between atoms: N_14  and  C_15 
REMARK    7  A    between atoms: C_15  and  C_16 
REMARK    8  A    between atoms: C_16  and  C_17 
REMARK    9  A    between atoms: C_17  and  C_18 
REMARK   10  A    between atoms: C_17  and  N_21 
REMARK       I    between atoms: N_21  and  C_22 
REMARK   11  A    between atoms: C_22  and  C_23 
REMARK   12  A    between atoms: C_23  and  C_30 
REMARK   13  A    between atoms: C_26  and  C_30 
REMARK   14  A    between atoms: C_26  and  C_27 
REMARK   15  A    between atoms: C_27  and  N_40 
REMARK   16  A    between atoms: C_33  and  C_35 
REMARK   17  A    between atoms: C_35  and  C_36 
REMARK   18  A    between atoms: C_36  and  C_37 
REMARK       I    between atoms: N_40  and  C_41 
ROOT
HETATM    1  C           1     -20.964  -6.748  -4.850  0.00  0.00     0.187 C 
ENDROOT
BRANCH   1   2
HETATM    2  C           1     -22.071  -6.856  -3.810  0.00  0.00     0.066 C 
BRANCH   2   3
HETATM    3  C           1     -21.545  -6.399  -2.456  0.00  0.00     0.273 C 
BRANCH   3   4
HETATM    4  N           1     -20.766  -7.451  -1.862  0.00  0.00     0.098 N 
HETATM    5  H           1     -20.179  -7.063  -1.124  0.00  0.00     0.317 HD
BRANCH   4   6
HETATM    6  C           1     -21.680  -8.406  -1.297  0.00  0.00     0.324 C 
BRANCH   6   7
HETATM    7  C           1     -22.286  -7.837  -0.037  0.00  0.00     0.207 C 
HETATM    8  O           1     -23.446  -7.373  -0.056  0.00  0.00    -0.646 OA
HETATM    9  O           1     -21.626  -7.830   1.025  0.00  0.00    -0.646 OA
ENDBRANCH   6   7
BRANCH   6  10
HETATM   10  C           1     -20.931  -9.690  -0.967  0.00  0.00     0.085 C 
BRANCH  10  11
HETATM   11  C           1     -20.923 -10.587  -2.166  0.00  0.00    -0.055 A 
HETATM   12  C           1     -19.794 -11.354  -2.454  0.00  0.00     0.010 A 
HETATM   13  C           1     -19.786 -12.190  -3.571  0.00  0.00     0.038 A 
HETATM   14  C           1     -20.907 -12.258  -4.398  0.00  0.00     0.081 A 
HETATM   15  C           1     -22.036 -11.492  -4.109  0.00  0.00     0.038 A 
HETATM   16  C           1     -22.044 -10.656  -2.993  0.00  0.00     0.010 A 
BRANCH  14  17
HETATM   17  O           1     -20.899 -13.071  -5.483  0.00  0.00    -0.247 OA
BRANCH  17  18
HETATM   18  P           1     -19.929 -12.681  -6.715  0.00  0.00     0.411 P 
HETATM   19  O           1     -20.605 -12.993  -7.994  0.00  0.00    -0.624 OA
HETATM   20  O           1     -18.673 -13.458  -6.619  0.00  0.00    -0.624 OA
BRANCH  18  21
HETATM   21  O           1     -19.594 -11.102  -6.656  0.00  0.00    -0.300 OA
HETATM   22  H           1     -19.165 -10.914  -7.474  0.00  0.00     0.223 HD
ENDBRANCH  18  21
ENDBRANCH  17  18
ENDBRANCH  14  17
ENDBRANCH  10  11
ENDBRANCH   6  10
ENDBRANCH   4   6
ENDBRANCH   3   4
ENDBRANCH   2   3
ENDBRANCH   1   2
BRANCH   1  23
HETATM   23  C           1     -20.440  -8.125  -5.173  0.00  0.00     0.196 C 
HETATM   24  O           1     -19.397  -8.542  -4.624  0.00  0.00    -0.646 OA
HETATM   25  O           1     -21.049  -8.849  -5.989  0.00  0.00    -0.646 OA
ENDBRANCH   1  23
BRANCH   1  26
HETATM   26  N           1     -21.491  -6.136  -6.055  0.00  0.00    -0.345 N 
HETATM   27  C           1     -20.785  -5.148  -6.686  0.00  0.00     0.249 C 
HETATM   28  O           1     -19.723  -4.785  -6.240  0.00  0.00    -0.271 OA
HETATM   29  H           1     -22.381  -6.440  -6.429  0.00  0.00     0.163 HD
BRANCH  27  30
HETATM   30  C           1     -21.334  -4.512  -7.939  0.00  0.00     0.274 C 
BRANCH  30  31
HETATM   31  N           1     -22.069  -3.255  -7.581  0.00  0.00    -0.067 N 
HETATM   32  H           1     -22.223  -2.684  -8.442  0.00  0.00     0.275 HD
HETATM   33  H           1     -22.992  -3.500  -7.156  0.00  0.00     0.275 HD
HETATM   34  H           1     -21.504  -2.705  -6.895  0.00  0.00     0.275 HD
ENDBRANCH  30  31
BRANCH  30  35
HETATM   35  C           1     -20.186  -4.177  -8.883  0.00  0.00     0.044 C 
BRANCH  35  36
HETATM   36  C           1     -20.566  -4.569 -10.304  0.00  0.00     0.023 C 
BRANCH  36  37
HETATM   37  C           1     -20.667  -3.318 -11.168  0.00  0.00     0.138 C 
BRANCH  37  38
HETATM   38  N           1     -22.072  -2.895 -11.256  0.00  0.00    -0.227 N 
HETATM   39  H           1     -22.575  -2.559 -10.398  0.00  0.00     0.177 HD
HETATM   40  C           1     -22.676  -2.934 -12.368  0.00  0.00     0.665 C 
HETATM   41  N           1     -22.053  -3.350 -13.432  0.00  0.00    -0.235 N 
HETATM   42  N           1     -23.886  -2.570 -12.445  0.00  0.00    -0.235 N 
HETATM   43  H           1     -22.552  -3.383 -14.349  0.00  0.00     0.174 HD
HETATM   44  H           1     -21.055  -3.651 -13.368  0.00  0.00     0.174 HD
HETATM   45  H           1     -24.386  -2.603 -13.368  0.00  0.00     0.174 HD
HETATM   46  H           1     -24.388  -2.234 -11.586  0.00  0.00     0.174 HD
ENDBRANCH  37  38
ENDBRANCH  36  37
ENDBRANCH  35  36
ENDBRANCH  30  35
ENDBRANCH  27  30
ENDBRANCH   1  26
TORSDOF 18
ENDMDL
MODEL 6
REMARK VINA RESULT:      -7.3      4.439      9.566
REMARK  18 active torsions:
REMARK  status: ('A' for Active; 'I' for Inactive)
REMARK       I    between atoms: N_1  and  C_41 
REMARK    1  A    between atoms: N_2  and  C_23 
REMARK    2  A    between atoms: C_6  and  O_7 
REMARK    3  A    between atoms: O_7  and  P_8 
REMARK    4  A    between atoms: P_8  and  O_10 
REMARK    5  A    between atoms: N_14  and  C_35 
REMARK    6  A    between atoms: N_14  and  C_15 
REMARK    7  A    between atoms: C_15  and  C_16 
REMARK    8  A    between atoms: C_16  and  C_17 
REMARK    9  A    between atoms: C_17  and  C_18 
REMARK   10  A    between atoms: C_17  and  N_21 
REMARK       I    between atoms: N_21  and  C_22 
REMARK   11  A    between atoms: C_22  and  C_23 
REMARK   12  A    between atoms: C_23  and  C_30 
REMARK   13  A    between atoms: C_26  and  C_30 
REMARK   14  A    between atoms: C_26  and  C_27 
REMARK   15  A    between atoms: C_27  and  N_40 
REMARK   16  A    between atoms: C_33  and  C_35 
REMARK   17  A    between atoms: C_35  and  C_36 
REMARK   18  A    between atoms: C_36  and  C_37 
REMARK       I    between atoms: N_40  and  C_41 
ROOT
HETATM    1  C           1     -21.515  -5.200  -6.186  0.00  0.00     0.187 C 
ENDROOT
BRANCH   1   2
HETATM    2  C           1     -21.923  -6.165  -5.080  0.00  0.00     0.066 C 
BRANCH   2   3
HETATM    3  C           1     -21.099  -5.884  -3.830  0.00  0.00     0.273 C 
BRANCH   3   4
HETATM    4  N           1     -21.887  -6.164  -2.661  0.00  0.00     0.098 N 
HETATM    5  H           1     -22.874  -6.010  -2.873  0.00  0.00     0.317 HD
BRANCH   4   6
HETATM    6  C           1     -21.680  -7.543  -2.313  0.00  0.00     0.324 C 
BRANCH   6   7
HETATM    7  C           1     -22.321  -7.826  -0.977  0.00  0.00     0.207 C 
HETATM    8  O           1     -22.254  -8.972  -0.482  0.00  0.00    -0.646 OA
HETATM    9  O           1     -22.920  -6.915  -0.366  0.00  0.00    -0.646 OA
ENDBRANCH   6   7
BRANCH   6  10
HETATM   10  C           1     -20.186  -7.825  -2.231  0.00  0.00     0.085 C 
BRANCH  10  11
HETATM   11  C           1     -19.848  -8.991  -3.108  0.00  0.00    -0.055 A 
HETATM   12  C           1     -19.023  -8.812  -4.218  0.00  0.00     0.010 A 
HETATM   13  C           1     -18.707  -9.897  -5.036  0.00  0.00     0.038 A 
HETATM   14  C           1     -19.217 -11.162  -4.742  0.00  0.00     0.081 A 
HETATM   15  C           1     -20.041 -11.341  -3.631  0.00  0.00     0.038 A 
HETATM   16  C           1     -20.357 -10.256  -2.814  0.00  0.00     0.010 A 
BRANCH  14  17
HETATM   17  O           1     -18.910 -12.216  -5.536  0.00  0.00    -0.247 OA
BRANCH  17  18
HETATM   18  P           1     -19.704 -12.368  -6.934  0.00  0.00     0.411 P 
HETATM   19  O           1     -20.020 -13.794  -7.171  0.00  0.00    -0.624 OA
HETATM   20  O           1     -18.858 -11.861  -8.038  0.00  0.00    -0.624 OA
BRANCH  18  21
HETATM   21  O           1     -21.075 -11.517  -6.869  0.00  0.00    -0.300 OA
HETATM   22  H           1     -21.566 -11.789  -7.627  0.00  0.00     0.223 HD
ENDBRANCH  18  21
ENDBRANCH  17  18
ENDBRANCH  14  17
ENDBRANCH  10  11
ENDBRANCH   6  10
ENDBRANCH   4   6
ENDBRANCH   3   4
ENDBRANCH   2   3
ENDBRANCH   1   2
BRANCH   1  23
HETATM   23  C           1     -20.148  -5.574  -6.701  0.00  0.00     0.196 C 
HETATM   24  O           1     -19.927  -6.738  -7.102  0.00  0.00    -0.646 OA
HETATM   25  O           1     -19.235  -4.720  -6.727  0.00  0.00    -0.646 OA
ENDBRANCH   1  23
BRANCH   1  26
HETATM   26  N           1     -22.476  -5.274  -7.270  0.00  0.00    -0.345 N 
HETATM   27  C           1     -22.570  -4.250  -8.173  0.00  0.00     0.249 C 
HETATM   28  O           1     -21.852  -3.285  -8.067  0.00  0.00    -0.271 OA
HETATM   29  H           1     -23.078  -6.084  -7.358  0.00  0.00     0.163 HD
BRANCH  27  30
HETATM   30  C           1     -23.569  -4.328  -9.300  0.00  0.00     0.274 C 
BRANCH  30  31
HETATM   31  N           1     -24.637  -3.295  -9.093  0.00  0.00    -0.067 N 
HETATM   32  H           1     -25.387  -3.687  -8.479  0.00  0.00     0.275 HD
HETATM   33  H           1     -24.222  -2.450  -8.640  0.00  0.00     0.275 HD
HETATM   34  H           1     -25.048  -3.030 -10.018  0.00  0.00     0.275 HD
ENDBRANCH  30  31
BRANCH  30  35
HETATM   35  C           1     -22.862  -4.068 -10.624  0.00  0.00     0.044 C 
BRANCH  35  36
HETATM   36  C           1     -23.857  -3.504 -11.629  0.00  0.00     0.023 C 
BRANCH  36  37
HETATM   37  C           1     -23.104  -2.940 -12.828  0.00  0.00     0.138 C 
BRANCH  37  38
HETATM   38  N           1     -23.865  -1.820 -13.402  0.00  0.00    -0.227 N 
HETATM   39  H           1     -24.567  -1.307 -12.814  0.00  0.00     0.177 HD
HETATM   40  C           1     -23.670  -1.473 -14.603  0.00  0.00     0.665 C 
HETATM   41  N           1     -22.799  -2.108 -15.331  0.00  0.00    -0.235 N 
HETATM   42  N           1     -24.324  -0.509 -15.098  0.00  0.00    -0.235 N 
HETATM   43  H           1     -22.640  -1.822 -16.323  0.00  0.00     0.174 HD
HETATM   44  H           1     -22.260  -2.905 -14.923  0.00  0.00     0.174 HD
HETATM   45  H           1     -24.163  -0.221 -16.095  0.00  0.00     0.174 HD
HETATM   46  H           1     -25.027   0.004 -14.510  0.00  0.00     0.174 HD
ENDBRANCH  37  38
ENDBRANCH  36  37
ENDBRANCH  35  36
ENDBRANCH  30  35
ENDBRANCH  27  30
ENDBRANCH   1  26
TORSDOF 18
ENDMDL
MODEL 7
REMARK VINA RESULT:      -7.3      1.579      2.200
REMARK  18 active torsions:
REMARK  status: ('A' for Active; 'I' for Inactive)
REMARK       I    between atoms: N_1  and  C_41 
REMARK    1  A    between atoms: N_2  and  C_23 
REMARK    2  A    between atoms: C_6  and  O_7 
REMARK    3  A    between atoms: O_7  and  P_8 
REMARK    4  A    between atoms: P_8  and  O_10 
REMARK    5  A    between atoms: N_14  and  C_35 
REMARK    6  A    between atoms: N_14  and  C_15 
REMARK    7  A    between atoms: C_15  and  C_16 
REMARK    8  A    between atoms: C_16  and  C_17 
REMARK    9  A    between atoms: C_17  and  C_18 
REMARK   10  A    between atoms: C_17  and  N_21 
REMARK       I    between atoms: N_21  and  C_22 
REMARK   11  A    between atoms: C_22  and  C_23 
REMARK   12  A    between atoms: C_23  and  C_30 
REMARK   13  A    between atoms: C_26  and  C_30 
REMARK   14  A    between atoms: C_26  and  C_27 
REMARK   15  A    between atoms: C_27  and  N_40 
REMARK   16  A    between atoms: C_33  and  C_35 
REMARK   17  A    between atoms: C_35  and  C_36 
REMARK   18  A    between atoms: C_36  and  C_37 
REMARK       I    between atoms: N_40  and  C_41 
ROOT
HETATM    1  C           1     -21.194  -7.735  -2.815  0.00  0.00     0.187 C 
ENDROOT
BRANCH   1   2
HETATM    2  C           1     -21.936  -7.953  -4.127  0.00  0.00     0.066 C 
BRANCH   2   3
HETATM    3  C           1     -21.246  -7.173  -5.238  0.00  0.00     0.273 C 
BRANCH   3   4
HETATM    4  N           1     -21.974  -5.960  -5.496  0.00  0.00     0.098 N 
HETATM    5  H           1     -21.949  -5.366  -4.666  0.00  0.00     0.317 HD
BRANCH   4   6
HETATM    6  C           1     -21.327  -5.286  -6.588  0.00  0.00     0.324 C 
BRANCH   6   7
HETATM    7  C           1     -19.953  -4.833  -6.157  0.00  0.00     0.207 C 
HETATM    8  O           1     -19.778  -4.375  -5.008  0.00  0.00    -0.646 OA
HETATM    9  O           1     -18.991  -4.917  -6.951  0.00  0.00    -0.646 OA
ENDBRANCH   6   7
BRANCH   6  10
HETATM   10  C           1     -22.156  -4.076  -6.999  0.00  0.00     0.085 C 
BRANCH  10  11
HETATM   11  C           1     -22.550  -4.204  -8.438  0.00  0.00    -0.055 A 
HETATM   12  C           1     -23.895  -4.133  -8.800  0.00  0.00     0.010 A 
HETATM   13  C           1     -24.263  -4.252 -10.141  0.00  0.00     0.038 A 
HETATM   14  C           1     -23.285  -4.442 -11.117  0.00  0.00     0.081 A 
HETATM   15  C           1     -21.940  -4.512 -10.754  0.00  0.00     0.038 A 
HETATM   16  C           1     -21.572  -4.393  -9.414  0.00  0.00     0.010 A 
BRANCH  14  17
HETATM   17  O           1     -23.643  -4.557 -12.420  0.00  0.00    -0.247 OA
BRANCH  17  18
HETATM   18  P           1     -23.844  -3.201 -13.273  0.00  0.00     0.411 P 
HETATM   19  O           1     -22.907  -2.165 -12.784  0.00  0.00    -0.624 OA
HETATM   20  O           1     -25.235  -2.721 -13.115  0.00  0.00    -0.624 OA
BRANCH  18  21
HETATM   21  O           1     -23.548  -3.499 -14.833  0.00  0.00    -0.300 OA
HETATM   22  H           1     -22.647  -3.256 -14.961  0.00  0.00     0.223 HD
ENDBRANCH  18  21
ENDBRANCH  17  18
ENDBRANCH  14  17
ENDBRANCH  10  11
ENDBRANCH   6  10
ENDBRANCH   4   6
ENDBRANCH   3   4
ENDBRANCH   2   3
ENDBRANCH   1   2
BRANCH   1  23
HETATM   23  C           1     -21.974  -6.778  -1.948  0.00  0.00     0.196 C 
HETATM   24  O           1     -22.340  -5.674  -2.409  0.00  0.00    -0.646 OA
HETATM   25  O           1     -22.255  -7.088  -0.771  0.00  0.00    -0.646 OA
ENDBRANCH   1  23
BRANCH   1  26
HETATM   26  N           1     -21.049  -9.002  -2.125  0.00  0.00    -0.345 N 
HETATM   27  C           1     -19.816  -9.589  -2.021  0.00  0.00     0.249 C 
HETATM   28  O           1     -18.850  -9.050  -2.504  0.00  0.00    -0.271 OA
HETATM   29  H           1     -21.860  -9.454  -1.720  0.00  0.00     0.163 HD
BRANCH  27  30
HETATM   30  C           1     -19.667 -10.907  -1.303  0.00  0.00     0.274 C 
BRANCH  30  31
HETATM   31  N           1     -20.947 -11.681  -1.408  0.00  0.00    -0.067 N 
HETATM   32  H           1     -20.773 -12.679  -1.152  0.00  0.00     0.275 HD
HETATM   33  H           1     -21.655 -11.273  -0.756  0.00  0.00     0.275 HD
HETATM   34  H           1     -21.305 -11.631  -2.389  0.00  0.00     0.275 HD
ENDBRANCH  30  31
BRANCH  30  35
HETATM   35  C           1     -18.537 -11.706  -1.940  0.00  0.00     0.044 C 
BRANCH  35  36
HETATM   36  C           1     -17.458 -11.977  -0.901  0.00  0.00     0.023 C 
BRANCH  36  37
HETATM   37  C           1     -16.116 -11.473  -1.417  0.00  0.00     0.138 C 
BRANCH  37  38
HETATM   38  N           1     -16.320 -10.729  -2.669  0.00  0.00    -0.227 N 
HETATM   39  H           1     -17.066  -9.992  -2.726  0.00  0.00     0.177 HD
HETATM   40  C           1     -15.595 -10.975  -3.676  0.00  0.00     0.665 C 
HETATM   41  N           1     -14.670 -11.888  -3.605  0.00  0.00    -0.235 N 
HETATM   42  N           1     -15.770 -10.335  -4.754  0.00  0.00    -0.235 N 
HETATM   43  H           1     -14.073 -12.091  -4.437  0.00  0.00     0.174 HD
HETATM   44  H           1     -14.527 -12.416  -2.715  0.00  0.00     0.174 HD
HETATM   45  H           1     -15.169 -10.540  -5.590  0.00  0.00     0.174 HD
HETATM   46  H           1     -16.516  -9.598  -4.811  0.00  0.00     0.174 HD
ENDBRANCH  37  38
ENDBRANCH  36  37
ENDBRANCH  35  36
ENDBRANCH  30  35
ENDBRANCH  27  30
ENDBRANCH   1  26
TORSDOF 18
ENDMDL
MODEL 8
REMARK VINA RESULT:      -7.3      2.184      3.684
REMARK  18 active torsions:
REMARK  status: ('A' for Active; 'I' for Inactive)
REMARK       I    between atoms: N_1  and  C_41 
REMARK    1  A    between atoms: N_2  and  C_23 
REMARK    2  A    between atoms: C_6  and  O_7 
REMARK    3  A    between atoms: O_7  and  P_8 
REMARK    4  A    between atoms: P_8  and  O_10 
REMARK    5  A    between atoms: N_14  and  C_35 
REMARK    6  A    between atoms: N_14  and  C_15 
REMARK    7  A    between atoms: C_15  and  C_16 
REMARK    8  A    between atoms: C_16  and  C_17 
REMARK    9  A    between atoms: C_17  and  C_18 
REMARK   10  A    between atoms: C_17  and  N_21 
REMARK       I    between atoms: N_21  and  C_22 
REMARK   11  A    between atoms: C_22  and  C_23 
REMARK   12  A    between atoms: C_23  and  C_30 
REMARK   13  A    between atoms: C_26  and  C_30 
REMARK   14  A    between atoms: C_26  and  C_27 
REMARK   15  A    between atoms: C_27  and  N_40 
REMARK   16  A    between atoms: C_33  and  C_35 
REMARK   17  A    between atoms: C_35  and  C_36 
REMARK   18  A    between atoms: C_36  and  C_37 
REMARK       I    between atoms: N_40  and  C_41 
ROOT
HETATM    1  C           1     -21.043  -7.803  -3.179  0.00  0.00     0.187 C 
ENDROOT
BRANCH   1   2
HETATM    2  C           1     -21.923  -8.074  -4.392  0.00  0.00     0.066 C 
BRANCH   2   3
HETATM    3  C           1     -21.372  -7.325  -5.598  0.00  0.00     0.273 C 
BRANCH   3   4
HETATM    4  N           1     -21.863  -5.974  -5.590  0.00  0.00     0.098 N 
HETATM    5  H           1     -21.625  -5.531  -4.702  0.00  0.00     0.317 HD
BRANCH   4   6
HETATM    6  C           1     -21.221  -5.269  -6.665  0.00  0.00     0.324 C 
BRANCH   6   7
HETATM    7  C           1     -19.858  -4.802  -6.217  0.00  0.00     0.207 C 
HETATM    8  O           1     -19.681  -4.429  -5.037  0.00  0.00    -0.646 OA
HETATM    9  O           1     -18.905  -4.789  -7.026  0.00  0.00    -0.646 OA
ENDBRANCH   6   7
BRANCH   6  10
HETATM   10  C           1     -22.067  -4.065  -7.058  0.00  0.00     0.085 C 
BRANCH  10  11
HETATM   11  C           1     -22.490  -4.196  -8.489  0.00  0.00    -0.055 A 
HETATM   12  C           1     -23.839  -4.103  -8.827  0.00  0.00     0.010 A 
HETATM   13  C           1     -24.234  -4.224 -10.160  0.00  0.00     0.038 A 
HETATM   14  C           1     -23.278  -4.438 -11.153  0.00  0.00     0.081 A 
HETATM   15  C           1     -21.928  -4.530 -10.814  0.00  0.00     0.038 A 
HETATM   16  C           1     -21.534  -4.409  -9.482  0.00  0.00     0.010 A 
BRANCH  14  17
HETATM   17  O           1     -23.661  -4.556 -12.447  0.00  0.00    -0.247 OA
BRANCH  17  18
HETATM   18  P           1     -23.858  -3.202 -13.306  0.00  0.00     0.411 P 
HETATM   19  O           1     -22.892  -2.179 -12.844  0.00  0.00    -0.624 OA
HETATM   20  O           1     -25.236  -2.696 -13.120  0.00  0.00    -0.624 OA
BRANCH  18  21
HETATM   21  O           1     -23.602  -3.514 -14.870  0.00  0.00    -0.300 OA
HETATM   22  H           1     -24.088  -2.852 -15.332  0.00  0.00     0.223 HD
ENDBRANCH  18  21
ENDBRANCH  17  18
ENDBRANCH  14  17
ENDBRANCH  10  11
ENDBRANCH   6  10
ENDBRANCH   4   6
ENDBRANCH   3   4
ENDBRANCH   2   3
ENDBRANCH   1   2
BRANCH   1  23
HETATM   23  C           1     -21.787  -6.927  -2.202  0.00  0.00     0.196 C 
HETATM   24  O           1     -21.682  -7.131  -0.973  0.00  0.00    -0.646 OA
HETATM   25  O           1     -22.509  -5.997  -2.621  0.00  0.00    -0.646 OA
ENDBRANCH   1  23
BRANCH   1  26
HETATM   26  N           1     -20.703  -9.059  -2.538  0.00  0.00    -0.345 N 
HETATM   27  C           1     -19.473  -9.624  -2.748  0.00  0.00     0.249 C 
HETATM   28  O           1     -18.672  -9.076  -3.466  0.00  0.00    -0.271 OA
HETATM   29  H           1     -21.375  -9.518  -1.936  0.00  0.00     0.163 HD
BRANCH  27  30
HETATM   30  C           1     -19.121 -10.930  -2.082  0.00  0.00     0.274 C 
BRANCH  30  31
HETATM   31  N           1     -17.632 -11.029  -1.932  0.00  0.00    -0.067 N 
HETATM   32  H           1     -17.380 -11.972  -1.558  0.00  0.00     0.275 HD
HETATM   33  H           1     -17.178 -10.891  -2.863  0.00  0.00     0.275 HD
HETATM   34  H           1     -17.299 -10.292  -1.268  0.00  0.00     0.275 HD
ENDBRANCH  30  31
BRANCH  30  35
HETATM   35  C           1     -19.774 -10.992  -0.708  0.00  0.00     0.044 C 
BRANCH  35  36
HETATM   36  C           1     -20.077 -12.441  -0.353  0.00  0.00     0.023 C 
BRANCH  36  37
HETATM   37  C           1     -21.485 -12.795  -0.813  0.00  0.00     0.138 C 
BRANCH  37  38
HETATM   38  N           1     -22.464 -12.013  -0.042  0.00  0.00    -0.227 N 
HETATM   39  H           1     -22.440 -12.030   1.007  0.00  0.00     0.177 HD
HETATM   40  C           1     -23.333 -11.318  -0.645  0.00  0.00     0.665 C 
HETATM   41  N           1     -23.362 -11.297  -1.945  0.00  0.00    -0.235 N 
HETATM   42  N           1     -24.176 -10.644   0.017  0.00  0.00    -0.235 N 
HETATM   43  H           1     -24.080 -10.724  -2.442  0.00  0.00     0.174 HD
HETATM   44  H           1     -22.667 -11.853  -2.492  0.00  0.00     0.174 HD
HETATM   45  H           1     -24.897 -10.068  -0.482  0.00  0.00     0.174 HD
HETATM   46  H           1     -24.152 -10.662   1.067  0.00  0.00     0.174 HD
ENDBRANCH  37  38
ENDBRANCH  36  37
ENDBRANCH  35  36
ENDBRANCH  30  35
ENDBRANCH  27  30
ENDBRANCH   1  26
TORSDOF 18
ENDMDL
MODEL 9
REMARK VINA RESULT:      -7.0      2.691      3.476
REMARK  18 active torsions:
REMARK  status: ('A' for Active; 'I' for Inactive)
REMARK       I    between atoms: N_1  and  C_41 
REMARK    1  A    between atoms: N_2  and  C_23 
REMARK    2  A    between atoms: C_6  and  O_7 
REMARK    3  A    between atoms: O_7  and  P_8 
REMARK    4  A    between atoms: P_8  and  O_10 
REMARK    5  A    between atoms: N_14  and  C_35 
REMARK    6  A    between atoms: N_14  and  C_15 
REMARK    7  A    between atoms: C_15  and  C_16 
REMARK    8  A    between atoms: C_16  and  C_17 
REMARK    9  A    between atoms: C_17  and  C_18 
REMARK   10  A    between atoms: C_17  and  N_21 
REMARK       I    between atoms: N_21  and  C_22 
REMARK   11  A    between atoms: C_22  and  C_23 
REMARK   12  A    between atoms: C_23  and  C_30 
REMARK   13  A    between atoms: C_26  and  C_30 
REMARK   14  A    between atoms: C_26  and  C_27 
REMARK   15  A    between atoms: C_27  and  N_40 
REMARK   16  A    between atoms: C_33  and  C_35 
REMARK   17  A    between atoms: C_35  and  C_36 
REMARK   18  A    between atoms: C_36  and  C_37 
REMARK       I    between atoms: N_40  and  C_41 
ROOT
HETATM    1  C           1     -21.511  -7.546  -1.144  0.00  0.00     0.187 C 
ENDROOT
BRANCH   1   2
HETATM    2  C           1     -22.122  -6.326  -1.821  0.00  0.00     0.066 C 
BRANCH   2   3
HETATM    3  C           1     -22.119  -6.527  -3.330  0.00  0.00     0.273 C 
BRANCH   3   4
HETATM    4  N           1     -20.925  -5.953  -3.889  0.00  0.00     0.098 N 
HETATM    5  H           1     -20.114  -6.489  -3.578  0.00  0.00     0.317 HD
BRANCH   4   6
HETATM    6  C           1     -21.030  -6.030  -5.320  0.00  0.00     0.324 C 
BRANCH   6   7
HETATM    7  C           1     -20.583  -7.394  -5.785  0.00  0.00     0.207 C 
HETATM    8  O           1     -19.364  -7.651  -5.886  0.00  0.00    -0.646 OA
HETATM    9  O           1     -21.432  -8.266  -6.070  0.00  0.00    -0.646 OA
ENDBRANCH   6   7
BRANCH   6  10
HETATM   10  C           1     -20.147  -4.962  -5.951  0.00  0.00     0.085 C 
BRANCH  10  11
HETATM   11  C           1     -20.722  -4.553  -7.272  0.00  0.00    -0.055 A 
HETATM   12  C           1     -19.948  -4.649  -8.428  0.00  0.00     0.010 A 
HETATM   13  C           1     -20.483  -4.268  -9.660  0.00  0.00     0.038 A 
HETATM   14  C           1     -21.793  -3.793  -9.733  0.00  0.00     0.081 A 
HETATM   15  C           1     -22.567  -3.699  -8.576  0.00  0.00     0.038 A 
HETATM   16  C           1     -22.031  -4.079  -7.346  0.00  0.00     0.010 A 
BRANCH  14  17
HETATM   17  O           1     -22.313  -3.424 -10.929  0.00  0.00    -0.247 OA
BRANCH  17  18
HETATM   18  P           1     -23.706  -4.098 -11.389  0.00  0.00     0.411 P 
HETATM   19  O           1     -24.830  -3.202 -11.034  0.00  0.00    -0.624 OA
HETATM   20  O           1     -23.877  -5.398 -10.701  0.00  0.00    -0.624 OA
BRANCH  18  21
HETATM   21  O           1     -23.689  -4.331 -12.987  0.00  0.00    -0.300 OA
HETATM   22  H           1     -22.782  -4.265 -13.233  0.00  0.00     0.223 HD
ENDBRANCH  18  21
ENDBRANCH  17  18
ENDBRANCH  14  17
ENDBRANCH  10  11
ENDBRANCH   6  10
ENDBRANCH   4   6
ENDBRANCH   3   4
ENDBRANCH   2   3
ENDBRANCH   1   2
BRANCH   1  23
HETATM   23  C           1     -22.195  -7.782   0.180  0.00  0.00     0.196 C 
HETATM   24  O           1     -23.423  -7.579   0.294  0.00  0.00    -0.646 OA
HETATM   25  O           1     -21.534  -8.182   1.162  0.00  0.00    -0.646 OA
ENDBRANCH   1  23
BRANCH   1  26
HETATM   26  N           1     -21.687  -8.708  -1.993  0.00  0.00    -0.345 N 
HETATM   27  C           1     -20.611  -9.249  -2.645  0.00  0.00     0.249 C 
HETATM   28  O           1     -19.516  -8.758  -2.513  0.00  0.00    -0.271 OA
HETATM   29  H           1     -22.605  -9.120  -2.103  0.00  0.00     0.163 HD
BRANCH  27  30
HETATM   30  C           1     -20.795 -10.458  -3.527  0.00  0.00     0.274 C 
BRANCH  30  31
HETATM   31  N           1     -19.675 -10.526  -4.523  0.00  0.00    -0.067 N 
HETATM   32  H           1     -19.568  -9.598  -4.991  0.00  0.00     0.275 HD
HETATM   33  H           1     -18.786 -10.772  -4.031  0.00  0.00     0.275 HD
HETATM   34  H           1     -19.891 -11.255  -5.241  0.00  0.00     0.275 HD
ENDBRANCH  30  31
BRANCH  30  35
HETATM   35  C           1     -20.789 -11.718  -2.671  0.00  0.00     0.044 C 
BRANCH  35  36
HETATM   36  C           1     -21.340 -12.885  -3.478  0.00  0.00     0.023 C 
BRANCH  36  37
HETATM   37  C           1     -21.803 -13.985  -2.532  0.00  0.00     0.138 C 
BRANCH  37  38
HETATM   38  N           1     -21.355 -13.678  -1.165  0.00  0.00    -0.227 N 
HETATM   39  H           1     -20.756 -12.834  -0.987  0.00  0.00     0.177 HD
HETATM   40  C           1     -21.692 -14.429  -0.205  0.00  0.00     0.665 C 
HETATM   41  N           1     -22.435 -15.474  -0.426  0.00  0.00    -0.235 N 
HETATM   42  N           1     -21.307 -14.165   0.972  0.00  0.00    -0.235 N 
HETATM   43  H           1     -22.713 -16.094   0.367  0.00  0.00     0.174 HD
HETATM   44  H           1     -22.753 -15.692  -1.397  0.00  0.00     0.174 HD
HETATM   45  H           1     -21.587 -14.789   1.769  0.00  0.00     0.174 HD
HETATM   46  H           1     -20.707 -13.321   1.150  0.00  0.00     0.174 HD
ENDBRANCH  37  38
ENDBRANCH  36  37
ENDBRANCH  35  36
ENDBRANCH  30  35
ENDBRANCH  27  30
ENDBRANCH   1  26
TORSDOF 18
ENDMDL
