MODEL 1
REMARK VINA RESULT:      -8.6      0.000      0.000
REMARK  10 active torsions:
REMARK  status: ('A' for Active; 'I' for Inactive)
REMARK    1  A    between atoms: C_2  and  C_12 
REMARK    2  A    between atoms: C_4  and  C_10 
REMARK    3  A    between atoms: C_4  and  C_24 
REMARK    4  A    between atoms: C_4  and  N_9 
REMARK       I    between atoms: N_9  and  C_21 
REMARK    5  A    between atoms: C_10  and  C_29 
REMARK    6  A    between atoms: C_12  and  C_13 
REMARK    7  A    between atoms: C_13  and  C_21 
REMARK    8  A    between atoms: C_13  and  N_19 
REMARK    9  A    between atoms: O_14  and  C_15 
REMARK   10  A    between atoms: O_26  and  C_30 
ROOT
HETATM    1  N           1     -21.429  -6.500  -6.198  0.00  0.00    -0.344 N 
HETATM    2  H           1     -22.376  -6.429  -5.846  0.00  0.00     0.163 HD
HETATM    3  O           1     -19.513  -7.644  -6.259  0.00  0.00    -0.271 OA
HETATM    4  C           1     -20.643  -7.560  -5.838  0.00  0.00     0.249 C 
ENDROOT
BRANCH   4   5
HETATM    5  C           1     -21.185  -8.624  -4.915  0.00  0.00     0.278 C 
BRANCH   5   6
HETATM    6  C           1     -20.348  -8.670  -3.644  0.00  0.00     0.081 C 
BRANCH   6   7
HETATM    7  C           1     -21.220  -8.389  -2.461  0.00  0.00    -0.056 A 
HETATM    8  C           1     -21.712  -9.443  -1.691  0.00  0.00     0.010 A 
HETATM    9  C           1     -22.525  -9.181  -0.588  0.00  0.00     0.037 A 
HETATM   10  C           1     -22.845  -7.865  -0.254  0.00  0.00     0.065 A 
HETATM   11  C           1     -22.352  -6.811  -1.024  0.00  0.00     0.037 A 
HETATM   12  C           1     -21.540  -7.073  -2.126  0.00  0.00     0.010 A 
BRANCH  10  13
HETATM   13  O           1     -23.634  -7.611   0.818  0.00  0.00    -0.361 OA
HETATM   14  H           1     -24.321  -8.299   0.855  0.00  0.00     0.217 HD
ENDBRANCH  10  13
ENDBRANCH   6   7
ENDBRANCH   5   6
BRANCH   5  15
HETATM   15  N           1     -21.125  -9.956  -5.602  0.00  0.00    -0.066 N 
HETATM   16  H           1     -21.198  -9.819  -6.634  0.00  0.00     0.275 HD
HETATM   17  H           1     -20.218 -10.424  -5.375  0.00  0.00     0.275 HD
HETATM   18  H           1     -21.916 -10.555  -5.272  0.00  0.00     0.275 HD
ENDBRANCH   5  15
ENDBRANCH   4   5
BRANCH   1  19
HETATM   19  C           1     -20.908  -5.477  -7.084  0.00  0.00     0.189 C 
BRANCH  19  20
HETATM   20  C           1     -22.034  -4.536  -7.489  0.00  0.00     0.074 C 
BRANCH  20  21
HETATM   21  C           1     -21.983  -4.301  -8.967  0.00  0.00    -0.056 A 
HETATM   22  C           1     -23.148  -3.979  -9.663  0.00  0.00     0.010 A 
HETATM   23  C           1     -23.099  -3.761 -11.040  0.00  0.00     0.037 A 
HETATM   24  C           1     -21.887  -3.866 -11.721  0.00  0.00     0.065 A 
HETATM   25  C           1     -20.722  -4.189 -11.025  0.00  0.00     0.037 A 
HETATM   26  C           1     -20.770  -4.407  -9.647  0.00  0.00     0.010 A 
BRANCH  24  27
HETATM   27  O           1     -21.840  -3.654 -13.058  0.00  0.00    -0.361 OA
HETATM   28  H           1     -22.754  -3.614 -13.388  0.00  0.00     0.217 HD
ENDBRANCH  24  27
ENDBRANCH  20  21
ENDBRANCH  19  20
BRANCH  19  29
HETATM   29  C           1     -19.830  -4.697  -6.372  0.00  0.00     0.197 C 
HETATM   30  O           1     -20.010  -4.312  -5.197  0.00  0.00    -0.646 OA
HETATM   31  O           1     -18.757  -4.436  -6.958  0.00  0.00    -0.646 OA
ENDBRANCH  19  29
ENDBRANCH   1  19
TORSDOF 10
ENDMDL
MODEL 2
REMARK VINA RESULT:      -8.5      1.197      8.723
REMARK  10 active torsions:
REMARK  status: ('A' for Active; 'I' for Inactive)
REMARK    1  A    between atoms: C_2  and  C_12 
REMARK    2  A    between atoms: C_4  and  C_10 
REMARK    3  A    between atoms: C_4  and  C_24 
REMARK    4  A    between atoms: C_4  and  N_9 
REMARK       I    between atoms: N_9  and  C_21 
REMARK    5  A    between atoms: C_10  and  C_29 
REMARK    6  A    between atoms: C_12  and  C_13 
REMARK    7  A    between atoms: C_13  and  C_21 
REMARK    8  A    between atoms: C_13  and  N_19 
REMARK    9  A    between atoms: O_14  and  C_15 
REMARK   10  A    between atoms: O_26  and  C_30 
ROOT
HETATM    1  N           1     -21.264  -7.413  -5.529  0.00  0.00    -0.344 N 
HETATM    2  H           1     -21.669  -7.990  -6.255  0.00  0.00     0.163 HD
HETATM    3  O           1     -20.884  -5.361  -4.735  0.00  0.00    -0.271 OA
HETATM    4  C           1     -21.367  -6.050  -5.602  0.00  0.00     0.249 C 
ENDROOT
BRANCH   4   5
HETATM    5  C           1     -22.084  -5.408  -6.764  0.00  0.00     0.278 C 
BRANCH   5   6
HETATM    6  C           1     -21.301  -4.190  -7.235  0.00  0.00     0.081 C 
BRANCH   6   7
HETATM    7  C           1     -21.405  -4.073  -8.723  0.00  0.00    -0.056 A 
HETATM    8  C           1     -22.604  -3.669  -9.310  0.00  0.00     0.010 A 
HETATM    9  C           1     -22.700  -3.560 -10.697  0.00  0.00     0.037 A 
HETATM   10  C           1     -21.596  -3.854 -11.498  0.00  0.00     0.065 A 
HETATM   11  C           1     -20.397  -4.258 -10.911  0.00  0.00     0.037 A 
HETATM   12  C           1     -20.301  -4.367  -9.525  0.00  0.00     0.010 A 
BRANCH  10  13
HETATM   13  O           1     -21.690  -3.748 -12.845  0.00  0.00    -0.361 OA
HETATM   14  H           1     -22.467  -4.258 -13.133  0.00  0.00     0.217 HD
ENDBRANCH  10  13
ENDBRANCH   6   7
ENDBRANCH   5   6
BRANCH   5  15
HETATM   15  N           1     -23.456  -4.983  -6.330  0.00  0.00    -0.066 N 
HETATM   16  H           1     -24.128  -5.122  -7.117  0.00  0.00     0.275 HD
HETATM   17  H           1     -23.755  -5.559  -5.510  0.00  0.00     0.275 HD
HETATM   18  H           1     -23.439  -3.974  -6.059  0.00  0.00     0.275 HD
ENDBRANCH   5  15
ENDBRANCH   4   5
BRANCH   1  19
HETATM   19  C           1     -20.575  -8.030  -4.413  0.00  0.00     0.189 C 
BRANCH  19  20
HETATM   20  C           1     -21.443  -9.136  -3.829  0.00  0.00     0.074 C 
BRANCH  20  21
HETATM   21  C           1     -21.833  -8.780  -2.429  0.00  0.00    -0.056 A 
HETATM   22  C           1     -21.820  -7.448  -2.017  0.00  0.00     0.010 A 
HETATM   23  C           1     -22.183  -7.117  -0.712  0.00  0.00     0.037 A 
HETATM   24  C           1     -22.559  -8.119   0.183  0.00  0.00     0.065 A 
HETATM   25  C           1     -22.570  -9.451  -0.228  0.00  0.00     0.037 A 
HETATM   26  C           1     -22.207  -9.783  -1.534  0.00  0.00     0.010 A 
BRANCH  24  27
HETATM   27  O           1     -22.911  -7.797   1.451  0.00  0.00    -0.361 OA
HETATM   28  H           1     -22.122  -7.881   2.013  0.00  0.00     0.217 HD
ENDBRANCH  24  27
ENDBRANCH  20  21
ENDBRANCH  19  20
BRANCH  19  29
HETATM   29  C           1     -19.268  -8.614  -4.890  0.00  0.00     0.197 C 
HETATM   30  O           1     -18.985  -8.603  -6.107  0.00  0.00    -0.646 OA
HETATM   31  O           1     -18.467  -9.110  -4.067  0.00  0.00    -0.646 OA
ENDBRANCH  19  29
ENDBRANCH   1  19
TORSDOF 10
ENDMDL
MODEL 3
REMARK VINA RESULT:      -8.4      1.389      8.570
REMARK  10 active torsions:
REMARK  status: ('A' for Active; 'I' for Inactive)
REMARK    1  A    between atoms: C_2  and  C_12 
REMARK    2  A    between atoms: C_4  and  C_10 
REMARK    3  A    between atoms: C_4  and  C_24 
REMARK    4  A    between atoms: C_4  and  N_9 
REMARK       I    between atoms: N_9  and  C_21 
REMARK    5  A    between atoms: C_10  and  C_29 
REMARK    6  A    between atoms: C_12  and  C_13 
REMARK    7  A    between atoms: C_13  and  C_21 
REMARK    8  A    between atoms: C_13  and  N_19 
REMARK    9  A    between atoms: O_14  and  C_15 
REMARK   10  A    between atoms: O_26  and  C_30 
ROOT
HETATM    1  N           1     -20.198  -6.718  -6.209  0.00  0.00    -0.344 N 
HETATM    2  H           1     -20.197  -7.189  -7.104  0.00  0.00     0.163 HD
HETATM    3  O           1     -20.303  -4.792  -5.083  0.00  0.00    -0.271 OA
HETATM    4  C           1     -20.302  -5.354  -6.152  0.00  0.00     0.249 C 
ENDROOT
BRANCH   4   5
HETATM    5  C           1     -20.416  -4.552  -7.426  0.00  0.00     0.278 C 
BRANCH   5   6
HETATM    6  C           1     -20.968  -5.436  -8.536  0.00  0.00     0.081 C 
BRANCH   6   7
HETATM    7  C           1     -21.632  -4.583  -9.571  0.00  0.00    -0.056 A 
HETATM    8  C           1     -22.944  -4.148  -9.381  0.00  0.00     0.010 A 
HETATM    9  C           1     -23.562  -3.354 -10.345  0.00  0.00     0.037 A 
HETATM   10  C           1     -22.868  -2.992 -11.501  0.00  0.00     0.065 A 
HETATM   11  C           1     -21.557  -3.427 -11.691  0.00  0.00     0.037 A 
HETATM   12  C           1     -20.938  -4.221 -10.726  0.00  0.00     0.010 A 
BRANCH  10  13
HETATM   13  O           1     -23.469  -2.220 -12.438  0.00  0.00    -0.361 OA
HETATM   14  H           1     -23.676  -1.360 -12.031  0.00  0.00     0.217 HD
ENDBRANCH  10  13
ENDBRANCH   6   7
ENDBRANCH   5   6
BRANCH   5  15
HETATM   15  N           1     -19.059  -4.046  -7.818  0.00  0.00    -0.066 N 
HETATM   16  H           1     -18.787  -4.457  -8.738  0.00  0.00     0.275 HD
HETATM   17  H           1     -19.086  -3.004  -7.896  0.00  0.00     0.275 HD
HETATM   18  H           1     -18.361  -4.322  -7.091  0.00  0.00     0.275 HD
ENDBRANCH   5  15
ENDBRANCH   4   5
BRANCH   1  19
HETATM   19  C           1     -20.089  -7.488  -4.985  0.00  0.00     0.189 C 
BRANCH  19  20
HETATM   20  C           1     -21.444  -8.091  -4.643  0.00  0.00     0.074 C 
BRANCH  20  21
HETATM   21  C           1     -21.683  -7.978  -3.169  0.00  0.00    -0.056 A 
HETATM   22  C           1     -21.924  -6.731  -2.594  0.00  0.00     0.010 A 
HETATM   23  C           1     -22.147  -6.627  -1.222  0.00  0.00     0.037 A 
HETATM   24  C           1     -22.129  -7.770  -0.423  0.00  0.00     0.065 A 
HETATM   25  C           1     -21.887  -9.017  -0.998  0.00  0.00     0.037 A 
HETATM   26  C           1     -21.664  -9.122  -2.371  0.00  0.00     0.010 A 
BRANCH  24  27
HETATM   27  O           1     -22.346  -7.669   0.911  0.00  0.00    -0.361 OA
HETATM   28  H           1     -22.482  -8.565   1.262  0.00  0.00     0.217 HD
ENDBRANCH  24  27
ENDBRANCH  20  21
ENDBRANCH  19  20
BRANCH  19  29
HETATM   29  C           1     -19.079  -8.594  -5.177  0.00  0.00     0.197 C 
HETATM   30  O           1     -18.586  -8.801  -6.306  0.00  0.00    -0.646 OA
HETATM   31  O           1     -18.738  -9.303  -4.205  0.00  0.00    -0.646 OA
ENDBRANCH  19  29
ENDBRANCH   1  19
TORSDOF 10
ENDMDL
MODEL 4
REMARK VINA RESULT:      -8.0      1.595      8.452
REMARK  10 active torsions:
REMARK  status: ('A' for Active; 'I' for Inactive)
REMARK    1  A    between atoms: C_2  and  C_12 
REMARK    2  A    between atoms: C_4  and  C_10 
REMARK    3  A    between atoms: C_4  and  C_24 
REMARK    4  A    between atoms: C_4  and  N_9 
REMARK       I    between atoms: N_9  and  C_21 
REMARK    5  A    between atoms: C_10  and  C_29 
REMARK    6  A    between atoms: C_12  and  C_13 
REMARK    7  A    between atoms: C_13  and  C_21 
REMARK    8  A    between atoms: C_13  and  N_19 
REMARK    9  A    between atoms: O_14  and  C_15 
REMARK   10  A    between atoms: O_26  and  C_30 
ROOT
HETATM    1  N           1     -20.775  -8.005  -4.429  0.00  0.00    -0.344 N 
HETATM    2  H           1     -21.588  -7.826  -3.853  0.00  0.00     0.163 HD
HETATM    3  O           1     -19.623  -7.522  -6.280  0.00  0.00    -0.271 OA
HETATM    4  C           1     -20.594  -7.308  -5.593  0.00  0.00     0.249 C 
ENDROOT
BRANCH   4   5
HETATM    5  C           1     -21.607  -6.272  -6.019  0.00  0.00     0.278 C 
BRANCH   5   6
HETATM    6  C           1     -20.896  -4.958  -6.311  0.00  0.00     0.081 C 
BRANCH   6   7
HETATM    7  C           1     -21.134  -4.568  -7.736  0.00  0.00    -0.056 A 
HETATM    8  C           1     -20.114  -4.708  -8.678  0.00  0.00     0.010 A 
HETATM    9  C           1     -20.336  -4.344 -10.006  0.00  0.00     0.037 A 
HETATM   10  C           1     -21.579  -3.840 -10.393  0.00  0.00     0.065 A 
HETATM   11  C           1     -22.598  -3.700  -9.451  0.00  0.00     0.037 A 
HETATM   12  C           1     -22.376  -4.064  -8.124  0.00  0.00     0.010 A 
BRANCH  10  13
HETATM   13  O           1     -21.794  -3.487 -11.683  0.00  0.00    -0.361 OA
HETATM   14  H           1     -21.222  -2.727 -11.885  0.00  0.00     0.217 HD
ENDBRANCH  10  13
ENDBRANCH   6   7
ENDBRANCH   5   6
BRANCH   5  15
HETATM   15  N           1     -22.603  -6.068  -4.917  0.00  0.00    -0.066 N 
HETATM   16  H           1     -23.548  -5.900  -5.329  0.00  0.00     0.275 HD
HETATM   17  H           1     -22.633  -6.921  -4.312  0.00  0.00     0.275 HD
HETATM   18  H           1     -22.322  -5.243  -4.340  0.00  0.00     0.275 HD
ENDBRANCH   5  15
ENDBRANCH   4   5
BRANCH   1  19
HETATM   19  C           1     -19.803  -9.000  -4.021  0.00  0.00     0.189 C 
BRANCH  19  20
HETATM   20  C           1     -19.346  -8.708  -2.598  0.00  0.00     0.074 C 
BRANCH  20  21
HETATM   21  C           1     -20.537  -8.426  -1.737  0.00  0.00    -0.056 A 
HETATM   22  C           1     -21.166  -7.183  -1.801  0.00  0.00     0.010 A 
HETATM   23  C           1     -22.276  -6.921  -0.998  0.00  0.00     0.037 A 
HETATM   24  C           1     -22.758  -7.902  -0.131  0.00  0.00     0.065 A 
HETATM   25  C           1     -22.128  -9.145  -0.067  0.00  0.00     0.037 A 
HETATM   26  C           1     -21.018  -9.408  -0.870  0.00  0.00     0.010 A 
BRANCH  24  27
HETATM   27  O           1     -23.836  -7.648   0.648  0.00  0.00    -0.361 OA
HETATM   28  H           1     -23.716  -6.771   1.051  0.00  0.00     0.217 HD
ENDBRANCH  24  27
ENDBRANCH  20  21
ENDBRANCH  19  20
BRANCH  19  29
HETATM   29  C           1     -20.434 -10.370  -4.075  0.00  0.00     0.197 C 
HETATM   30  O           1     -21.627 -10.495  -4.423  0.00  0.00    -0.646 OA
HETATM   31  O           1     -19.762 -11.380  -3.772  0.00  0.00    -0.646 OA
ENDBRANCH  19  29
ENDBRANCH   1  19
TORSDOF 10
ENDMDL
MODEL 5
REMARK VINA RESULT:      -7.8      1.943      8.982
REMARK  10 active torsions:
REMARK  status: ('A' for Active; 'I' for Inactive)
REMARK    1  A    between atoms: C_2  and  C_12 
REMARK    2  A    between atoms: C_4  and  C_10 
REMARK    3  A    between atoms: C_4  and  C_24 
REMARK    4  A    between atoms: C_4  and  N_9 
REMARK       I    between atoms: N_9  and  C_21 
REMARK    5  A    between atoms: C_10  and  C_29 
REMARK    6  A    between atoms: C_12  and  C_13 
REMARK    7  A    between atoms: C_13  and  C_21 
REMARK    8  A    between atoms: C_13  and  N_19 
REMARK    9  A    between atoms: O_14  and  C_15 
REMARK   10  A    between atoms: O_26  and  C_30 
ROOT
HETATM    1  N           1     -21.737  -5.143  -7.175  0.00  0.00    -0.344 N 
HETATM    2  H           1     -21.090  -5.285  -7.941  0.00  0.00     0.163 HD
HETATM    3  O           1     -23.775  -4.517  -6.509  0.00  0.00    -0.271 OA
HETATM    4  C           1     -23.003  -4.686  -7.424  0.00  0.00     0.249 C 
ENDROOT
BRANCH   4   5
HETATM    5  C           1     -23.435  -4.393  -8.840  0.00  0.00     0.278 C 
BRANCH   5   6
HETATM    6  C           1     -22.219  -4.018  -9.675  0.00  0.00     0.081 C 
BRANCH   6   7
HETATM    7  C           1     -22.649  -3.721 -11.078  0.00  0.00    -0.056 A 
HETATM    8  C           1     -23.548  -4.566 -11.727  0.00  0.00     0.010 A 
HETATM    9  C           1     -23.947  -4.289 -13.034  0.00  0.00     0.037 A 
HETATM   10  C           1     -23.449  -3.164 -13.692  0.00  0.00     0.065 A 
HETATM   11  C           1     -22.549  -2.318 -13.043  0.00  0.00     0.037 A 
HETATM   12  C           1     -22.150  -2.596 -11.736  0.00  0.00     0.010 A 
BRANCH  10  13
HETATM   13  O           1     -23.837  -2.894 -14.962  0.00  0.00    -0.361 OA
HETATM   14  H           1     -23.374  -2.090 -15.253  0.00  0.00     0.217 HD
ENDBRANCH  10  13
ENDBRANCH   6   7
ENDBRANCH   5   6
BRANCH   5  15
HETATM   15  N           1     -24.410  -3.253  -8.837  0.00  0.00    -0.066 N 
HETATM   16  H           1     -25.368  -3.614  -9.045  0.00  0.00     0.275 HD
HETATM   17  H           1     -24.408  -2.796  -7.896  0.00  0.00     0.275 HD
HETATM   18  H           1     -24.134  -2.555  -9.563  0.00  0.00     0.275 HD
ENDBRANCH   5  15
ENDBRANCH   4   5
BRANCH   1  19
HETATM   19  C           1     -21.321  -5.424  -5.815  0.00  0.00     0.189 C 
BRANCH  19  20
HETATM   20  C           1     -21.213  -6.930  -5.619  0.00  0.00     0.074 C 
BRANCH  20  21
HETATM   21  C           1     -21.178  -7.242  -4.155  0.00  0.00    -0.056 A 
HETATM   22  C           1     -21.977  -6.521  -3.268  0.00  0.00     0.010 A 
HETATM   23  C           1     -21.943  -6.813  -1.904  0.00  0.00     0.037 A 
HETATM   24  C           1     -21.111  -7.825  -1.427  0.00  0.00     0.065 A 
HETATM   25  C           1     -20.311  -8.546  -2.314  0.00  0.00     0.037 A 
HETATM   26  C           1     -20.344  -8.255  -3.678  0.00  0.00     0.010 A 
BRANCH  24  27
HETATM   27  O           1     -21.078  -8.109  -0.103  0.00  0.00    -0.361 OA
HETATM   28  H           1     -20.299  -7.670   0.279  0.00  0.00     0.217 HD
ENDBRANCH  24  27
ENDBRANCH  20  21
ENDBRANCH  19  20
BRANCH  19  29
HETATM   29  C           1     -19.978  -4.785  -5.558  0.00  0.00     0.197 C 
HETATM   30  O           1     -19.736  -4.266  -4.447  0.00  0.00    -0.646 OA
HETATM   31  O           1     -19.109  -4.774  -6.456  0.00  0.00    -0.646 OA
ENDBRANCH  19  29
ENDBRANCH   1  19
TORSDOF 10
ENDMDL
MODEL 6
REMARK VINA RESULT:      -7.7      2.367      8.908
REMARK  10 active torsions:
REMARK  status: ('A' for Active; 'I' for Inactive)
REMARK    1  A    between atoms: C_2  and  C_12 
REMARK    2  A    between atoms: C_4  and  C_10 
REMARK    3  A    between atoms: C_4  and  C_24 
REMARK    4  A    between atoms: C_4  and  N_9 
REMARK       I    between atoms: N_9  and  C_21 
REMARK    5  A    between atoms: C_10  and  C_29 
REMARK    6  A    between atoms: C_12  and  C_13 
REMARK    7  A    between atoms: C_13  and  C_21 
REMARK    8  A    between atoms: C_13  and  N_19 
REMARK    9  A    between atoms: O_14  and  C_15 
REMARK   10  A    between atoms: O_26  and  C_30 
ROOT
HETATM    1  N           1     -21.521  -5.761  -6.230  0.00  0.00    -0.344 N 
HETATM    2  H           1     -20.641  -5.606  -6.705  0.00  0.00     0.163 HD
HETATM    3  O           1     -23.688  -5.253  -6.046  0.00  0.00    -0.271 OA
HETATM    4  C           1     -22.637  -5.067  -6.613  0.00  0.00     0.249 C 
ENDROOT
BRANCH   4   5
HETATM    5  C           1     -22.556  -4.070  -7.744  0.00  0.00     0.278 C 
BRANCH   5   6
HETATM    6  C           1     -22.076  -4.772  -9.006  0.00  0.00     0.081 C 
BRANCH   6   7
HETATM    7  C           1     -22.625  -4.069 -10.209  0.00  0.00    -0.056 A 
HETATM    8  C           1     -21.758  -3.546 -11.168  0.00  0.00     0.010 A 
HETATM    9  C           1     -22.270  -2.892 -12.288  0.00  0.00     0.037 A 
HETATM   10  C           1     -23.649  -2.761 -12.450  0.00  0.00     0.065 A 
HETATM   11  C           1     -24.516  -3.285 -11.490  0.00  0.00     0.037 A 
HETATM   12  C           1     -24.004  -3.939 -10.371  0.00  0.00     0.010 A 
BRANCH  10  13
HETATM   13  O           1     -24.147  -2.125 -13.538  0.00  0.00    -0.361 OA
HETATM   14  H           1     -23.822  -2.587 -14.330  0.00  0.00     0.217 HD
ENDBRANCH  10  13
ENDBRANCH   6   7
ENDBRANCH   5   6
BRANCH   5  15
HETATM   15  N           1     -21.591  -2.981  -7.379  0.00  0.00    -0.066 N 
HETATM   16  H           1     -21.037  -2.710  -8.222  0.00  0.00     0.275 HD
HETATM   17  H           1     -22.121  -2.151  -7.028  0.00  0.00     0.275 HD
HETATM   18  H           1     -20.946  -3.323  -6.631  0.00  0.00     0.275 HD
ENDBRANCH   5  15
ENDBRANCH   4   5
BRANCH   1  19
HETATM   19  C           1     -21.599  -6.718  -5.144  0.00  0.00     0.189 C 
BRANCH  19  20
HETATM   20  C           1     -20.462  -7.722  -5.270  0.00  0.00     0.074 C 
BRANCH  20  21
HETATM   21  C           1     -20.596  -8.766  -4.206  0.00  0.00    -0.056 A 
HETATM   22  C           1     -19.565  -8.963  -3.288  0.00  0.00     0.010 A 
HETATM   23  C           1     -19.690  -9.936  -2.296  0.00  0.00     0.037 A 
HETATM   24  C           1     -20.846 -10.713  -2.223  0.00  0.00     0.065 A 
HETATM   25  C           1     -21.877 -10.516  -3.141  0.00  0.00     0.037 A 
HETATM   26  C           1     -21.752  -9.543  -4.133  0.00  0.00     0.010 A 
BRANCH  24  27
HETATM   27  O           1     -20.967 -11.658  -1.259  0.00  0.00    -0.361 OA
HETATM   28  H           1     -20.602 -12.489  -1.606  0.00  0.00     0.217 HD
ENDBRANCH  24  27
ENDBRANCH  20  21
ENDBRANCH  19  20
BRANCH  19  29
HETATM   29  C           1     -21.486  -5.992  -3.826  0.00  0.00     0.197 C 
HETATM   30  O           1     -22.375  -6.129  -2.958  0.00  0.00    -0.646 OA
HETATM   31  O           1     -20.502  -5.253  -3.601  0.00  0.00    -0.646 OA
ENDBRANCH  19  29
ENDBRANCH   1  19
TORSDOF 10
ENDMDL
MODEL 7
REMARK VINA RESULT:      -7.6      2.618      8.697
REMARK  10 active torsions:
REMARK  status: ('A' for Active; 'I' for Inactive)
REMARK    1  A    between atoms: C_2  and  C_12 
REMARK    2  A    between atoms: C_4  and  C_10 
REMARK    3  A    between atoms: C_4  and  C_24 
REMARK    4  A    between atoms: C_4  and  N_9 
REMARK       I    between atoms: N_9  and  C_21 
REMARK    5  A    between atoms: C_10  and  C_29 
REMARK    6  A    between atoms: C_12  and  C_13 
REMARK    7  A    between atoms: C_13  and  C_21 
REMARK    8  A    between atoms: C_13  and  N_19 
REMARK    9  A    between atoms: O_14  and  C_15 
REMARK   10  A    between atoms: O_26  and  C_30 
ROOT
HETATM    1  N           1     -21.222  -7.792  -5.765  0.00  0.00    -0.344 N 
HETATM    2  H           1     -22.173  -7.796  -5.418  0.00  0.00     0.163 HD
HETATM    3  O           1     -19.654  -6.763  -6.977  0.00  0.00    -0.271 OA
HETATM    4  C           1     -20.790  -6.768  -6.564  0.00  0.00     0.249 C 
ENDROOT
BRANCH   4   5
HETATM    5  C           1     -21.731  -5.645  -6.929  0.00  0.00     0.278 C 
BRANCH   5   6
HETATM    6  C           1     -20.927  -4.443  -7.404  0.00  0.00     0.081 C 
BRANCH   6   7
HETATM    7  C           1     -21.181  -4.216  -8.862  0.00  0.00    -0.056 A 
HETATM    8  C           1     -20.139  -4.344  -9.780  0.00  0.00     0.010 A 
HETATM    9  C           1     -20.376  -4.132 -11.138  0.00  0.00     0.037 A 
HETATM   10  C           1     -21.656  -3.794 -11.578  0.00  0.00     0.065 A 
HETATM   11  C           1     -22.698  -3.667 -10.660  0.00  0.00     0.037 A 
HETATM   12  C           1     -22.461  -3.879  -9.302  0.00  0.00     0.010 A 
BRANCH  10  13
HETATM   13  O           1     -21.886  -3.589 -12.898  0.00  0.00    -0.361 OA
HETATM   14  H           1     -22.051  -4.453 -13.312  0.00  0.00     0.217 HD
ENDBRANCH  10  13
ENDBRANCH   6   7
ENDBRANCH   5   6
BRANCH   5  15
HETATM   15  N           1     -22.540  -5.263  -5.726  0.00  0.00    -0.066 N 
HETATM   16  H           1     -22.996  -6.114  -5.328  0.00  0.00     0.275 HD
HETATM   17  H           1     -21.913  -4.835  -5.007  0.00  0.00     0.275 HD
HETATM   18  H           1     -23.272  -4.571  -6.004  0.00  0.00     0.275 HD
ENDBRANCH   5  15
ENDBRANCH   4   5
BRANCH   1  19
HETATM   19  C           1     -20.319  -8.870  -5.414  0.00  0.00     0.189 C 
BRANCH  19  20
HETATM   20  C           1     -19.694  -8.587  -4.055  0.00  0.00     0.074 C 
BRANCH  20  21
HETATM   21  C           1     -18.404  -9.335  -3.932  0.00  0.00    -0.056 A 
HETATM   22  C           1     -17.903  -9.660  -2.672  0.00  0.00     0.010 A 
HETATM   23  C           1     -16.700 -10.357  -2.558  0.00  0.00     0.037 A 
HETATM   24  C           1     -15.997 -10.729  -3.704  0.00  0.00     0.065 A 
HETATM   25  C           1     -16.498 -10.403  -4.964  0.00  0.00     0.037 A 
HETATM   26  C           1     -17.701  -9.706  -5.079  0.00  0.00     0.010 A 
BRANCH  24  27
HETATM   27  O           1     -14.829 -11.406  -3.593  0.00  0.00    -0.361 OA
HETATM   28  H           1     -14.154 -10.925  -4.100  0.00  0.00     0.217 HD
ENDBRANCH  24  27
ENDBRANCH  20  21
ENDBRANCH  19  20
BRANCH  19  29
HETATM   29  C           1     -21.086 -10.168  -5.355  0.00  0.00     0.197 C 
HETATM   30  O           1     -21.102 -10.930  -6.345  0.00  0.00    -0.646 OA
HETATM   31  O           1     -21.705 -10.482  -4.315  0.00  0.00    -0.646 OA
ENDBRANCH  19  29
ENDBRANCH   1  19
TORSDOF 10
ENDMDL
MODEL 8
REMARK VINA RESULT:      -7.5      2.341      3.844
REMARK  10 active torsions:
REMARK  status: ('A' for Active; 'I' for Inactive)
REMARK    1  A    between atoms: C_2  and  C_12 
REMARK    2  A    between atoms: C_4  and  C_10 
REMARK    3  A    between atoms: C_4  and  C_24 
REMARK    4  A    between atoms: C_4  and  N_9 
REMARK       I    between atoms: N_9  and  C_21 
REMARK    5  A    between atoms: C_10  and  C_29 
REMARK    6  A    between atoms: C_12  and  C_13 
REMARK    7  A    between atoms: C_13  and  C_21 
REMARK    8  A    between atoms: C_13  and  N_19 
REMARK    9  A    between atoms: O_14  and  C_15 
REMARK   10  A    between atoms: O_26  and  C_30 
ROOT
HETATM    1  N           1     -22.418  -4.757  -8.098  0.00  0.00    -0.344 N 
HETATM    2  H           1     -23.076  -5.427  -7.719  0.00  0.00     0.163 HD
HETATM    3  O           1     -20.408  -3.794  -7.966  0.00  0.00    -0.271 OA
HETATM    4  C           1     -21.193  -4.593  -7.511  0.00  0.00     0.249 C 
ENDROOT
BRANCH   4   5
HETATM    5  C           1     -20.822  -5.408  -6.296  0.00  0.00     0.278 C 
BRANCH   5   6
HETATM    6  C           1     -22.088  -5.885  -5.598  0.00  0.00     0.081 C 
BRANCH   6   7
HETATM    7  C           1     -21.721  -6.727  -4.417  0.00  0.00    -0.056 A 
HETATM    8  C           1     -21.119  -7.971  -4.606  0.00  0.00     0.010 A 
HETATM    9  C           1     -20.777  -8.755  -3.504  0.00  0.00     0.037 A 
HETATM   10  C           1     -21.036  -8.295  -2.213  0.00  0.00     0.065 A 
HETATM   11  C           1     -21.637  -7.050  -2.024  0.00  0.00     0.037 A 
HETATM   12  C           1     -21.979  -6.267  -3.125  0.00  0.00     0.010 A 
BRANCH  10  13
HETATM   13  O           1     -20.703  -9.057  -1.143  0.00  0.00    -0.361 OA
HETATM   14  H           1     -20.314  -9.885  -1.474  0.00  0.00     0.217 HD
ENDBRANCH  10  13
ENDBRANCH   6   7
ENDBRANCH   5   6
BRANCH   5  15
HETATM   15  N           1     -20.020  -4.560  -5.354  0.00  0.00    -0.066 N 
HETATM   16  H           1     -20.311  -4.761  -4.371  0.00  0.00     0.275 HD
HETATM   17  H           1     -19.004  -4.779  -5.468  0.00  0.00     0.275 HD
HETATM   18  H           1     -20.185  -3.551  -5.567  0.00  0.00     0.275 HD
ENDBRANCH   5  15
ENDBRANCH   4   5
BRANCH   1  19
HETATM   19  C           1     -22.775  -3.974  -9.265  0.00  0.00     0.189 C 
BRANCH  19  20
HETATM   20  C           1     -22.179  -4.617 -10.510  0.00  0.00     0.074 C 
BRANCH  20  21
HETATM   21  C           1     -22.663  -3.894 -11.727  0.00  0.00    -0.056 A 
HETATM   22  C           1     -22.228  -2.595 -11.987  0.00  0.00     0.010 A 
HETATM   23  C           1     -22.680  -1.922 -13.122  0.00  0.00     0.037 A 
HETATM   24  C           1     -23.568  -2.548 -13.998  0.00  0.00     0.065 A 
HETATM   25  C           1     -24.003  -3.847 -13.737  0.00  0.00     0.037 A 
HETATM   26  C           1     -23.551  -4.521 -12.602  0.00  0.00     0.010 A 
BRANCH  24  27
HETATM   27  O           1     -24.006  -1.894 -15.100  0.00  0.00    -0.361 OA
HETATM   28  H           1     -24.548  -1.142 -14.807  0.00  0.00     0.217 HD
ENDBRANCH  24  27
ENDBRANCH  20  21
ENDBRANCH  19  20
BRANCH  19  29
HETATM   29  C           1     -24.278  -3.923  -9.396  0.00  0.00     0.197 C 
HETATM   30  O           1     -24.930  -4.981  -9.521  0.00  0.00    -0.646 OA
HETATM   31  O           1     -24.870  -2.822  -9.378  0.00  0.00    -0.646 OA
ENDBRANCH  19  29
ENDBRANCH   1  19
TORSDOF 10
ENDMDL
MODEL 9
REMARK VINA RESULT:      -7.5      3.421      8.266
REMARK  10 active torsions:
REMARK  status: ('A' for Active; 'I' for Inactive)
REMARK    1  A    between atoms: C_2  and  C_12 
REMARK    2  A    between atoms: C_4  and  C_10 
REMARK    3  A    between atoms: C_4  and  C_24 
REMARK    4  A    between atoms: C_4  and  N_9 
REMARK       I    between atoms: N_9  and  C_21 
REMARK    5  A    between atoms: C_10  and  C_29 
REMARK    6  A    between atoms: C_12  and  C_13 
REMARK    7  A    between atoms: C_13  and  C_21 
REMARK    8  A    between atoms: C_13  and  N_19 
REMARK    9  A    between atoms: O_14  and  C_15 
REMARK   10  A    between atoms: O_26  and  C_30 
ROOT
HETATM    1  N           1     -20.167  -8.155  -3.835  0.00  0.00    -0.344 N 
HETATM    2  H           1     -20.244  -7.658  -2.956  0.00  0.00     0.163 HD
HETATM    3  O           1     -20.656  -8.237  -6.012  0.00  0.00    -0.271 OA
HETATM    4  C           1     -20.749  -7.644  -4.963  0.00  0.00     0.249 C 
ENDROOT
BRANCH   4   5
HETATM    5  C           1     -21.508  -6.340  -4.897  0.00  0.00     0.278 C 
BRANCH   5   6
HETATM    6  C           1     -20.588  -5.196  -5.301  0.00  0.00     0.081 C 
BRANCH   6   7
HETATM    7  C           1     -20.873  -4.801  -6.716  0.00  0.00    -0.056 A 
HETATM    8  C           1     -19.832  -4.719  -7.641  0.00  0.00     0.010 A 
HETATM    9  C           1     -20.098  -4.351  -8.960  0.00  0.00     0.037 A 
HETATM   10  C           1     -21.405  -4.066  -9.355  0.00  0.00     0.065 A 
HETATM   11  C           1     -22.446  -4.148  -8.430  0.00  0.00     0.037 A 
HETATM   12  C           1     -22.181  -4.516  -7.111  0.00  0.00     0.010 A 
BRANCH  10  13
HETATM   13  O           1     -21.663  -3.709 -10.636  0.00  0.00    -0.361 OA
HETATM   14  H           1     -21.563  -4.499 -11.194  0.00  0.00     0.217 HD
ENDBRANCH  10  13
ENDBRANCH   6   7
ENDBRANCH   5   6
BRANCH   5  15
HETATM   15  N           1     -21.997  -6.119  -3.497  0.00  0.00    -0.066 N 
HETATM   16  H           1     -22.080  -5.094  -3.315  0.00  0.00     0.275 HD
HETATM   17  H           1     -22.933  -6.570  -3.380  0.00  0.00     0.275 HD
HETATM   18  H           1     -21.321  -6.540  -2.821  0.00  0.00     0.275 HD
ENDBRANCH   5  15
ENDBRANCH   4   5
BRANCH   1  19
HETATM   19  C           1     -19.438  -9.407  -3.897  0.00  0.00     0.189 C 
BRANCH  19  20
HETATM   20  C           1     -18.164  -9.294  -3.072  0.00  0.00     0.074 C 
BRANCH  20  21
HETATM   21  C           1     -17.051 -10.011  -3.770  0.00  0.00    -0.056 A 
HETATM   22  C           1     -16.902  -9.892  -5.152  0.00  0.00     0.010 A 
HETATM   23  C           1     -15.865 -10.561  -5.801  0.00  0.00     0.037 A 
HETATM   24  C           1     -14.976 -11.350  -5.070  0.00  0.00     0.065 A 
HETATM   25  C           1     -15.127 -11.470  -3.689  0.00  0.00     0.037 A 
HETATM   26  C           1     -16.164 -10.801  -3.038  0.00  0.00     0.010 A 
BRANCH  24  27
HETATM   27  O           1     -13.969 -11.999  -5.701  0.00  0.00    -0.361 OA
HETATM   28  H           1     -14.121 -11.931  -6.659  0.00  0.00     0.217 HD
ENDBRANCH  24  27
ENDBRANCH  20  21
ENDBRANCH  19  20
BRANCH  19  29
HETATM   29  C           1     -20.299 -10.517  -3.345  0.00  0.00     0.197 C 
HETATM   30  O           1     -20.164 -10.881  -2.158  0.00  0.00    -0.646 OA
HETATM   31  O           1     -21.148 -11.072  -4.076  0.00  0.00    -0.646 OA
ENDBRANCH  19  29
ENDBRANCH   1  19
TORSDOF 10
ENDMDL
