MODEL 1
REMARK VINA RESULT:      -6.3      0.000      0.000
REMARK  7 active torsions:
REMARK  status: ('A' for Active; 'I' for Inactive)
REMARK    1  A    between atoms: N_2  and  C_12 
REMARK    2  A    between atoms: C_5  and  C_19 
REMARK    3  A    between atoms: C_5  and  C_13 
REMARK    4  A    between atoms: C_10  and  C_13 
REMARK    5  A    between atoms: C_11  and  C_12 
REMARK    6  A    between atoms: C_12  and  C_14 
REMARK    7  A    between atoms: C_13  and  N_18 
REMARK       I    between atoms: C_14  and  N_18 
ROOT
HETATM    1  H           1     -36.426  -2.362 -13.269  0.00  0.00     0.163 HD
HETATM    2  C           1     -34.701  -2.366 -12.127  0.00  0.00     0.249 C 
HETATM    3  O           1     -33.956  -1.692 -11.455  0.00  0.00    -0.271 OA
HETATM    4  N           1     -35.802  -1.797 -12.707  0.00  0.00    -0.345 N 
ENDROOT
BRANCH   2   5
HETATM    5  C           1     -34.415  -3.835 -12.325  0.00  0.00     0.278 C 
BRANCH   5   6
HETATM    6  N           1     -33.882  -4.056 -13.710  0.00  0.00    -0.066 N 
HETATM    7  H           1     -34.349  -4.889 -14.134  0.00  0.00     0.275 HD
HETATM    8  H           1     -34.075  -3.213 -14.296  0.00  0.00     0.275 HD
HETATM    9  H           1     -32.850  -4.221 -13.663  0.00  0.00     0.275 HD
ENDBRANCH   5   6
BRANCH   5  10
HETATM   10  C           1     -33.384  -4.295 -11.304  0.00  0.00     0.017 C 
HETATM   11  C           1     -32.110  -4.714 -12.025  0.00  0.00     0.012 C 
HETATM   12  C           1     -33.937  -5.479 -10.522  0.00  0.00     0.012 C 
ENDBRANCH   5  10
ENDBRANCH   2   5
BRANCH   4  13
HETATM   13  C           1     -36.075  -0.386 -12.515  0.00  0.00     0.185 C 
BRANCH  13  14
HETATM   14  C           1     -36.818   0.156 -13.731  0.00  0.00     0.040 C 
BRANCH  14  15
HETATM   15  C           1     -35.826   0.813 -14.680  0.00  0.00    -0.020 C 
HETATM   16  C           1     -34.565   1.190 -13.914  0.00  0.00     0.009 C 
HETATM   17  C           1     -35.470  -0.161 -15.796  0.00  0.00     0.009 C 
ENDBRANCH  14  15
ENDBRANCH  13  14
BRANCH  13  18
HETATM   18  C           1     -36.925  -0.201 -11.283  0.00  0.00     0.196 C 
HETATM   19  O           1     -38.075  -0.687 -11.238  0.00  0.00    -0.646 OA
HETATM   20  O           1     -36.479   0.440 -10.307  0.00  0.00    -0.646 OA
ENDBRANCH  13  18
ENDBRANCH   4  13
TORSDOF 7
ENDMDL
MODEL 2
REMARK VINA RESULT:      -5.8      1.560      4.791
REMARK  7 active torsions:
REMARK  status: ('A' for Active; 'I' for Inactive)
REMARK    1  A    between atoms: N_2  and  C_12 
REMARK    2  A    between atoms: C_5  and  C_19 
REMARK    3  A    between atoms: C_5  and  C_13 
REMARK    4  A    between atoms: C_10  and  C_13 
REMARK    5  A    between atoms: C_11  and  C_12 
REMARK    6  A    between atoms: C_12  and  C_14 
REMARK    7  A    between atoms: C_13  and  N_18 
REMARK       I    between atoms: C_14  and  N_18 
ROOT
HETATM    1  H           1     -36.148  -2.037 -13.545  0.00  0.00     0.163 HD
HETATM    2  C           1     -35.457  -0.162 -13.009  0.00  0.00     0.249 C 
HETATM    3  O           1     -35.035   0.517 -12.102  0.00  0.00    -0.271 OA
HETATM    4  N           1     -35.795  -1.469 -12.786  0.00  0.00    -0.345 N 
ENDROOT
BRANCH   2   5
HETATM    5  C           1     -35.611   0.434 -14.387  0.00  0.00     0.278 C 
BRANCH   5   6
HETATM    6  N           1     -34.276   0.458 -15.072  0.00  0.00    -0.066 N 
HETATM    7  H           1     -33.843   1.403 -14.959  0.00  0.00     0.275 HD
HETATM    8  H           1     -33.652  -0.263 -14.644  0.00  0.00     0.275 HD
HETATM    9  H           1     -34.403   0.251 -16.089  0.00  0.00     0.275 HD
ENDBRANCH   5   6
BRANCH   5  10
HETATM   10  C           1     -36.583  -0.409 -15.201  0.00  0.00     0.017 C 
HETATM   11  C           1     -35.907  -0.862 -16.487  0.00  0.00     0.012 C 
HETATM   12  C           1     -37.814   0.421 -15.540  0.00  0.00     0.012 C 
ENDBRANCH   5  10
ENDBRANCH   2   5
BRANCH   4  13
HETATM   13  C           1     -35.646  -2.040 -11.462  0.00  0.00     0.185 C 
BRANCH  13  14
HETATM   14  C           1     -34.179  -1.990 -11.051  0.00  0.00     0.040 C 
BRANCH  14  15
HETATM   15  C           1     -33.686  -3.400 -10.754  0.00  0.00    -0.020 C 
HETATM   16  C           1     -34.865  -4.364 -10.784  0.00  0.00     0.009 C 
HETATM   17  C           1     -32.666  -3.813 -11.807  0.00  0.00     0.009 C 
ENDBRANCH  14  15
ENDBRANCH  13  14
BRANCH  13  18
HETATM   18  C           1     -36.471  -1.249 -10.477  0.00  0.00     0.196 C 
HETATM   19  O           1     -37.693  -1.083 -10.678  0.00  0.00    -0.646 OA
HETATM   20  O           1     -35.933  -0.759  -9.461  0.00  0.00    -0.646 OA
ENDBRANCH  13  18
ENDBRANCH   4  13
TORSDOF 7
ENDMDL
MODEL 3
REMARK VINA RESULT:      -5.8      2.417      3.376
REMARK  7 active torsions:
REMARK  status: ('A' for Active; 'I' for Inactive)
REMARK    1  A    between atoms: N_2  and  C_12 
REMARK    2  A    between atoms: C_5  and  C_19 
REMARK    3  A    between atoms: C_5  and  C_13 
REMARK    4  A    between atoms: C_10  and  C_13 
REMARK    5  A    between atoms: C_11  and  C_12 
REMARK    6  A    between atoms: C_12  and  C_14 
REMARK    7  A    between atoms: C_13  and  N_18 
REMARK       I    between atoms: C_14  and  N_18 
ROOT
HETATM    1  H           1     -34.008  -1.640 -14.453  0.00  0.00     0.163 HD
HETATM    2  C           1     -35.100  -1.918 -12.718  0.00  0.00     0.249 C 
HETATM    3  O           1     -36.200  -1.859 -12.219  0.00  0.00    -0.271 OA
HETATM    4  N           1     -34.928  -1.590 -14.036  0.00  0.00    -0.345 N 
ENDROOT
BRANCH   2   5
HETATM    5  C           1     -33.918  -2.354 -11.887  0.00  0.00     0.278 C 
BRANCH   5   6
HETATM    6  N           1     -34.087  -1.857 -10.481  0.00  0.00    -0.066 N 
HETATM    7  H           1     -33.474  -1.024 -10.330  0.00  0.00     0.275 HD
HETATM    8  H           1     -35.085  -1.587 -10.325  0.00  0.00     0.275 HD
HETATM    9  H           1     -33.821  -2.613  -9.810  0.00  0.00     0.275 HD
ENDBRANCH   5   6
BRANCH   5  10
HETATM   10  C           1     -33.832  -3.873 -11.881  0.00  0.00     0.017 C 
HETATM   11  C           1     -34.328  -4.404 -10.542  0.00  0.00     0.012 C 
HETATM   12  C           1     -32.386  -4.302 -12.092  0.00  0.00     0.012 C 
ENDBRANCH   5  10
ENDBRANCH   2   5
BRANCH   4  13
HETATM   13  C           1     -36.065  -1.173 -14.833  0.00  0.00     0.185 C 
BRANCH  13  14
HETATM   14  C           1     -36.395   0.282 -14.521  0.00  0.00     0.040 C 
BRANCH  14  15
HETATM   15  C           1     -35.226   1.167 -14.931  0.00  0.00    -0.020 C 
HETATM   16  C           1     -35.738   2.314 -15.792  0.00  0.00     0.009 C 
HETATM   17  C           1     -34.553   1.728 -13.685  0.00  0.00     0.009 C 
ENDBRANCH  14  15
ENDBRANCH  13  14
BRANCH  13  18
HETATM   18  C           1     -35.731  -1.310 -16.297  0.00  0.00     0.196 C 
HETATM   19  O           1     -34.644  -1.820 -16.644  0.00  0.00    -0.646 OA
HETATM   20  O           1     -36.540  -0.913 -17.163  0.00  0.00    -0.646 OA
ENDBRANCH  13  18
ENDBRANCH   4  13
TORSDOF 7
ENDMDL
MODEL 4
REMARK VINA RESULT:      -5.5     15.169     17.479
REMARK  7 active torsions:
REMARK  status: ('A' for Active; 'I' for Inactive)
REMARK    1  A    between atoms: N_2  and  C_12 
REMARK    2  A    between atoms: C_5  and  C_19 
REMARK    3  A    between atoms: C_5  and  C_13 
REMARK    4  A    between atoms: C_10  and  C_13 
REMARK    5  A    between atoms: C_11  and  C_12 
REMARK    6  A    between atoms: C_12  and  C_14 
REMARK    7  A    between atoms: C_13  and  N_18 
REMARK       I    between atoms: C_14  and  N_18 
ROOT
HETATM    1  H           1     -21.423  -7.375  -6.848  0.00  0.00     0.163 HD
HETATM    2  C           1     -20.974  -5.459  -6.211  0.00  0.00     0.249 C 
HETATM    3  O           1     -20.492  -4.798  -5.321  0.00  0.00    -0.271 OA
HETATM    4  N           1     -21.020  -6.823  -6.103  0.00  0.00    -0.345 N 
ENDROOT
BRANCH   2   5
HETATM    5  C           1     -21.522  -4.779  -7.442  0.00  0.00     0.278 C 
BRANCH   5   6
HETATM    6  N           1     -21.784  -3.334  -7.138  0.00  0.00    -0.066 N 
HETATM    7  H           1     -22.797  -3.202  -6.918  0.00  0.00     0.275 HD
HETATM    8  H           1     -21.209  -3.041  -6.316  0.00  0.00     0.275 HD
HETATM    9  H           1     -21.529  -2.752  -7.969  0.00  0.00     0.275 HD
ENDBRANCH   5   6
BRANCH   5  10
HETATM   10  C           1     -20.511  -4.884  -8.575  0.00  0.00     0.017 C 
HETATM   11  C           1     -19.290  -4.036  -8.246  0.00  0.00     0.012 C 
HETATM   12  C           1     -21.142  -4.384  -9.868  0.00  0.00     0.012 C 
ENDBRANCH   5  10
ENDBRANCH   2   5
BRANCH   4  13
HETATM   13  C           1     -20.492  -7.474  -4.920  0.00  0.00     0.185 C 
BRANCH  13  14
HETATM   14  C           1     -21.593  -7.589  -3.872  0.00  0.00     0.040 C 
BRANCH  14  15
HETATM   15  C           1     -21.097  -7.017  -2.551  0.00  0.00    -0.020 C 
HETATM   16  C           1     -22.210  -6.206  -1.901  0.00  0.00     0.009 C 
HETATM   17  C           1     -20.692  -8.156  -1.624  0.00  0.00     0.009 C 
ENDBRANCH  14  15
ENDBRANCH  13  14
BRANCH  13  18
HETATM   18  C           1     -19.997  -8.852  -5.282  0.00  0.00     0.196 C 
HETATM   19  O           1     -20.739  -9.844  -5.121  0.00  0.00    -0.646 OA
HETATM   20  O           1     -18.845  -9.001  -5.743  0.00  0.00    -0.646 OA
ENDBRANCH  13  18
ENDBRANCH   4  13
TORSDOF 7
ENDMDL
MODEL 5
REMARK VINA RESULT:      -5.5     13.712     16.069
REMARK  7 active torsions:
REMARK  status: ('A' for Active; 'I' for Inactive)
REMARK    1  A    between atoms: N_2  and  C_12 
REMARK    2  A    between atoms: C_5  and  C_19 
REMARK    3  A    between atoms: C_5  and  C_13 
REMARK    4  A    between atoms: C_10  and  C_13 
REMARK    5  A    between atoms: C_11  and  C_12 
REMARK    6  A    between atoms: C_12  and  C_14 
REMARK    7  A    between atoms: C_13  and  N_18 
REMARK       I    between atoms: C_14  and  N_18 
ROOT
HETATM    1  H           1     -22.326  -5.152  -5.282  0.00  0.00     0.163 HD
HETATM    2  C           1     -21.447  -7.014  -5.484  0.00  0.00     0.249 C 
HETATM    3  O           1     -20.756  -7.712  -6.189  0.00  0.00    -0.271 OA
HETATM    4  N           1     -21.748  -5.736  -5.871  0.00  0.00    -0.345 N 
ENDROOT
BRANCH   2   5
HETATM    5  C           1     -21.976  -7.552  -4.177  0.00  0.00     0.278 C 
BRANCH   5   6
HETATM    6  N           1     -21.800  -9.042  -4.144  0.00  0.00    -0.066 N 
HETATM    7  H           1     -20.891  -9.296  -4.593  0.00  0.00     0.275 HD
HETATM    8  H           1     -21.801  -9.370  -3.152  0.00  0.00     0.275 HD
HETATM    9  H           1     -22.585  -9.497  -4.664  0.00  0.00     0.275 HD
ENDBRANCH   5   6
BRANCH   5  10
HETATM   10  C           1     -21.211  -6.925  -3.021  0.00  0.00     0.017 C 
HETATM   11  C           1     -20.469  -8.012  -2.255  0.00  0.00     0.012 C 
HETATM   12  C           1     -22.188  -6.223  -2.086  0.00  0.00     0.012 C 
ENDBRANCH   5  10
ENDBRANCH   2   5
BRANCH   4  13
HETATM   13  C           1     -21.238  -5.221  -7.127  0.00  0.00     0.185 C 
BRANCH  13  14
HETATM   14  C           1     -22.163  -4.122  -7.636  0.00  0.00     0.040 C 
BRANCH  14  15
HETATM   15  C           1     -22.677  -4.492  -9.021  0.00  0.00    -0.020 C 
HETATM   16  C           1     -24.058  -3.885  -9.227  0.00  0.00     0.009 C 
HETATM   17  C           1     -21.722  -3.952 -10.078  0.00  0.00     0.009 C 
ENDBRANCH  14  15
ENDBRANCH  13  14
BRANCH  13  18
HETATM   18  C           1     -19.855  -4.656  -6.915  0.00  0.00     0.196 C 
HETATM   19  O           1     -19.125  -4.406  -7.898  0.00  0.00    -0.646 OA
HETATM   20  O           1     -19.439  -4.440  -5.757  0.00  0.00    -0.646 OA
ENDBRANCH  13  18
ENDBRANCH   4  13
TORSDOF 7
ENDMDL
MODEL 6
REMARK VINA RESULT:      -5.4     16.360     18.287
REMARK  7 active torsions:
REMARK  status: ('A' for Active; 'I' for Inactive)
REMARK    1  A    between atoms: N_2  and  C_12 
REMARK    2  A    between atoms: C_5  and  C_19 
REMARK    3  A    between atoms: C_5  and  C_13 
REMARK    4  A    between atoms: C_10  and  C_13 
REMARK    5  A    between atoms: C_11  and  C_12 
REMARK    6  A    between atoms: C_12  and  C_14 
REMARK    7  A    between atoms: C_13  and  N_18 
REMARK       I    between atoms: C_14  and  N_18 
ROOT
HETATM    1  H           1     -22.472  -8.051  -3.572  0.00  0.00     0.163 HD
HETATM    2  C           1     -20.741  -7.847  -4.686  0.00  0.00     0.249 C 
HETATM    3  O           1     -19.574  -8.151  -4.768  0.00  0.00    -0.271 OA
HETATM    4  N           1     -21.496  -8.305  -3.641  0.00  0.00    -0.345 N 
ENDROOT
BRANCH   2   5
HETATM    5  C           1     -21.365  -6.962  -5.738  0.00  0.00     0.278 C 
BRANCH   5   6
HETATM    6  N           1     -22.484  -6.173  -5.125  0.00  0.00    -0.066 N 
HETATM    7  H           1     -22.154  -5.205  -4.914  0.00  0.00     0.275 HD
HETATM    8  H           1     -23.285  -6.128  -5.795  0.00  0.00     0.275 HD
HETATM    9  H           1     -22.794  -6.637  -4.241  0.00  0.00     0.275 HD
ENDBRANCH   5   6
BRANCH   5  10
HETATM   10  C           1     -20.314  -6.008  -6.289  0.00  0.00     0.017 C 
HETATM   11  C           1     -20.240  -4.770  -5.405  0.00  0.00     0.012 C 
HETATM   12  C           1     -20.694  -5.597  -7.705  0.00  0.00     0.012 C 
ENDBRANCH   5  10
ENDBRANCH   2   5
BRANCH   4  13
HETATM   13  C           1     -20.895  -9.156  -2.631  0.00  0.00     0.185 C 
BRANCH  13  14
HETATM   14  C           1     -20.828  -8.402  -1.308  0.00  0.00     0.040 C 
BRANCH  14  15
HETATM   15  C           1     -22.195  -7.812  -0.990  0.00  0.00    -0.020 C 
HETATM   16  C           1     -22.521  -8.052   0.478  0.00  0.00     0.009 C 
HETATM   17  C           1     -22.180  -6.315  -1.270  0.00  0.00     0.009 C 
ENDBRANCH  14  15
ENDBRANCH  13  14
BRANCH  13  18
HETATM   18  C           1     -21.730 -10.400  -2.460  0.00  0.00     0.196 C 
HETATM   19  O           1     -22.626 -10.670  -3.288  0.00  0.00    -0.646 OA
HETATM   20  O           1     -21.526 -11.161  -1.490  0.00  0.00    -0.646 OA
ENDBRANCH  13  18
ENDBRANCH   4  13
TORSDOF 7
ENDMDL
MODEL 7
REMARK VINA RESULT:      -5.4      8.873     11.155
REMARK  7 active torsions:
REMARK  status: ('A' for Active; 'I' for Inactive)
REMARK    1  A    between atoms: N_2  and  C_12 
REMARK    2  A    between atoms: C_5  and  C_19 
REMARK    3  A    between atoms: C_5  and  C_13 
REMARK    4  A    between atoms: C_10  and  C_13 
REMARK    5  A    between atoms: C_11  and  C_12 
REMARK    6  A    between atoms: C_12  and  C_14 
REMARK    7  A    between atoms: C_13  and  N_18 
REMARK       I    between atoms: C_14  and  N_18 
ROOT
HETATM    1  H           1     -27.562  -7.073 -19.083  0.00  0.00     0.163 HD
HETATM    2  C           1     -26.103  -6.311 -17.829  0.00  0.00     0.249 C 
HETATM    3  O           1     -25.888  -5.800 -16.754  0.00  0.00    -0.271 OA
HETATM    4  N           1     -27.382  -6.646 -18.184  0.00  0.00    -0.345 N 
ENDROOT
BRANCH   2   5
HETATM    5  C           1     -24.961  -6.579 -18.778  0.00  0.00     0.278 C 
BRANCH   5   6
HETATM    6  N           1     -24.064  -7.630 -18.193  0.00  0.00    -0.066 N 
HETATM    7  H           1     -23.707  -8.247 -18.957  0.00  0.00     0.275 HD
HETATM    8  H           1     -23.257  -7.171 -17.712  0.00  0.00     0.275 HD
HETATM    9  H           1     -24.602  -8.203 -17.504  0.00  0.00     0.275 HD
ENDBRANCH   5   6
BRANCH   5  10
HETATM   10  C           1     -25.510  -7.065 -20.111  0.00  0.00     0.017 C 
HETATM   11  C           1     -24.567  -8.107 -20.698  0.00  0.00     0.012 C 
HETATM   12  C           1     -25.628  -5.890 -21.072  0.00  0.00     0.012 C 
ENDBRANCH   5  10
ENDBRANCH   2   5
BRANCH   4  13
HETATM   13  C           1     -28.479  -6.388 -17.270  0.00  0.00     0.185 C 
BRANCH  13  14
HETATM   14  C           1     -29.760  -6.170 -18.066  0.00  0.00     0.040 C 
BRANCH  14  15
HETATM   15  C           1     -30.923  -5.954 -17.108  0.00  0.00    -0.020 C 
HETATM   16  C           1     -31.310  -4.481 -17.106  0.00  0.00     0.009 C 
HETATM   17  C           1     -32.113  -6.791 -17.556  0.00  0.00     0.009 C 
ENDBRANCH  14  15
ENDBRANCH  13  14
BRANCH  13  18
HETATM   18  C           1     -28.654  -7.568 -16.348  0.00  0.00     0.196 C 
HETATM   19  O           1     -28.206  -7.521 -15.182  0.00  0.00    -0.646 OA
HETATM   20  O           1     -29.245  -8.593 -16.750  0.00  0.00    -0.646 OA
ENDBRANCH  13  18
ENDBRANCH   4  13
TORSDOF 7
ENDMDL
MODEL 8
REMARK VINA RESULT:      -5.3     17.509     19.101
REMARK  7 active torsions:
REMARK  status: ('A' for Active; 'I' for Inactive)
REMARK    1  A    between atoms: N_2  and  C_12 
REMARK    2  A    between atoms: C_5  and  C_19 
REMARK    3  A    between atoms: C_5  and  C_13 
REMARK    4  A    between atoms: C_10  and  C_13 
REMARK    5  A    between atoms: C_11  and  C_12 
REMARK    6  A    between atoms: C_12  and  C_14 
REMARK    7  A    between atoms: C_13  and  N_18 
REMARK       I    between atoms: C_14  and  N_18 
ROOT
HETATM    1  H           1     -20.118  -8.742  -1.980  0.00  0.00     0.163 HD
HETATM    2  C           1     -21.743 -10.008  -1.792  0.00  0.00     0.249 C 
HETATM    3  O           1     -22.597 -10.620  -2.390  0.00  0.00    -0.271 OA
HETATM    4  N           1     -20.832  -9.255  -2.481  0.00  0.00    -0.345 N 
ENDROOT
BRANCH   2   5
HETATM    5  C           1     -21.683 -10.076  -0.285  0.00  0.00     0.278 C 
BRANCH   5   6
HETATM    6  N           1     -20.451 -10.823   0.131  0.00  0.00    -0.066 N 
HETATM    7  H           1     -20.453 -10.949   1.169  0.00  0.00     0.275 HD
HETATM    8  H           1     -20.438 -11.759  -0.332  0.00  0.00     0.275 HD
HETATM    9  H           1     -19.603 -10.281  -0.152  0.00  0.00     0.275 HD
ENDBRANCH   5   6
BRANCH   5  10
HETATM   10  C           1     -21.640  -8.666   0.287  0.00  0.00     0.017 C 
HETATM   11  C           1     -20.928  -8.687   1.632  0.00  0.00     0.012 C 
HETATM   12  C           1     -23.060  -8.148   0.472  0.00  0.00     0.012 C 
ENDBRANCH   5  10
ENDBRANCH   2   5
BRANCH   4  13
HETATM   13  C           1     -20.891  -9.191  -3.928  0.00  0.00     0.185 C 
BRANCH  13  14
HETATM   14  C           1     -21.708  -7.974  -4.349  0.00  0.00     0.040 C 
BRANCH  14  15
HETATM   15  C           1     -21.113  -6.722  -3.721  0.00  0.00    -0.020 C 
HETATM   16  C           1     -20.951  -5.648  -4.788  0.00  0.00     0.009 C 
HETATM   17  C           1     -22.041  -6.213  -2.625  0.00  0.00     0.009 C 
ENDBRANCH  14  15
ENDBRANCH  13  14
BRANCH  13  18
HETATM   18  C           1     -19.494  -9.076  -4.485  0.00  0.00     0.196 C 
HETATM   19  O           1     -19.322  -8.926  -5.713  0.00  0.00    -0.646 OA
HETATM   20  O           1     -18.509  -9.131  -3.718  0.00  0.00    -0.646 OA
ENDBRANCH  13  18
ENDBRANCH   4  13
TORSDOF 7
ENDMDL
MODEL 9
REMARK VINA RESULT:      -5.2     17.036     19.076
REMARK  7 active torsions:
REMARK  status: ('A' for Active; 'I' for Inactive)
REMARK    1  A    between atoms: N_2  and  C_12 
REMARK    2  A    between atoms: C_5  and  C_19 
REMARK    3  A    between atoms: C_5  and  C_13 
REMARK    4  A    between atoms: C_10  and  C_13 
REMARK    5  A    between atoms: C_11  and  C_12 
REMARK    6  A    between atoms: C_12  and  C_14 
REMARK    7  A    between atoms: C_13  and  N_18 
REMARK       I    between atoms: C_14  and  N_18 
ROOT
HETATM    1  H           1     -21.789  -9.102  -3.120  0.00  0.00     0.163 HD
HETATM    2  C           1     -19.794  -8.874  -3.617  0.00  0.00     0.249 C 
HETATM    3  O           1     -18.656  -8.962  -3.217  0.00  0.00    -0.271 OA
HETATM    4  N           1     -20.838  -9.176  -2.785  0.00  0.00    -0.345 N 
ENDROOT
BRANCH   2   5
HETATM    5  C           1     -20.061  -8.431  -5.035  0.00  0.00     0.278 C 
BRANCH   5   6
HETATM    6  N           1     -21.084  -9.336  -5.655  0.00  0.00    -0.066 N 
HETATM    7  H           1     -22.030  -8.899  -5.575  0.00  0.00     0.275 HD
HETATM    8  H           1     -20.853  -9.482  -6.664  0.00  0.00     0.275 HD
HETATM    9  H           1     -21.082 -10.256  -5.159  0.00  0.00     0.275 HD
ENDBRANCH   5   6
BRANCH   5  10
HETATM   10  C           1     -20.583  -7.001  -5.032  0.00  0.00     0.017 C 
HETATM   11  C           1     -22.106  -7.018  -5.018  0.00  0.00     0.012 C 
HETATM   12  C           1     -20.096  -6.279  -6.281  0.00  0.00     0.012 C 
ENDBRANCH   5  10
ENDBRANCH   2   5
BRANCH   4  13
HETATM   13  C           1     -20.579  -9.601  -1.423  0.00  0.00     0.185 C 
BRANCH  13  14
HETATM   14  C           1     -20.917  -8.465  -0.464  0.00  0.00     0.040 C 
BRANCH  14  15
HETATM   15  C           1     -22.328  -7.968  -0.746  0.00  0.00    -0.020 C 
HETATM   16  C           1     -23.149  -8.020   0.537  0.00  0.00     0.009 C 
HETATM   17  C           1     -22.269  -6.532  -1.252  0.00  0.00     0.009 C 
ENDBRANCH  14  15
ENDBRANCH  13  14
BRANCH  13  18
HETATM   18  C           1     -21.432 -10.803  -1.100  0.00  0.00     0.196 C 
HETATM   19  O           1     -21.411 -11.293   0.049  0.00  0.00    -0.646 OA
HETATM   20  O           1     -22.158 -11.309  -1.982  0.00  0.00    -0.646 OA
ENDBRANCH  13  18
ENDBRANCH   4  13
TORSDOF 7
ENDMDL
