MODEL 1
REMARK VINA RESULT:      -7.9      0.000      0.000
REMARK  6 active torsions:
REMARK  status: ('A' for Active; 'I' for Inactive)
REMARK    1  A    between atoms: C_2  and  C_3 
REMARK    2  A    between atoms: C_3  and  C_4 
REMARK    3  A    between atoms: C_4  and  C_18 
REMARK    4  A    between atoms: C_4  and  N_12 
REMARK       I    between atoms: N_12  and  C_13 
REMARK    5  A    between atoms: C_13  and  C_14 
REMARK    6  A    between atoms: C_14  and  N_16 
ROOT
HETATM    1  C           1     -35.477  -1.434 -12.446  0.00  0.00     0.189 C 
ENDROOT
BRANCH   1   2
HETATM    2  C           1     -34.352  -1.661 -11.444  0.00  0.00     0.074 C 
BRANCH   2   3
HETATM    3  C           1     -34.079  -3.127 -11.323  0.00  0.00    -0.056 A 
HETATM    4  C           1     -32.861  -3.649 -11.761  0.00  0.00     0.007 A 
HETATM    5  C           1     -32.607  -5.015 -11.649  0.00  0.00     0.001 A 
HETATM    6  C           1     -33.570  -5.861 -11.097  0.00  0.00     0.000 A 
HETATM    7  C           1     -34.787  -5.340 -10.660  0.00  0.00     0.001 A 
HETATM    8  C           1     -35.042  -3.973 -10.772  0.00  0.00     0.007 A 
ENDBRANCH   2   3
ENDBRANCH   1   2
BRANCH   1   9
HETATM    9  C           1     -36.450  -0.423 -11.890  0.00  0.00     0.197 C 
HETATM   10  O           1     -36.046   0.474 -11.119  0.00  0.00    -0.646 OA
HETATM   11  O           1     -37.659  -0.481 -12.203  0.00  0.00    -0.646 OA
ENDBRANCH   1   9
BRANCH   1  12
HETATM   12  N           1     -34.922  -0.938 -13.690  0.00  0.00    -0.344 N 
HETATM   13  H           1     -34.078  -1.352 -14.068  0.00  0.00     0.163 HD
HETATM   14  C           1     -35.537   0.088 -14.353  0.00  0.00     0.248 C 
HETATM   15  O           1     -35.232   1.232 -14.114  0.00  0.00    -0.271 OA
BRANCH  14  16
HETATM   16  C           1     -36.598  -0.208 -15.385  0.00  0.00     0.270 C 
HETATM   17  C           1     -35.965  -0.911 -16.578  0.00  0.00     0.050 C 
BRANCH  16  18
HETATM   18  N           1     -37.226   1.077 -15.839  0.00  0.00    -0.067 N 
HETATM   19  H           1     -36.512   1.657 -16.336  0.00  0.00     0.275 HD
HETATM   20  H           1     -37.585   1.601 -15.009  0.00  0.00     0.275 HD
HETATM   21  H           1     -38.019   0.868 -16.487  0.00  0.00     0.275 HD
ENDBRANCH  16  18
ENDBRANCH  14  16
ENDBRANCH   1  12
TORSDOF 6
ENDMDL
MODEL 2
REMARK VINA RESULT:      -7.8      1.549      2.136
REMARK  6 active torsions:
REMARK  status: ('A' for Active; 'I' for Inactive)
REMARK    1  A    between atoms: C_2  and  C_3 
REMARK    2  A    between atoms: C_3  and  C_4 
REMARK    3  A    between atoms: C_4  and  C_18 
REMARK    4  A    between atoms: C_4  and  N_12 
REMARK       I    between atoms: N_12  and  C_13 
REMARK    5  A    between atoms: C_13  and  C_14 
REMARK    6  A    between atoms: C_14  and  N_16 
ROOT
HETATM    1  C           1     -36.246  -1.010 -11.241  0.00  0.00     0.189 C 
ENDROOT
BRANCH   1   2
HETATM    2  C           1     -34.737  -1.211 -11.196  0.00  0.00     0.074 C 
BRANCH   2   3
HETATM    3  C           1     -34.428  -2.675 -11.203  0.00  0.00    -0.056 A 
HETATM    4  C           1     -35.424  -3.601 -10.892  0.00  0.00     0.007 A 
HETATM    5  C           1     -35.135  -4.965 -10.897  0.00  0.00     0.001 A 
HETATM    6  C           1     -33.850  -5.404 -11.215  0.00  0.00     0.000 A 
HETATM    7  C           1     -32.853  -4.480 -11.526  0.00  0.00     0.001 A 
HETATM    8  C           1     -33.142  -3.115 -11.520  0.00  0.00     0.007 A 
ENDBRANCH   2   3
ENDBRANCH   1   2
BRANCH   1   9
HETATM    9  C           1     -36.732  -0.538  -9.892  0.00  0.00     0.197 C 
HETATM   10  O           1     -35.915  -0.352  -8.964  0.00  0.00    -0.646 OA
HETATM   11  O           1     -37.950  -0.333  -9.704  0.00  0.00    -0.646 OA
ENDBRANCH   1   9
BRANCH   1  12
HETATM   12  N           1     -36.570  -0.016 -12.246  0.00  0.00    -0.344 N 
HETATM   13  H           1     -36.672   0.956 -11.982  0.00  0.00     0.163 HD
HETATM   14  C           1     -36.738  -0.391 -13.551  0.00  0.00     0.248 C 
HETATM   15  O           1     -37.831  -0.713 -13.952  0.00  0.00    -0.271 OA
BRANCH  14  16
HETATM   16  C           1     -35.557  -0.405 -14.491  0.00  0.00     0.270 C 
HETATM   17  C           1     -34.723   0.850 -14.278  0.00  0.00     0.050 C 
BRANCH  16  18
HETATM   18  N           1     -36.048  -0.443 -15.909  0.00  0.00    -0.067 N 
HETATM   19  H           1     -36.825   0.246 -16.027  0.00  0.00     0.275 HD
HETATM   20  H           1     -36.397  -1.403 -16.130  0.00  0.00     0.275 HD
HETATM   21  H           1     -35.264  -0.200 -16.556  0.00  0.00     0.275 HD
ENDBRANCH  16  18
ENDBRANCH  14  16
ENDBRANCH   1  12
TORSDOF 6
ENDMDL
MODEL 3
REMARK VINA RESULT:      -7.3      2.529      5.181
REMARK  6 active torsions:
REMARK  status: ('A' for Active; 'I' for Inactive)
REMARK    1  A    between atoms: C_2  and  C_3 
REMARK    2  A    between atoms: C_3  and  C_4 
REMARK    3  A    between atoms: C_4  and  C_18 
REMARK    4  A    between atoms: C_4  and  N_12 
REMARK       I    between atoms: N_12  and  C_13 
REMARK    5  A    between atoms: C_13  and  C_14 
REMARK    6  A    between atoms: C_14  and  N_16 
ROOT
HETATM    1  C           1     -36.311  -0.038 -10.675  0.00  0.00     0.189 C 
ENDROOT
BRANCH   1   2
HETATM    2  C           1     -37.338  -0.372 -11.750  0.00  0.00     0.074 C 
BRANCH   2   3
HETATM    3  C           1     -36.803   0.020 -13.091  0.00  0.00    -0.056 A 
HETATM    4  C           1     -35.493   0.483 -13.212  0.00  0.00     0.007 A 
HETATM    5  C           1     -34.995   0.849 -14.462  0.00  0.00     0.001 A 
HETATM    6  C           1     -35.806   0.750 -15.592  0.00  0.00     0.000 A 
HETATM    7  C           1     -37.116   0.287 -15.472  0.00  0.00     0.001 A 
HETATM    8  C           1     -37.614  -0.078 -14.221  0.00  0.00     0.007 A 
ENDBRANCH   2   3
ENDBRANCH   1   2
BRANCH   1   9
HETATM    9  C           1     -36.953   0.823  -9.615  0.00  0.00     0.197 C 
HETATM   10  O           1     -36.363   1.024  -8.532  0.00  0.00    -0.646 OA
HETATM   11  O           1     -38.075   1.335  -9.820  0.00  0.00    -0.646 OA
ENDBRANCH   1   9
BRANCH   1  12
HETATM   12  N           1     -35.827  -1.265 -10.073  0.00  0.00    -0.344 N 
HETATM   13  H           1     -36.239  -1.603  -9.212  0.00  0.00     0.163 HD
HETATM   14  C           1     -34.814  -1.966 -10.668  0.00  0.00     0.248 C 
HETATM   15  O           1     -33.664  -1.729 -10.381  0.00  0.00    -0.271 OA
BRANCH  14  16
HETATM   16  C           1     -35.131  -3.037 -11.683  0.00  0.00     0.270 C 
HETATM   17  C           1     -34.970  -4.409 -11.043  0.00  0.00     0.050 C 
BRANCH  16  18
HETATM   18  N           1     -34.191  -2.915 -12.847  0.00  0.00    -0.067 N 
HETATM   19  H           1     -33.876  -1.923 -12.938  0.00  0.00     0.275 HD
HETATM   20  H           1     -34.681  -3.208 -13.722  0.00  0.00     0.275 HD
HETATM   21  H           1     -33.361  -3.532 -12.690  0.00  0.00     0.275 HD
ENDBRANCH  16  18
ENDBRANCH  14  16
ENDBRANCH   1  12
TORSDOF 6
ENDMDL
MODEL 4
REMARK VINA RESULT:      -7.1     11.845     13.633
REMARK  6 active torsions:
REMARK  status: ('A' for Active; 'I' for Inactive)
REMARK    1  A    between atoms: C_2  and  C_3 
REMARK    2  A    between atoms: C_3  and  C_4 
REMARK    3  A    between atoms: C_4  and  C_18 
REMARK    4  A    between atoms: C_4  and  N_12 
REMARK       I    between atoms: N_12  and  C_13 
REMARK    5  A    between atoms: C_13  and  C_14 
REMARK    6  A    between atoms: C_14  and  N_16 
ROOT
HETATM    1  C           1     -23.298  -4.538  -9.698  0.00  0.00     0.189 C 
ENDROOT
BRANCH   1   2
HETATM    2  C           1     -22.252  -3.509  -9.290  0.00  0.00     0.074 C 
BRANCH   2   3
HETATM    3  C           1     -21.387  -4.076  -8.209  0.00  0.00    -0.056 A 
HETATM    4  C           1     -21.969  -4.629  -7.068  0.00  0.00     0.007 A 
HETATM    5  C           1     -21.163  -5.157  -6.060  0.00  0.00     0.001 A 
HETATM    6  C           1     -19.775  -5.133  -6.193  0.00  0.00     0.000 A 
HETATM    7  C           1     -19.192  -4.581  -7.333  0.00  0.00     0.001 A 
HETATM    8  C           1     -19.999  -4.052  -8.341  0.00  0.00     0.007 A 
ENDBRANCH   2   3
ENDBRANCH   1   2
BRANCH   1   9
HETATM    9  C           1     -24.677  -3.947  -9.536  0.00  0.00     0.197 C 
HETATM   10  O           1     -25.677  -4.696  -9.498  0.00  0.00    -0.646 OA
HETATM   11  O           1     -24.819  -2.708  -9.441  0.00  0.00    -0.646 OA
ENDBRANCH   1   9
BRANCH   1  12
HETATM   12  N           1     -23.092  -4.912 -11.084  0.00  0.00    -0.344 N 
HETATM   13  H           1     -23.527  -5.750 -11.452  0.00  0.00     0.163 HD
HETATM   14  C           1     -22.312  -4.134 -11.895  0.00  0.00     0.248 C 
HETATM   15  O           1     -21.126  -4.346 -11.978  0.00  0.00    -0.271 OA
BRANCH  14  16
HETATM   16  C           1     -22.933  -3.009 -12.686  0.00  0.00     0.270 C 
HETATM   17  C           1     -24.441  -3.203 -12.750  0.00  0.00     0.050 C 
BRANCH  16  18
HETATM   18  N           1     -22.370  -3.007 -14.077  0.00  0.00    -0.067 N 
HETATM   19  H           1     -21.377  -2.682 -14.051  0.00  0.00     0.275 HD
HETATM   20  H           1     -22.933  -2.365 -14.680  0.00  0.00     0.275 HD
HETATM   21  H           1     -22.409  -3.976 -14.470  0.00  0.00     0.275 HD
ENDBRANCH  16  18
ENDBRANCH  14  16
ENDBRANCH   1  12
TORSDOF 6
ENDMDL
MODEL 5
REMARK VINA RESULT:      -7.0      2.633      5.512
REMARK  6 active torsions:
REMARK  status: ('A' for Active; 'I' for Inactive)
REMARK    1  A    between atoms: C_2  and  C_3 
REMARK    2  A    between atoms: C_3  and  C_4 
REMARK    3  A    between atoms: C_4  and  C_18 
REMARK    4  A    between atoms: C_4  and  N_12 
REMARK       I    between atoms: N_12  and  C_13 
REMARK    5  A    between atoms: C_13  and  C_14 
REMARK    6  A    between atoms: C_14  and  N_16 
ROOT
HETATM    1  C           1     -34.620  -1.771 -11.242  0.00  0.00     0.189 C 
ENDROOT
BRANCH   1   2
HETATM    2  C           1     -34.977  -2.156 -12.672  0.00  0.00     0.074 C 
BRANCH   2   3
HETATM    3  C           1     -35.105  -0.920 -13.505  0.00  0.00    -0.056 A 
HETATM    4  C           1     -35.713  -0.983 -14.759  0.00  0.00     0.007 A 
HETATM    5  C           1     -35.831   0.169 -15.537  0.00  0.00     0.001 A 
HETATM    6  C           1     -35.343   1.385 -15.059  0.00  0.00     0.000 A 
HETATM    7  C           1     -34.735   1.449 -13.806  0.00  0.00     0.001 A 
HETATM    8  C           1     -34.616   0.296 -13.029  0.00  0.00     0.007 A 
ENDBRANCH   2   3
ENDBRANCH   1   2
BRANCH   1   9
HETATM    9  C           1     -35.880  -1.454 -10.475  0.00  0.00     0.197 C 
HETATM   10  O           1     -35.854  -0.615  -9.549  0.00  0.00    -0.646 OA
HETATM   11  O           1     -36.951  -2.030 -10.767  0.00  0.00    -0.646 OA
ENDBRANCH   1   9
BRANCH   1  12
HETATM   12  N           1     -33.930  -2.874 -10.603  0.00  0.00    -0.344 N 
HETATM   13  H           1     -33.634  -2.795  -9.638  0.00  0.00     0.163 HD
HETATM   14  C           1     -33.680  -4.023 -11.304  0.00  0.00     0.248 C 
HETATM   15  O           1     -32.651  -4.139 -11.927  0.00  0.00    -0.271 OA
BRANCH  14  16
HETATM   16  C           1     -34.688  -5.146 -11.298  0.00  0.00     0.270 C 
HETATM   17  C           1     -34.253  -6.215 -10.306  0.00  0.00     0.050 C 
BRANCH  16  18
HETATM   18  N           1     -34.775  -5.745 -12.671  0.00  0.00    -0.067 N 
HETATM   19  H           1     -33.933  -5.471 -13.225  0.00  0.00     0.275 HD
HETATM   20  H           1     -35.636  -5.396 -13.149  0.00  0.00     0.275 HD
HETATM   21  H           1     -34.818  -6.787 -12.595  0.00  0.00     0.275 HD
ENDBRANCH  16  18
ENDBRANCH  14  16
ENDBRANCH   1  12
TORSDOF 6
ENDMDL
MODEL 6
REMARK VINA RESULT:      -6.9     11.992     13.675
REMARK  6 active torsions:
REMARK  status: ('A' for Active; 'I' for Inactive)
REMARK    1  A    between atoms: C_2  and  C_3 
REMARK    2  A    between atoms: C_3  and  C_4 
REMARK    3  A    between atoms: C_4  and  C_18 
REMARK    4  A    between atoms: C_4  and  N_12 
REMARK       I    between atoms: N_12  and  C_13 
REMARK    5  A    between atoms: C_13  and  C_14 
REMARK    6  A    between atoms: C_14  and  N_16 
ROOT
HETATM    1  C           1     -22.290  -4.676 -10.378  0.00  0.00     0.189 C 
ENDROOT
BRANCH   1   2
HETATM    2  C           1     -22.199  -3.611  -9.292  0.00  0.00     0.074 C 
BRANCH   2   3
HETATM    3  C           1     -21.394  -4.135  -8.145  0.00  0.00    -0.056 A 
HETATM    4  C           1     -20.001  -4.080  -8.187  0.00  0.00     0.007 A 
HETATM    5  C           1     -19.250  -4.569  -7.118  0.00  0.00     0.001 A 
HETATM    6  C           1     -19.893  -5.112  -6.006  0.00  0.00     0.000 A 
HETATM    7  C           1     -21.286  -5.167  -5.962  0.00  0.00     0.001 A 
HETATM    8  C           1     -22.036  -4.678  -7.032  0.00  0.00     0.007 A 
ENDBRANCH   2   3
ENDBRANCH   1   2
BRANCH   1   9
HETATM    9  C           1     -23.738  -5.029 -10.617  0.00  0.00     0.197 C 
HETATM   10  O           1     -24.031  -6.007 -11.338  0.00  0.00    -0.646 OA
HETATM   11  O           1     -24.643  -4.344 -10.093  0.00  0.00    -0.646 OA
ENDBRANCH   1   9
BRANCH   1  12
HETATM   12  N           1     -21.708  -4.166 -11.604  0.00  0.00    -0.344 N 
HETATM   13  H           1     -20.895  -4.617 -12.004  0.00  0.00     0.163 HD
HETATM   14  C           1     -22.259  -3.077 -12.222  0.00  0.00     0.248 C 
HETATM   15  O           1     -21.881  -1.965 -11.938  0.00  0.00    -0.271 OA
BRANCH  14  16
HETATM   16  C           1     -23.340  -3.262 -13.259  0.00  0.00     0.270 C 
HETATM   17  C           1     -22.872  -2.689 -14.589  0.00  0.00     0.050 C 
BRANCH  16  18
HETATM   18  N           1     -24.583  -2.548 -12.816  0.00  0.00    -0.067 N 
HETATM   19  H           1     -24.825  -2.840 -11.843  0.00  0.00     0.275 HD
HETATM   20  H           1     -25.370  -2.789 -13.460  0.00  0.00     0.275 HD
HETATM   21  H           1     -24.419  -1.515 -12.840  0.00  0.00     0.275 HD
ENDBRANCH  16  18
ENDBRANCH  14  16
ENDBRANCH   1  12
TORSDOF 6
ENDMDL
MODEL 7
REMARK VINA RESULT:      -6.6     13.892     16.198
REMARK  6 active torsions:
REMARK  status: ('A' for Active; 'I' for Inactive)
REMARK    1  A    between atoms: C_2  and  C_3 
REMARK    2  A    between atoms: C_3  and  C_4 
REMARK    3  A    between atoms: C_4  and  C_18 
REMARK    4  A    between atoms: C_4  and  N_12 
REMARK       I    between atoms: N_12  and  C_13 
REMARK    5  A    between atoms: C_13  and  C_14 
REMARK    6  A    between atoms: C_14  and  N_16 
ROOT
HETATM    1  C           1     -21.648  -5.401  -6.962  0.00  0.00     0.189 C 
ENDROOT
BRANCH   1   2
HETATM    2  C           1     -22.035  -4.044  -7.536  0.00  0.00     0.074 C 
BRANCH   2   3
HETATM    3  C           1     -22.292  -4.177  -9.004  0.00  0.00    -0.056 A 
HETATM    4  C           1     -23.586  -4.419  -9.467  0.00  0.00     0.007 A 
HETATM    5  C           1     -23.825  -4.544 -10.835  0.00  0.00     0.001 A 
HETATM    6  C           1     -22.771  -4.425 -11.741  0.00  0.00     0.000 A 
HETATM    7  C           1     -21.478  -4.182 -11.279  0.00  0.00     0.001 A 
HETATM    8  C           1     -21.239  -4.059  -9.910  0.00  0.00     0.007 A 
ENDBRANCH   2   3
ENDBRANCH   1   2
BRANCH   1   9
HETATM    9  C           1     -20.146  -5.489  -6.847  0.00  0.00     0.197 C 
HETATM   10  O           1     -19.485  -4.482  -6.511  0.00  0.00    -0.646 OA
HETATM   11  O           1     -19.562  -6.568  -7.087  0.00  0.00    -0.646 OA
ENDBRANCH   1   9
BRANCH   1  12
HETATM   12  N           1     -22.244  -5.558  -5.650  0.00  0.00    -0.344 N 
HETATM   13  H           1     -23.117  -5.093  -5.432  0.00  0.00     0.163 HD
HETATM   14  C           1     -21.627  -6.334  -4.706  0.00  0.00     0.248 C 
HETATM   15  O           1     -20.824  -5.842  -3.949  0.00  0.00    -0.271 OA
BRANCH  14  16
HETATM   16  C           1     -21.949  -7.805  -4.611  0.00  0.00     0.270 C 
HETATM   17  C           1     -21.575  -8.319  -3.227  0.00  0.00     0.050 C 
BRANCH  16  18
HETATM   18  N           1     -21.169  -8.555  -5.650  0.00  0.00    -0.067 N 
HETATM   19  H           1     -20.207  -8.154  -5.720  0.00  0.00     0.275 HD
HETATM   20  H           1     -21.650  -8.471  -6.574  0.00  0.00     0.275 HD
HETATM   21  H           1     -21.108  -9.563  -5.380  0.00  0.00     0.275 HD
ENDBRANCH  16  18
ENDBRANCH  14  16
ENDBRANCH   1  12
TORSDOF 6
ENDMDL
MODEL 8
REMARK VINA RESULT:      -6.6     16.763     18.983
REMARK  6 active torsions:
REMARK  status: ('A' for Active; 'I' for Inactive)
REMARK    1  A    between atoms: C_2  and  C_3 
REMARK    2  A    between atoms: C_3  and  C_4 
REMARK    3  A    between atoms: C_4  and  C_18 
REMARK    4  A    between atoms: C_4  and  N_12 
REMARK       I    between atoms: N_12  and  C_13 
REMARK    5  A    between atoms: C_13  and  C_14 
REMARK    6  A    between atoms: C_14  and  N_16 
ROOT
HETATM    1  C           1     -21.033  -7.872  -4.201  0.00  0.00     0.189 C 
ENDROOT
BRANCH   1   2
HETATM    2  C           1     -20.942  -7.095  -2.894  0.00  0.00     0.074 C 
BRANCH   2   3
HETATM    3  C           1     -21.690  -7.826  -1.824  0.00  0.00    -0.056 A 
HETATM    4  C           1     -22.273  -7.119  -0.772  0.00  0.00     0.007 A 
HETATM    5  C           1     -22.969  -7.800   0.225  0.00  0.00     0.001 A 
HETATM    6  C           1     -23.084  -9.189   0.171  0.00  0.00     0.000 A 
HETATM    7  C           1     -22.501  -9.897  -0.880  0.00  0.00     0.001 A 
HETATM    8  C           1     -21.804  -9.215  -1.877  0.00  0.00     0.007 A 
ENDBRANCH   2   3
ENDBRANCH   1   2
BRANCH   1   9
HETATM    9  C           1     -21.691  -7.012  -5.253  0.00  0.00     0.197 C 
HETATM   10  O           1     -22.637  -6.257  -4.941  0.00  0.00    -0.646 OA
HETATM   11  O           1     -21.289  -7.056  -6.436  0.00  0.00    -0.646 OA
ENDBRANCH   1   9
BRANCH   1  12
HETATM   12  N           1     -19.701  -8.238  -4.639  0.00  0.00    -0.344 N 
HETATM   13  H           1     -19.012  -7.518  -4.819  0.00  0.00     0.163 HD
HETATM   14  C           1     -19.373  -9.555  -4.809  0.00  0.00     0.248 C 
HETATM   15  O           1     -19.543 -10.087  -5.881  0.00  0.00    -0.271 OA
BRANCH  14  16
HETATM   16  C           1     -18.801 -10.346  -3.658  0.00  0.00     0.270 C 
HETATM   17  C           1     -17.841  -9.469  -2.866  0.00  0.00     0.050 C 
BRANCH  16  18
HETATM   18  N           1     -18.062 -11.539  -4.191  0.00  0.00    -0.067 N 
HETATM   19  H           1     -18.660 -12.035  -4.890  0.00  0.00     0.275 HD
HETATM   20  H           1     -17.834 -12.187  -3.404  0.00  0.00     0.275 HD
HETATM   21  H           1     -17.177 -11.225  -4.650  0.00  0.00     0.275 HD
ENDBRANCH  16  18
ENDBRANCH  14  16
ENDBRANCH   1  12
TORSDOF 6
ENDMDL
MODEL 9
REMARK VINA RESULT:      -6.4     18.125     19.495
REMARK  6 active torsions:
REMARK  status: ('A' for Active; 'I' for Inactive)
REMARK    1  A    between atoms: C_2  and  C_3 
REMARK    2  A    between atoms: C_3  and  C_4 
REMARK    3  A    between atoms: C_4  and  C_18 
REMARK    4  A    between atoms: C_4  and  N_12 
REMARK       I    between atoms: N_12  and  C_13 
REMARK    5  A    between atoms: C_13  and  C_14 
REMARK    6  A    between atoms: C_14  and  N_16 
ROOT
HETATM    1  C           1     -21.546  -8.186  -1.845  0.00  0.00     0.189 C 
ENDROOT
BRANCH   1   2
HETATM    2  C           1     -21.213  -8.631  -0.426  0.00  0.00     0.074 C 
BRANCH   2   3
HETATM    3  C           1     -21.929  -9.909  -0.123  0.00  0.00    -0.056 A 
HETATM    4  C           1     -23.291 -10.030  -0.398  0.00  0.00     0.007 A 
HETATM    5  C           1     -23.958 -11.221  -0.114  0.00  0.00     0.001 A 
HETATM    6  C           1     -23.262 -12.293   0.443  0.00  0.00     0.000 A 
HETATM    7  C           1     -21.900 -12.175   0.719  0.00  0.00     0.001 A 
HETATM    8  C           1     -21.234 -10.982   0.435  0.00  0.00     0.007 A 
ENDBRANCH   2   3
ENDBRANCH   1   2
BRANCH   1   9
HETATM    9  C           1     -22.035  -6.758  -1.824  0.00  0.00     0.197 C 
HETATM   10  O           1     -22.559  -6.293  -0.789  0.00  0.00    -0.646 OA
HETATM   11  O           1     -21.915  -6.042  -2.841  0.00  0.00    -0.646 OA
ENDBRANCH   1   9
BRANCH   1  12
HETATM   12  N           1     -20.357  -8.277  -2.670  0.00  0.00    -0.344 N 
HETATM   13  H           1     -19.545  -7.714  -2.451  0.00  0.00     0.163 HD
HETATM   14  C           1     -20.332  -9.125  -3.744  0.00  0.00     0.248 C 
HETATM   15  O           1     -20.687  -8.735  -4.831  0.00  0.00    -0.271 OA
BRANCH  14  16
HETATM   16  C           1     -19.860 -10.548  -3.572  0.00  0.00     0.270 C 
HETATM   17  C           1     -21.059 -11.456  -3.333  0.00  0.00     0.050 C 
BRANCH  16  18
HETATM   18  N           1     -18.932 -10.628  -2.395  0.00  0.00    -0.067 N 
HETATM   19  H           1     -19.049 -11.551  -1.921  0.00  0.00     0.275 HD
HETATM   20  H           1     -19.155  -9.859  -1.724  0.00  0.00     0.275 HD
HETATM   21  H           1     -17.944 -10.527  -2.724  0.00  0.00     0.275 HD
ENDBRANCH  16  18
ENDBRANCH  14  16
ENDBRANCH   1  12
TORSDOF 6
ENDMDL
