MODEL 1
REMARK VINA RESULT:      -5.9      0.000      0.000
REMARK  6 active torsions:
REMARK  status: ('A' for Active; 'I' for Inactive)
REMARK    1  A    between atoms: C_1  and  C_2 
REMARK    2  A    between atoms: C_1  and  C_19 
REMARK    3  A    between atoms: C_1  and  N_15 
REMARK       I    between atoms: C_2  and  N_3 
REMARK    4  A    between atoms: C_4  and  C_6 
REMARK    5  A    between atoms: Se_17  and  C_18 
REMARK    6  A    between atoms: C_18  and  C_19 
ROOT
HETATM    1  C           1     -34.952  -1.959 -12.887  0.00  0.00     0.251 C 
HETATM    2  N           1     -35.820  -0.972 -13.269  0.00  0.00    -0.336 N 
HETATM    3  C           1     -36.289  -0.672 -14.619  0.00  0.00     0.188 C 
HETATM    4  C           1     -37.763  -0.358 -14.429  0.00  0.00     0.038 C 
HETATM    5  C           1     -37.888   0.097 -12.979  0.00  0.00     0.022 C 
HETATM    6  C           1     -36.481   0.010 -12.414  0.00  0.00     0.127 C 
HETATM    7  O           1     -34.481  -2.702 -13.714  0.00  0.00    -0.271 OA
ENDROOT
BRANCH   1   8
HETATM    8  C           1     -34.581  -2.117 -11.433  0.00  0.00     0.275 C 
BRANCH   8   9
HETATM    9  C           1     -33.442  -3.119 -11.305  0.00  0.00     0.042 C 
BRANCH   9  10
HETATM   10  C           1     -33.897  -4.300 -10.457  0.00  0.00     0.003 C 
BRANCH  10  11
HETATM   11 Se           1     -34.518  -5.734 -11.621  0.00  0.00     0.000 Se
HETATM   12  C           1     -34.671  -7.050 -10.192  0.00  0.00     0.000 C 
ENDBRANCH  10  11
ENDBRANCH   9  10
ENDBRANCH   8   9
BRANCH   8  13
HETATM   13  N           1     -35.771  -2.612 -10.665  0.00  0.00    -0.067 N 
HETATM   14  H           1     -35.448  -3.150  -9.829  0.00  0.00     0.275 HD
HETATM   15  H           1     -36.347  -1.798 -10.354  0.00  0.00     0.275 HD
HETATM   16  H           1     -36.347  -3.233 -11.278  0.00  0.00     0.275 HD
ENDBRANCH   8  13
ENDBRANCH   1   8
BRANCH   3  17
HETATM   17  C           1     -35.555   0.516 -15.191  0.00  0.00     0.196 C 
HETATM   18  O           1     -34.343   0.683 -14.937  0.00  0.00    -0.646 OA
HETATM   19  O           1     -36.160   1.333 -15.918  0.00  0.00    -0.646 OA
ENDBRANCH   3  17
TORSDOF 6
ENDMDL
MODEL 2
REMARK VINA RESULT:      -5.8     13.237     15.054
REMARK  6 active torsions:
REMARK  status: ('A' for Active; 'I' for Inactive)
REMARK    1  A    between atoms: C_1  and  C_2 
REMARK    2  A    between atoms: C_1  and  C_19 
REMARK    3  A    between atoms: C_1  and  N_15 
REMARK       I    between atoms: C_2  and  N_3 
REMARK    4  A    between atoms: C_4  and  C_6 
REMARK    5  A    between atoms: Se_17  and  C_18 
REMARK    6  A    between atoms: C_18  and  C_19 
ROOT
HETATM    1  C           1     -21.663  -4.624  -8.175  0.00  0.00     0.251 C 
HETATM    2  N           1     -21.589  -4.379  -9.520  0.00  0.00    -0.336 N 
HETATM    3  C           1     -22.523  -3.610 -10.337  0.00  0.00     0.188 C 
HETATM    4  C           1     -21.622  -2.823 -11.273  0.00  0.00     0.038 C 
HETATM    5  C           1     -20.330  -3.629 -11.352  0.00  0.00     0.022 C 
HETATM    6  C           1     -20.557  -4.830 -10.450  0.00  0.00     0.127 C 
HETATM    7  O           1     -22.584  -4.182  -7.531  0.00  0.00    -0.271 OA
ENDROOT
BRANCH   1   8
HETATM    8  C           1     -20.595  -5.447  -7.498  0.00  0.00     0.275 C 
BRANCH   8   9
HETATM    9  C           1     -21.239  -6.371  -6.472  0.00  0.00     0.042 C 
BRANCH   9  10
HETATM   10  C           1     -20.826  -5.940  -5.071  0.00  0.00     0.003 C 
BRANCH  10  11
HETATM   11 Se           1     -21.196  -7.381  -3.812  0.00  0.00     0.000 Se
HETATM   12  C           1     -21.891  -6.208  -2.420  0.00  0.00     0.000 C 
ENDBRANCH  10  11
ENDBRANCH   9  10
ENDBRANCH   8   9
BRANCH   8  13
HETATM   13  N           1     -19.624  -4.536  -6.809  0.00  0.00    -0.067 N 
HETATM   14  H           1     -19.912  -3.542  -6.955  0.00  0.00     0.275 HD
HETATM   15  H           1     -19.613  -4.748  -5.785  0.00  0.00     0.275 HD
HETATM   16  H           1     -18.667  -4.683  -7.205  0.00  0.00     0.275 HD
ENDBRANCH   8  13
ENDBRANCH   1   8
BRANCH   3  17
HETATM   17  C           1     -23.437  -4.526 -11.114  0.00  0.00     0.196 C 
HETATM   18  O           1     -23.645  -4.318 -12.329  0.00  0.00    -0.646 OA
HETATM   19  O           1     -23.986  -5.493 -10.543  0.00  0.00    -0.646 OA
ENDBRANCH   3  17
TORSDOF 6
ENDMDL
MODEL 3
REMARK VINA RESULT:      -5.7     13.019     14.658
REMARK  6 active torsions:
REMARK  status: ('A' for Active; 'I' for Inactive)
REMARK    1  A    between atoms: C_1  and  C_2 
REMARK    2  A    between atoms: C_1  and  C_19 
REMARK    3  A    between atoms: C_1  and  N_15 
REMARK       I    between atoms: C_2  and  N_3 
REMARK    4  A    between atoms: C_4  and  C_6 
REMARK    5  A    between atoms: Se_17  and  C_18 
REMARK    6  A    between atoms: C_18  and  C_19 
ROOT
HETATM    1  C           1     -21.291  -4.563  -8.436  0.00  0.00     0.251 C 
HETATM    2  N           1     -22.187  -4.213  -9.411  0.00  0.00    -0.336 N 
HETATM    3  C           1     -22.107  -4.507 -10.839  0.00  0.00     0.188 C 
HETATM    4  C           1     -23.534  -4.866 -11.214  0.00  0.00     0.038 C 
HETATM    5  C           1     -24.405  -4.175 -10.171  0.00  0.00     0.022 C 
HETATM    6  C           1     -23.430  -3.465  -9.249  0.00  0.00     0.127 C 
HETATM    7  O           1     -20.299  -5.187  -8.724  0.00  0.00    -0.271 OA
ENDROOT
BRANCH   1   8
HETATM    8  C           1     -21.544  -4.167  -7.002  0.00  0.00     0.275 C 
BRANCH   8   9
HETATM    9  C           1     -20.359  -4.585  -6.142  0.00  0.00     0.042 C 
BRANCH   9  10
HETATM   10  C           1     -20.842  -5.497  -5.021  0.00  0.00     0.003 C 
BRANCH  10  11
HETATM   11 Se           1     -20.296  -7.330  -5.393  0.00  0.00     0.000 Se
HETATM   12  C           1     -20.946  -8.041  -3.698  0.00  0.00     0.000 C 
ENDBRANCH  10  11
ENDBRANCH   9  10
ENDBRANCH   8   9
BRANCH   8  13
HETATM   13  N           1     -22.786  -4.847  -6.507  0.00  0.00    -0.067 N 
HETATM   14  H           1     -23.597  -4.573  -7.106  0.00  0.00     0.275 HD
HETATM   15  H           1     -22.655  -5.883  -6.551  0.00  0.00     0.275 HD
HETATM   16  H           1     -22.970  -4.561  -5.519  0.00  0.00     0.275 HD
ENDBRANCH   8  13
ENDBRANCH   1   8
BRANCH   3  17
HETATM   17  C           1     -21.636  -3.299 -11.611  0.00  0.00     0.196 C 
HETATM   18  O           1     -20.555  -2.748 -11.310  0.00  0.00    -0.646 OA
HETATM   19  O           1     -22.327  -2.849 -12.550  0.00  0.00    -0.646 OA
ENDBRANCH   3  17
TORSDOF 6
ENDMDL
MODEL 4
REMARK VINA RESULT:      -5.1     14.473     17.161
REMARK  6 active torsions:
REMARK  status: ('A' for Active; 'I' for Inactive)
REMARK    1  A    between atoms: C_1  and  C_2 
REMARK    2  A    between atoms: C_1  and  C_19 
REMARK    3  A    between atoms: C_1  and  N_15 
REMARK       I    between atoms: C_2  and  N_3 
REMARK    4  A    between atoms: C_4  and  C_6 
REMARK    5  A    between atoms: Se_17  and  C_18 
REMARK    6  A    between atoms: C_18  and  C_19 
ROOT
HETATM    1  C           1     -20.646  -6.232  -6.543  0.00  0.00     0.251 C 
HETATM    2  N           1     -21.089  -6.816  -5.386  0.00  0.00    -0.336 N 
HETATM    3  C           1     -20.451  -7.889  -4.630  0.00  0.00     0.188 C 
HETATM    4  C           1     -20.642  -7.475  -3.182  0.00  0.00     0.038 C 
HETATM    5  C           1     -21.865  -6.565  -3.187  0.00  0.00     0.022 C 
HETATM    6  C           1     -22.304  -6.499  -4.640  0.00  0.00     0.127 C 
HETATM    7  O           1     -19.614  -6.602  -7.049  0.00  0.00    -0.271 OA
ENDROOT
BRANCH   1   8
HETATM    8  C           1     -21.447  -5.126  -7.185  0.00  0.00     0.275 C 
BRANCH   8   9
HETATM    9  C           1     -21.278  -5.188  -8.697  0.00  0.00     0.042 C 
BRANCH   9  10
HETATM   10  C           1     -22.104  -4.085  -9.346  0.00  0.00     0.003 C 
BRANCH  10  11
HETATM   11 Se           1     -21.711  -4.016 -11.254  0.00  0.00     0.000 Se
HETATM   12  C           1     -23.523  -4.473 -11.810  0.00  0.00     0.000 C 
ENDBRANCH  10  11
ENDBRANCH   9  10
ENDBRANCH   8   9
BRANCH   8  13
HETATM   13  N           1     -20.961  -3.800  -6.682  0.00  0.00    -0.067 N 
HETATM   14  H           1     -21.637  -3.052  -6.960  0.00  0.00     0.275 HD
HETATM   15  H           1     -20.884  -3.830  -5.640  0.00  0.00     0.275 HD
HETATM   16  H           1     -20.023  -3.593  -7.095  0.00  0.00     0.275 HD
ENDBRANCH   8  13
ENDBRANCH   1   8
BRANCH   3  17
HETATM   17  C           1     -21.122  -9.212  -4.905  0.00  0.00     0.196 C 
HETATM   18  O           1     -21.666  -9.843  -3.972  0.00  0.00    -0.646 OA
HETATM   19  O           1     -21.135  -9.678  -6.065  0.00  0.00    -0.646 OA
ENDBRANCH   3  17
TORSDOF 6
ENDMDL
MODEL 5
REMARK VINA RESULT:      -5.0     17.942     19.911
REMARK  6 active torsions:
REMARK  status: ('A' for Active; 'I' for Inactive)
REMARK    1  A    between atoms: C_1  and  C_2 
REMARK    2  A    between atoms: C_1  and  C_19 
REMARK    3  A    between atoms: C_1  and  N_15 
REMARK       I    between atoms: C_2  and  N_3 
REMARK    4  A    between atoms: C_4  and  C_6 
REMARK    5  A    between atoms: Se_17  and  C_18 
REMARK    6  A    between atoms: C_18  and  C_19 
ROOT
HETATM    1  C           1     -22.140  -8.153  -0.826  0.00  0.00     0.251 C 
HETATM    2  N           1     -22.415  -9.494  -0.839  0.00  0.00    -0.336 N 
HETATM    3  C           1     -22.643 -10.367   0.310  0.00  0.00     0.188 C 
HETATM    4  C           1     -23.788 -11.259  -0.135  0.00  0.00     0.038 C 
HETATM    5  C           1     -23.721 -11.262  -1.658  0.00  0.00     0.022 C 
HETATM    6  C           1     -22.547 -10.364  -2.005  0.00  0.00     0.127 C 
HETATM    7  O           1     -22.061  -7.563   0.225  0.00  0.00    -0.271 OA
ENDROOT
BRANCH   1   8
HETATM    8  C           1     -21.933  -7.413  -2.124  0.00  0.00     0.275 C 
BRANCH   8   9
HETATM    9  C           1     -20.457  -7.441  -2.497  0.00  0.00     0.042 C 
BRANCH   9  10
HETATM   10  C           1     -20.276  -8.213  -3.798  0.00  0.00     0.003 C 
BRANCH  10  11
HETATM   11 Se           1     -21.538  -7.551  -5.127  0.00  0.00     0.000 Se
HETATM   12  C           1     -20.725  -5.784  -5.258  0.00  0.00     0.000 C 
ENDBRANCH  10  11
ENDBRANCH   9  10
ENDBRANCH   8   9
BRANCH   8  13
HETATM   13  N           1     -22.381  -5.990  -1.965  0.00  0.00    -0.067 N 
HETATM   14  H           1     -22.638  -5.814  -0.967  0.00  0.00     0.275 HD
HETATM   15  H           1     -21.604  -5.348  -2.243  0.00  0.00     0.275 HD
HETATM   16  H           1     -23.212  -5.816  -2.575  0.00  0.00     0.275 HD
ENDBRANCH   8  13
ENDBRANCH   1   8
BRANCH   3  17
HETATM   17  C           1     -21.412 -11.184   0.616  0.00  0.00     0.196 C 
HETATM   18  O           1     -21.513 -12.412   0.827  0.00  0.00    -0.646 OA
HETATM   19  O           1     -20.291 -10.633   0.658  0.00  0.00    -0.646 OA
ENDBRANCH   3  17
TORSDOF 6
ENDMDL
MODEL 6
REMARK VINA RESULT:      -5.0     17.082     19.714
REMARK  6 active torsions:
REMARK  status: ('A' for Active; 'I' for Inactive)
REMARK    1  A    between atoms: C_1  and  C_2 
REMARK    2  A    between atoms: C_1  and  C_19 
REMARK    3  A    between atoms: C_1  and  N_15 
REMARK       I    between atoms: C_2  and  N_3 
REMARK    4  A    between atoms: C_4  and  C_6 
REMARK    5  A    between atoms: Se_17  and  C_18 
REMARK    6  A    between atoms: C_18  and  C_19 
ROOT
HETATM    1  C           1     -20.875  -8.132  -2.308  0.00  0.00     0.251 C 
HETATM    2  N           1     -21.380  -8.547  -1.105  0.00  0.00    -0.336 N 
HETATM    3  C           1     -20.768  -9.472  -0.154  0.00  0.00     0.188 C 
HETATM    4  C           1     -21.064  -8.847   1.198  0.00  0.00     0.038 C 
HETATM    5  C           1     -22.304  -7.989   0.977  0.00  0.00     0.022 C 
HETATM    6  C           1     -22.647  -8.160  -0.492  0.00  0.00     0.127 C 
HETATM    7  O           1     -19.804  -8.542  -2.687  0.00  0.00    -0.271 OA
ENDROOT
BRANCH   1   8
HETATM    8  C           1     -21.657  -7.164  -3.161  0.00  0.00     0.275 C 
BRANCH   8   9
HETATM    9  C           1     -21.080  -7.148  -4.570  0.00  0.00     0.042 C 
BRANCH   9  10
HETATM   10  C           1     -21.651  -5.963  -5.339  0.00  0.00     0.003 C 
BRANCH  10  11
HETATM   11 Se           1     -20.195  -4.823  -5.953  0.00  0.00     0.000 Se
HETATM   12  C           1     -21.310  -3.766  -7.153  0.00  0.00     0.000 C 
ENDBRANCH  10  11
ENDBRANCH   9  10
ENDBRANCH   8   9
BRANCH   8  13
HETATM   13  N           1     -21.566  -5.790  -2.568  0.00  0.00    -0.067 N 
HETATM   14  H           1     -20.571  -5.469  -2.578  0.00  0.00     0.275 HD
HETATM   15  H           1     -22.150  -5.129  -3.130  0.00  0.00     0.275 HD
HETATM   16  H           1     -21.916  -5.811  -1.583  0.00  0.00     0.275 HD
ENDBRANCH   8  13
ENDBRANCH   1   8
BRANCH   3  17
HETATM   17  C           1     -21.390 -10.842  -0.262  0.00  0.00     0.196 C 
HETATM   18  O           1     -21.721 -11.461   0.772  0.00  0.00    -0.646 OA
HETATM   19  O           1     -21.574 -11.358  -1.386  0.00  0.00    -0.646 OA
ENDBRANCH   3  17
TORSDOF 6
ENDMDL
MODEL 7
REMARK VINA RESULT:      -4.9     14.253     15.940
REMARK  6 active torsions:
REMARK  status: ('A' for Active; 'I' for Inactive)
REMARK    1  A    between atoms: C_1  and  C_2 
REMARK    2  A    between atoms: C_1  and  C_19 
REMARK    3  A    between atoms: C_1  and  N_15 
REMARK       I    between atoms: C_2  and  N_3 
REMARK    4  A    between atoms: C_4  and  C_6 
REMARK    5  A    between atoms: Se_17  and  C_18 
REMARK    6  A    between atoms: C_18  and  C_19 
ROOT
HETATM    1  C           1     -21.221  -6.024  -6.612  0.00  0.00     0.251 C 
HETATM    2  N           1     -21.656  -5.152  -7.574  0.00  0.00    -0.336 N 
HETATM    3  C           1     -21.297  -5.139  -8.990  0.00  0.00     0.188 C 
HETATM    4  C           1     -22.607  -4.825  -9.691  0.00  0.00     0.038 C 
HETATM    5  C           1     -23.449  -4.093  -8.652  0.00  0.00     0.022 C 
HETATM    6  C           1     -22.581  -4.034  -7.408  0.00  0.00     0.127 C 
HETATM    7  O           1     -20.450  -6.907  -6.901  0.00  0.00    -0.271 OA
ENDROOT
BRANCH   1   8
HETATM    8  C           1     -21.705  -5.880  -5.190  0.00  0.00     0.275 C 
BRANCH   8   9
HETATM    9  C           1     -20.911  -6.813  -4.286  0.00  0.00     0.042 C 
BRANCH   9  10
HETATM   10  C           1     -21.488  -6.769  -2.877  0.00  0.00     0.003 C 
BRANCH  10  11
HETATM   11 Se           1     -21.375  -8.540  -2.071  0.00  0.00     0.000 Se
HETATM   12  C           1     -21.666  -7.909  -0.250  0.00  0.00     0.000 C 
ENDBRANCH  10  11
ENDBRANCH   9  10
ENDBRANCH   8   9
BRANCH   8  13
HETATM   13  N           1     -23.161  -6.236  -5.119  0.00  0.00    -0.067 N 
HETATM   14  H           1     -23.265  -7.275  -5.065  0.00  0.00     0.275 HD
HETATM   15  H           1     -23.585  -5.799  -4.269  0.00  0.00     0.275 HD
HETATM   16  H           1     -23.648  -5.880  -5.973  0.00  0.00     0.275 HD
ENDBRANCH   8  13
ENDBRANCH   1   8
BRANCH   3  17
HETATM   17  C           1     -20.267  -4.073  -9.272  0.00  0.00     0.196 C 
HETATM   18  O           1     -19.419  -3.777  -8.402  0.00  0.00    -0.646 OA
HETATM   19  O           1     -20.262  -3.485 -10.375  0.00  0.00    -0.646 OA
ENDBRANCH   3  17
TORSDOF 6
ENDMDL
MODEL 8
REMARK VINA RESULT:      -4.9     25.131     26.391
REMARK  6 active torsions:
REMARK  status: ('A' for Active; 'I' for Inactive)
REMARK    1  A    between atoms: C_1  and  C_2 
REMARK    2  A    between atoms: C_1  and  C_19 
REMARK    3  A    between atoms: C_1  and  N_15 
REMARK       I    between atoms: C_2  and  N_3 
REMARK    4  A    between atoms: C_4  and  C_6 
REMARK    5  A    between atoms: Se_17  and  C_18 
REMARK    6  A    between atoms: C_18  and  C_19 
ROOT
HETATM    1  C           1     -11.171   6.492 -21.428  0.00  0.00     0.251 C 
HETATM    2  N           1     -12.136   5.521 -21.403  0.00  0.00    -0.336 N 
HETATM    3  C           1     -12.918   5.015 -22.528  0.00  0.00     0.188 C 
HETATM    4  C           1     -12.977   3.517 -22.281  0.00  0.00     0.038 C 
HETATM    5  C           1     -12.778   3.354 -20.778  0.00  0.00     0.022 C 
HETATM    6  C           1     -12.606   4.765 -20.246  0.00  0.00     0.127 C 
HETATM    7  O           1     -10.886   7.034 -22.469  0.00  0.00    -0.271 OA
ENDROOT
BRANCH   1   8
HETATM    8  C           1     -10.465   6.887 -20.155  0.00  0.00     0.275 C 
BRANCH   8   9
HETATM    9  C           1     -10.119   8.369 -20.203  0.00  0.00     0.042 C 
BRANCH   9  10
HETATM   10  C           1     -10.639   9.053 -18.945  0.00  0.00     0.003 C 
BRANCH  10  11
HETATM   11 Se           1     -12.535   9.447 -19.155  0.00  0.00     0.000 Se
HETATM   12  C           1     -12.358  10.142 -20.967  0.00  0.00     0.000 C 
ENDBRANCH  10  11
ENDBRANCH   9  10
ENDBRANCH   8   9
BRANCH   8  13
HETATM   13  N           1      -9.205   6.085 -20.013  0.00  0.00    -0.067 N 
HETATM   14  H           1      -8.724   6.023 -20.939  0.00  0.00     0.275 HD
HETATM   15  H           1      -8.573   6.549 -19.323  0.00  0.00     0.275 HD
HETATM   16  H           1      -9.440   5.123 -19.678  0.00  0.00     0.275 HD
ENDBRANCH   8  13
ENDBRANCH   1   8
BRANCH   3  17
HETATM   17  C           1     -14.302   5.615 -22.532  0.00  0.00     0.196 C 
HETATM   18  O           1     -14.445   6.856 -22.527  0.00  0.00    -0.646 OA
HETATM   19  O           1     -15.306   4.870 -22.541  0.00  0.00    -0.646 OA
ENDBRANCH   3  17
TORSDOF 6
ENDMDL
MODEL 9
REMARK VINA RESULT:      -4.8     19.250     20.573
REMARK  6 active torsions:
REMARK  status: ('A' for Active; 'I' for Inactive)
REMARK    1  A    between atoms: C_1  and  C_2 
REMARK    2  A    between atoms: C_1  and  C_19 
REMARK    3  A    between atoms: C_1  and  N_15 
REMARK       I    between atoms: C_2  and  N_3 
REMARK    4  A    between atoms: C_4  and  C_6 
REMARK    5  A    between atoms: Se_17  and  C_18 
REMARK    6  A    between atoms: C_18  and  C_19 
ROOT
HETATM    1  C           1     -20.892 -10.677   0.329  0.00  0.00     0.251 C 
HETATM    2  N           1     -21.179  -9.734  -0.621  0.00  0.00    -0.336 N 
HETATM    3  C           1     -21.073  -8.283  -0.495  0.00  0.00     0.188 C 
HETATM    4  C           1     -20.499  -7.845  -1.831  0.00  0.00     0.038 C 
HETATM    5  C           1     -20.889  -8.946  -2.811  0.00  0.00     0.022 C 
HETATM    6  C           1     -21.658  -9.960  -1.982  0.00  0.00     0.127 C 
HETATM    7  O           1     -20.501 -10.336   1.420  0.00  0.00    -0.271 OA
ENDROOT
BRANCH   1   8
HETATM    8  C           1     -21.064 -12.143   0.014  0.00  0.00     0.275 C 
BRANCH   8   9
HETATM    9  C           1     -21.947 -12.790   1.072  0.00  0.00     0.042 C 
BRANCH   9  10
HETATM   10  C           1     -23.411 -12.597   0.700  0.00  0.00     0.003 C 
BRANCH  10  11
HETATM   11 Se           1     -23.682 -13.105  -1.161  0.00  0.00     0.000 Se
HETATM   12  C           1     -24.376 -14.879  -0.746  0.00  0.00     0.000 C 
ENDBRANCH  10  11
ENDBRANCH   9  10
ENDBRANCH   8   9
BRANCH   8  13
HETATM   13  N           1     -19.722 -12.813   0.004  0.00  0.00    -0.067 N 
HETATM   14  H           1     -19.279 -12.694  -0.935  0.00  0.00     0.275 HD
HETATM   15  H           1     -19.112 -12.381   0.734  0.00  0.00     0.275 HD
HETATM   16  H           1     -19.840 -13.832   0.207  0.00  0.00     0.275 HD
ENDBRANCH   8  13
ENDBRANCH   1   8
BRANCH   3  17
HETATM   17  C           1     -22.428  -7.664  -0.262  0.00  0.00     0.196 C 
HETATM   18  O           1     -22.781  -6.664  -0.926  0.00  0.00    -0.646 OA
HETATM   19  O           1     -23.199  -8.149   0.594  0.00  0.00    -0.646 OA
ENDBRANCH   3  17
TORSDOF 6
ENDMDL
