MODEL 1
REMARK VINA RESULT:      -5.6      0.000      0.000
REMARK  9 active torsions:
REMARK  status: ('A' for Active; 'I' for Inactive)
REMARK    1  A    between atoms: O_2  and  C_3 
REMARK    2  A    between atoms: C_3  and  C_17 
REMARK    3  A    between atoms: C_4  and  C_5 
REMARK    4  A    between atoms: C_5  and  C_15 
REMARK    5  A    between atoms: C_5  and  N_7 
REMARK       I    between atoms: N_7  and  C_14 
REMARK    6  A    between atoms: N_10  and  C_17 
REMARK    7  A    between atoms: S_12  and  C_13 
REMARK    8  A    between atoms: C_13  and  C_15 
REMARK    9  A    between atoms: C_14  and  C_17 
ROOT
HETATM    1  N           1     -34.836  -1.982 -12.470  0.00  0.00    -0.345 N 
HETATM    2  H           1     -35.417  -2.301 -13.235  0.00  0.00     0.163 HD
HETATM    3  C           1     -33.903  -2.821 -11.923  0.00  0.00     0.251 C 
HETATM    4  O           1     -33.209  -2.439 -11.010  0.00  0.00    -0.271 OA
ENDROOT
BRANCH   3   5
HETATM    5  C           1     -33.741  -4.222 -12.460  0.00  0.00     0.302 C 
BRANCH   5   6
HETATM    6  C           1     -34.709  -5.155 -11.745  0.00  0.00     0.153 C 
HETATM    7  C           1     -33.928  -6.108 -10.850  0.00  0.00     0.042 C 
BRANCH   6   8
HETATM    8  O           1     -35.594  -4.401 -10.963  0.00  0.00    -0.393 OA
HETATM    9  H           1     -36.462  -4.576 -11.285  0.00  0.00     0.210 HD
ENDBRANCH   6   8
ENDBRANCH   5   6
BRANCH   5  10
HETATM   10  N           1     -32.334  -4.687 -12.224  0.00  0.00    -0.064 N 
HETATM   11  H           1     -32.257  -5.096 -11.266  0.00  0.00     0.275 HD
HETATM   12  H           1     -32.084  -5.413 -12.934  0.00  0.00     0.275 HD
HETATM   13  H           1     -31.680  -3.876 -12.310  0.00  0.00     0.275 HD
ENDBRANCH   5  10
ENDBRANCH   3   5
BRANCH   1  14
HETATM   14  C           1     -34.992  -0.636 -11.954  0.00  0.00     0.186 C 
BRANCH  14  15
HETATM   15  C           1     -36.196  -0.582 -11.047  0.00  0.00     0.196 C 
HETATM   16  O           1     -36.899  -1.602 -10.878  0.00  0.00    -0.646 OA
HETATM   17  O           1     -36.492   0.484 -10.463  0.00  0.00    -0.646 OA
ENDBRANCH  14  15
BRANCH  14  18
HETATM   18  C           1     -35.184   0.332 -13.114  0.00  0.00     0.046 C 
BRANCH  18  19
HETATM   19  C           1     -36.345  -0.138 -13.982  0.00  0.00     0.076 C 
BRANCH  19  20
HETATM   20  S           1     -36.201   0.596 -15.635  0.00  0.00    -0.173 SA
HETATM   21  C           1     -35.869  -0.957 -16.514  0.00  0.00     0.089 C 
ENDBRANCH  19  20
ENDBRANCH  18  19
ENDBRANCH  14  18
ENDBRANCH   1  14
TORSDOF 9
ENDMDL
MODEL 2
REMARK VINA RESULT:      -5.5     11.877     13.339
REMARK  9 active torsions:
REMARK  status: ('A' for Active; 'I' for Inactive)
REMARK    1  A    between atoms: O_2  and  C_3 
REMARK    2  A    between atoms: C_3  and  C_17 
REMARK    3  A    between atoms: C_4  and  C_5 
REMARK    4  A    between atoms: C_5  and  C_15 
REMARK    5  A    between atoms: C_5  and  N_7 
REMARK       I    between atoms: N_7  and  C_14 
REMARK    6  A    between atoms: N_10  and  C_17 
REMARK    7  A    between atoms: S_12  and  C_13 
REMARK    8  A    between atoms: C_13  and  C_15 
REMARK    9  A    between atoms: C_14  and  C_17 
ROOT
HETATM    1  N           1     -22.123  -4.752  -8.827  0.00  0.00    -0.345 N 
HETATM    2  H           1     -22.172  -5.729  -9.086  0.00  0.00     0.163 HD
HETATM    3  C           1     -21.497  -4.381  -7.667  0.00  0.00     0.251 C 
HETATM    4  O           1     -21.440  -3.214  -7.358  0.00  0.00    -0.271 OA
ENDROOT
BRANCH   3   5
HETATM    5  C           1     -20.879  -5.429  -6.775  0.00  0.00     0.302 C 
BRANCH   5   6
HETATM    6  C           1     -21.954  -6.041  -5.889  0.00  0.00     0.153 C 
HETATM    7  C           1     -21.460  -6.086  -4.449  0.00  0.00     0.042 C 
BRANCH   6   8
HETATM    8  O           1     -23.117  -5.262  -5.957  0.00  0.00    -0.393 OA
HETATM    9  H           1     -23.421  -5.300  -6.848  0.00  0.00     0.210 HD
ENDBRANCH   6   8
ENDBRANCH   5   6
BRANCH   5  10
HETATM   10  N           1     -19.825  -4.795  -5.916  0.00  0.00    -0.064 N 
HETATM   11  H           1     -19.928  -3.755  -5.947  0.00  0.00     0.275 HD
HETATM   12  H           1     -19.933  -5.127  -4.931  0.00  0.00     0.275 HD
HETATM   13  H           1     -18.878  -5.061  -6.272  0.00  0.00     0.275 HD
ENDBRANCH   5  10
ENDBRANCH   3   5
BRANCH   1  14
HETATM   14  C           1     -22.718  -3.744  -9.683  0.00  0.00     0.186 C 
BRANCH  14  15
HETATM   15  C           1     -24.221  -3.867  -9.636  0.00  0.00     0.196 C 
HETATM   16  O           1     -24.764  -4.976  -9.835  0.00  0.00    -0.646 OA
HETATM   17  O           1     -24.924  -2.861  -9.398  0.00  0.00    -0.646 OA
ENDBRANCH  14  15
BRANCH  14  18
HETATM   18  C           1     -22.236  -3.947 -11.114  0.00  0.00     0.046 C 
BRANCH  18  19
HETATM   19  C           1     -22.477  -2.674 -11.917  0.00  0.00     0.076 C 
BRANCH  19  20
HETATM   20  S           1     -23.862  -2.933 -13.060  0.00  0.00    -0.173 SA
HETATM   21  C           1     -22.916  -2.662 -14.585  0.00  0.00     0.089 C 
ENDBRANCH  19  20
ENDBRANCH  18  19
ENDBRANCH  14  18
ENDBRANCH   1  14
TORSDOF 9
ENDMDL
MODEL 3
REMARK VINA RESULT:      -4.9     12.871     15.064
REMARK  9 active torsions:
REMARK  status: ('A' for Active; 'I' for Inactive)
REMARK    1  A    between atoms: O_2  and  C_3 
REMARK    2  A    between atoms: C_3  and  C_17 
REMARK    3  A    between atoms: C_4  and  C_5 
REMARK    4  A    between atoms: C_5  and  C_15 
REMARK    5  A    between atoms: C_5  and  N_7 
REMARK       I    between atoms: N_7  and  C_14 
REMARK    6  A    between atoms: N_10  and  C_17 
REMARK    7  A    between atoms: S_12  and  C_13 
REMARK    8  A    between atoms: C_13  and  C_15 
REMARK    9  A    between atoms: C_14  and  C_17 
ROOT
HETATM    1  N           1     -21.972  -5.171  -8.560  0.00  0.00    -0.345 N 
HETATM    2  H           1     -21.913  -6.092  -8.975  0.00  0.00     0.163 HD
HETATM    3  C           1     -22.952  -4.302  -8.957  0.00  0.00     0.251 C 
HETATM    4  O           1     -23.022  -3.202  -8.461  0.00  0.00    -0.271 OA
ENDROOT
BRANCH   3   5
HETATM    5  C           1     -23.946  -4.717 -10.014  0.00  0.00     0.302 C 
BRANCH   5   6
HETATM    6  C           1     -23.416  -4.333 -11.389  0.00  0.00     0.153 C 
HETATM    7  C           1     -24.238  -3.177 -11.945  0.00  0.00     0.042 C 
BRANCH   6   8
HETATM    8  O           1     -22.074  -3.941 -11.281  0.00  0.00    -0.393 OA
HETATM    9  H           1     -21.838  -4.019 -10.372  0.00  0.00     0.210 HD
ENDBRANCH   6   8
ENDBRANCH   5   6
BRANCH   5  10
HETATM   10  N           1     -25.253  -4.022  -9.771  0.00  0.00    -0.064 N 
HETATM   11  H           1     -25.910  -4.230 -10.557  0.00  0.00     0.275 HD
HETATM   12  H           1     -25.665  -4.362  -8.873  0.00  0.00     0.275 HD
HETATM   13  H           1     -25.094  -2.991  -9.714  0.00  0.00     0.275 HD
ENDBRANCH   5  10
ENDBRANCH   3   5
BRANCH   1  14
HETATM   14  C           1     -21.017  -4.771  -7.545  0.00  0.00     0.186 C 
BRANCH  14  15
HETATM   15  C           1     -19.748  -4.294  -8.207  0.00  0.00     0.196 C 
HETATM   16  O           1     -18.667  -4.317  -7.578  0.00  0.00    -0.646 OA
HETATM   17  O           1     -19.777  -3.874  -9.385  0.00  0.00    -0.646 OA
ENDBRANCH  14  15
BRANCH  14  18
HETATM   18  C           1     -20.705  -5.960  -6.646  0.00  0.00     0.046 C 
BRANCH  18  19
HETATM   19  C           1     -20.956  -5.579  -5.192  0.00  0.00     0.076 C 
BRANCH  19  20
HETATM   20  S           1     -21.731  -6.972  -4.325  0.00  0.00    -0.173 SA
HETATM   21  C           1     -21.695  -6.224  -2.672  0.00  0.00     0.089 C 
ENDBRANCH  19  20
ENDBRANCH  18  19
ENDBRANCH  14  18
ENDBRANCH   1  14
TORSDOF 9
ENDMDL
MODEL 4
REMARK VINA RESULT:      -4.8     11.885     13.496
REMARK  9 active torsions:
REMARK  status: ('A' for Active; 'I' for Inactive)
REMARK    1  A    between atoms: O_2  and  C_3 
REMARK    2  A    between atoms: C_3  and  C_17 
REMARK    3  A    between atoms: C_4  and  C_5 
REMARK    4  A    between atoms: C_5  and  C_15 
REMARK    5  A    between atoms: C_5  and  N_7 
REMARK       I    between atoms: N_7  and  C_14 
REMARK    6  A    between atoms: N_10  and  C_17 
REMARK    7  A    between atoms: S_12  and  C_13 
REMARK    8  A    between atoms: C_13  and  C_15 
REMARK    9  A    between atoms: C_14  and  C_17 
ROOT
HETATM    1  N           1     -23.317  -4.393  -8.611  0.00  0.00    -0.345 N 
HETATM    2  H           1     -24.041  -5.072  -8.416  0.00  0.00     0.163 HD
HETATM    3  C           1     -22.386  -4.089  -7.655  0.00  0.00     0.251 C 
HETATM    4  O           1     -21.521  -3.278  -7.889  0.00  0.00    -0.271 OA
ENDROOT
BRANCH   3   5
HETATM    5  C           1     -22.440  -4.767  -6.308  0.00  0.00     0.302 C 
BRANCH   5   6
HETATM    6  C           1     -21.349  -5.826  -6.228  0.00  0.00     0.153 C 
HETATM    7  C           1     -21.835  -6.992  -5.377  0.00  0.00     0.042 C 
BRANCH   6   8
HETATM    8  O           1     -21.046  -6.284  -7.517  0.00  0.00    -0.393 OA
HETATM    9  H           1     -20.641  -7.129  -7.420  0.00  0.00     0.210 HD
ENDBRANCH   6   8
ENDBRANCH   5   6
BRANCH   5  10
HETATM   10  N           1     -23.780  -5.416  -6.128  0.00  0.00    -0.064 N 
HETATM   11  H           1     -23.653  -6.375  -5.733  0.00  0.00     0.275 HD
HETATM   12  H           1     -24.360  -4.843  -5.474  0.00  0.00     0.275 HD
HETATM   13  H           1     -24.262  -5.482  -7.054  0.00  0.00     0.275 HD
ENDBRANCH   5  10
ENDBRANCH   3   5
BRANCH   1  14
HETATM   14  C           1     -23.265  -3.741  -9.906  0.00  0.00     0.186 C 
BRANCH  14  15
HETATM   15  C           1     -24.634  -3.215 -10.259  0.00  0.00     0.196 C 
HETATM   16  O           1     -25.395  -2.798  -9.358  0.00  0.00    -0.646 OA
HETATM   17  O           1     -25.008  -3.195 -11.452  0.00  0.00    -0.646 OA
ENDBRANCH  14  15
BRANCH  14  18
HETATM   18  C           1     -22.818  -4.745 -10.961  0.00  0.00     0.046 C 
BRANCH  18  19
HETATM   19  C           1     -21.975  -4.036 -12.013  0.00  0.00     0.076 C 
BRANCH  19  20
HETATM   20  S           1     -20.527  -3.281 -11.221  0.00  0.00    -0.173 SA
HETATM   21  C           1     -19.871  -4.813 -10.503  0.00  0.00     0.089 C 
ENDBRANCH  19  20
ENDBRANCH  18  19
ENDBRANCH  14  18
ENDBRANCH   1  14
TORSDOF 9
ENDMDL
MODEL 5
REMARK VINA RESULT:      -4.8      3.152      5.428
REMARK  9 active torsions:
REMARK  status: ('A' for Active; 'I' for Inactive)
REMARK    1  A    between atoms: O_2  and  C_3 
REMARK    2  A    between atoms: C_3  and  C_17 
REMARK    3  A    between atoms: C_4  and  C_5 
REMARK    4  A    between atoms: C_5  and  C_15 
REMARK    5  A    between atoms: C_5  and  N_7 
REMARK       I    between atoms: N_7  and  C_14 
REMARK    6  A    between atoms: N_10  and  C_17 
REMARK    7  A    between atoms: S_12  and  C_13 
REMARK    8  A    between atoms: C_13  and  C_15 
REMARK    9  A    between atoms: C_14  and  C_17 
ROOT
HETATM    1  N           1     -36.233  -0.928 -12.961  0.00  0.00    -0.345 N 
HETATM    2  H           1     -36.872  -1.703 -13.083  0.00  0.00     0.163 HD
HETATM    3  C           1     -36.033  -0.037 -13.980  0.00  0.00     0.251 C 
HETATM    4  O           1     -35.269   0.888 -13.833  0.00  0.00    -0.271 OA
ENDROOT
BRANCH   3   5
HETATM    5  C           1     -36.766  -0.209 -15.287  0.00  0.00     0.302 C 
BRANCH   5   6
HETATM    6  C           1     -35.779  -0.613 -16.374  0.00  0.00     0.153 C 
HETATM    7  C           1     -35.104  -1.922 -15.986  0.00  0.00     0.042 C 
BRANCH   6   8
HETATM    8  O           1     -36.462  -0.783 -17.587  0.00  0.00    -0.393 OA
HETATM    9  H           1     -35.811  -0.807 -18.267  0.00  0.00     0.210 HD
ENDBRANCH   6   8
ENDBRANCH   5   6
BRANCH   5  10
HETATM   10  N           1     -37.424   1.085 -15.666  0.00  0.00    -0.064 N 
HETATM   11  H           1     -36.822   1.594 -16.353  0.00  0.00     0.275 HD
HETATM   12  H           1     -38.356   0.889 -16.097  0.00  0.00     0.275 HD
HETATM   13  H           1     -37.551   1.674 -14.811  0.00  0.00     0.275 HD
ENDBRANCH   5  10
ENDBRANCH   3   5
BRANCH   1  14
HETATM   14  C           1     -35.527  -0.762 -11.705  0.00  0.00     0.186 C 
BRANCH  14  15
HETATM   15  C           1     -34.350  -1.705 -11.661  0.00  0.00     0.196 C 
HETATM   16  O           1     -34.166  -2.520 -12.591  0.00  0.00    -0.646 OA
HETATM   17  O           1     -33.558  -1.672 -10.694  0.00  0.00    -0.646 OA
ENDBRANCH  14  15
BRANCH  14  18
HETATM   18  C           1     -36.470  -1.072 -10.549  0.00  0.00     0.046 C 
BRANCH  18  19
HETATM   19  C           1     -37.599  -0.049 -10.526  0.00  0.00     0.076 C 
BRANCH  19  20
HETATM   20  S           1     -37.344   1.103  -9.147  0.00  0.00    -0.173 SA
HETATM   21  C           1     -37.958  -0.004  -7.847  0.00  0.00     0.089 C 
ENDBRANCH  19  20
ENDBRANCH  18  19
ENDBRANCH  14  18
ENDBRANCH   1  14
TORSDOF 9
ENDMDL
MODEL 6
REMARK VINA RESULT:      -4.6     14.226     16.050
REMARK  9 active torsions:
REMARK  status: ('A' for Active; 'I' for Inactive)
REMARK    1  A    between atoms: O_2  and  C_3 
REMARK    2  A    between atoms: C_3  and  C_17 
REMARK    3  A    between atoms: C_4  and  C_5 
REMARK    4  A    between atoms: C_5  and  C_15 
REMARK    5  A    between atoms: C_5  and  N_7 
REMARK       I    between atoms: N_7  and  C_14 
REMARK    6  A    between atoms: N_10  and  C_17 
REMARK    7  A    between atoms: S_12  and  C_13 
REMARK    8  A    between atoms: C_13  and  C_15 
REMARK    9  A    between atoms: C_14  and  C_17 
ROOT
HETATM    1  N           1     -20.988  -5.516  -4.974  0.00  0.00    -0.345 N 
HETATM    2  H           1     -20.504  -4.766  -4.497  0.00  0.00     0.163 HD
HETATM    3  C           1     -21.493  -6.569  -4.259  0.00  0.00     0.251 C 
HETATM    4  O           1     -22.071  -7.464  -4.829  0.00  0.00    -0.271 OA
ENDROOT
BRANCH   3   5
HETATM    5  C           1     -21.327  -6.612  -2.760  0.00  0.00     0.302 C 
BRANCH   5   6
HETATM    6  C           1     -21.386  -8.057  -2.284  0.00  0.00     0.153 C 
HETATM    7  C           1     -19.970  -8.597  -2.127  0.00  0.00     0.042 C 
BRANCH   6   8
HETATM    8  O           1     -22.046  -8.116  -1.049  0.00  0.00    -0.393 OA
HETATM    9  H           1     -21.383  -8.210  -0.387  0.00  0.00     0.210 HD
ENDBRANCH   6   8
ENDBRANCH   5   6
BRANCH   5  10
HETATM   10  N           1     -22.430  -5.828  -2.113  0.00  0.00    -0.064 N 
HETATM   11  H           1     -22.260  -5.771  -1.083  0.00  0.00     0.275 HD
HETATM   12  H           1     -22.454  -4.864  -2.516  0.00  0.00     0.275 HD
HETATM   13  H           1     -23.345  -6.303  -2.289  0.00  0.00     0.275 HD
ENDBRANCH   5  10
ENDBRANCH   3   5
BRANCH   1  14
HETATM   14  C           1     -21.148  -5.476  -6.415  0.00  0.00     0.186 C 
BRANCH  14  15
HETATM   15  C           1     -19.812  -5.714  -7.075  0.00  0.00     0.196 C 
HETATM   16  O           1     -19.324  -6.865  -7.101  0.00  0.00    -0.646 OA
HETATM   17  O           1     -19.194  -4.761  -7.597  0.00  0.00    -0.646 OA
ENDBRANCH  14  15
BRANCH  14  18
HETATM   18  C           1     -21.683  -4.111  -6.827  0.00  0.00     0.046 C 
BRANCH  18  19
HETATM   19  C           1     -22.994  -4.286  -7.584  0.00  0.00     0.076 C 
BRANCH  19  20
HETATM   20  S           1     -22.749  -3.852  -9.329  0.00  0.00    -0.173 SA
HETATM   21  C           1     -24.475  -3.407  -9.668  0.00  0.00     0.089 C 
ENDBRANCH  19  20
ENDBRANCH  18  19
ENDBRANCH  14  18
ENDBRANCH   1  14
TORSDOF 9
ENDMDL
MODEL 7
REMARK VINA RESULT:      -4.5     15.317     17.254
REMARK  9 active torsions:
REMARK  status: ('A' for Active; 'I' for Inactive)
REMARK    1  A    between atoms: O_2  and  C_3 
REMARK    2  A    between atoms: C_3  and  C_17 
REMARK    3  A    between atoms: C_4  and  C_5 
REMARK    4  A    between atoms: C_5  and  C_15 
REMARK    5  A    between atoms: C_5  and  N_7 
REMARK       I    between atoms: N_7  and  C_14 
REMARK    6  A    between atoms: N_10  and  C_17 
REMARK    7  A    between atoms: S_12  and  C_13 
REMARK    8  A    between atoms: C_13  and  C_15 
REMARK    9  A    between atoms: C_14  and  C_17 
ROOT
HETATM    1  N           1     -21.009  -6.813  -6.157  0.00  0.00    -0.345 N 
HETATM    2  H           1     -21.395  -7.503  -6.788  0.00  0.00     0.163 HD
HETATM    3  C           1     -20.979  -5.493  -6.520  0.00  0.00     0.251 C 
HETATM    4  O           1     -20.519  -4.669  -5.765  0.00  0.00    -0.271 OA
ENDROOT
BRANCH   3   5
HETATM    5  C           1     -21.521  -5.068  -7.862  0.00  0.00     0.302 C 
BRANCH   5   6
HETATM    6  C           1     -20.363  -4.787  -8.811  0.00  0.00     0.153 C 
HETATM    7  C           1     -20.902  -4.188 -10.104  0.00  0.00     0.042 C 
BRANCH   6   8
HETATM    8  O           1     -19.476  -3.883  -8.213  0.00  0.00    -0.393 OA
HETATM    9  H           1     -18.816  -3.681  -8.854  0.00  0.00     0.210 HD
ENDBRANCH   6   8
ENDBRANCH   5   6
BRANCH   5  10
HETATM   10  N           1     -22.344  -3.825  -7.698  0.00  0.00    -0.064 N 
HETATM   11  H           1     -22.220  -3.210  -8.534  0.00  0.00     0.275 HD
HETATM   12  H           1     -23.352  -4.085  -7.603  0.00  0.00     0.275 HD
HETATM   13  H           1     -22.034  -3.313  -6.840  0.00  0.00     0.275 HD
ENDBRANCH   5  10
ENDBRANCH   3   5
BRANCH   1  14
HETATM   14  C           1     -20.488  -7.221  -4.866  0.00  0.00     0.186 C 
BRANCH  14  15
HETATM   15  C           1     -19.722  -8.512  -5.019  0.00  0.00     0.196 C 
HETATM   16  O           1     -19.007  -8.699  -6.028  0.00  0.00    -0.646 OA
HETATM   17  O           1     -19.801  -9.394  -4.137  0.00  0.00    -0.646 OA
ENDBRANCH  14  15
BRANCH  14  18
HETATM   18  C           1     -21.644  -7.428  -3.896  0.00  0.00     0.046 C 
BRANCH  18  19
HETATM   19  C           1     -21.667  -6.289  -2.884  0.00  0.00     0.076 C 
BRANCH  19  20
HETATM   20  S           1     -22.214  -6.922  -1.273  0.00  0.00    -0.173 SA
HETATM   21  C           1     -20.858  -8.108  -1.054  0.00  0.00     0.089 C 
ENDBRANCH  19  20
ENDBRANCH  18  19
ENDBRANCH  14  18
ENDBRANCH   1  14
TORSDOF 9
ENDMDL
MODEL 8
REMARK VINA RESULT:      -4.3     15.082     17.270
REMARK  9 active torsions:
REMARK  status: ('A' for Active; 'I' for Inactive)
REMARK    1  A    between atoms: O_2  and  C_3 
REMARK    2  A    between atoms: C_3  and  C_17 
REMARK    3  A    between atoms: C_4  and  C_5 
REMARK    4  A    between atoms: C_5  and  C_15 
REMARK    5  A    between atoms: C_5  and  N_7 
REMARK       I    between atoms: N_7  and  C_14 
REMARK    6  A    between atoms: N_10  and  C_17 
REMARK    7  A    between atoms: S_12  and  C_13 
REMARK    8  A    between atoms: C_13  and  C_15 
REMARK    9  A    between atoms: C_14  and  C_17 
ROOT
HETATM    1  N           1     -20.841  -6.610  -3.992  0.00  0.00    -0.345 N 
HETATM    2  H           1     -20.473  -5.747  -3.610  0.00  0.00     0.163 HD
HETATM    3  C           1     -20.889  -6.792  -5.348  0.00  0.00     0.251 C 
HETATM    4  O           1     -21.327  -7.822  -5.804  0.00  0.00    -0.271 OA
ENDROOT
BRANCH   3   5
HETATM    5  C           1     -20.395  -5.708  -6.273  0.00  0.00     0.302 C 
BRANCH   5   6
HETATM    6  C           1     -21.562  -4.823  -6.689  0.00  0.00     0.153 C 
HETATM    7  C           1     -21.738  -4.892  -8.200  0.00  0.00     0.042 C 
BRANCH   6   8
HETATM    8  O           1     -22.734  -5.269  -6.063  0.00  0.00    -0.393 OA
HETATM    9  H           1     -22.670  -6.207  -5.997  0.00  0.00     0.210 HD
ENDBRANCH   6   8
ENDBRANCH   5   6
BRANCH   5  10
HETATM   10  N           1     -19.783  -6.332  -7.493  0.00  0.00    -0.064 N 
HETATM   11  H           1     -18.755  -6.147  -7.501  0.00  0.00     0.275 HD
HETATM   12  H           1     -19.951  -7.364  -7.476  0.00  0.00     0.275 HD
HETATM   13  H           1     -20.218  -5.922  -8.350  0.00  0.00     0.275 HD
ENDBRANCH   5  10
ENDBRANCH   3   5
BRANCH   1  14
HETATM   14  C           1     -21.316  -7.652  -3.103  0.00  0.00     0.186 C 
BRANCH  14  15
HETATM   15  C           1     -22.054  -7.027  -1.945  0.00  0.00     0.196 C 
HETATM   16  O           1     -22.138  -7.636  -0.856  0.00  0.00    -0.646 OA
HETATM   17  O           1     -22.582  -5.901  -2.074  0.00  0.00    -0.646 OA
ENDBRANCH  14  15
BRANCH  14  18
HETATM   18  C           1     -20.130  -8.451  -2.579  0.00  0.00     0.046 C 
BRANCH  18  19
HETATM   19  C           1     -20.130  -9.836  -3.214  0.00  0.00     0.076 C 
BRANCH  19  20
HETATM   20  S           1     -21.836 -10.437  -3.357  0.00  0.00    -0.173 SA
HETATM   21  C           1     -21.603 -11.329  -4.921  0.00  0.00     0.089 C 
ENDBRANCH  19  20
ENDBRANCH  18  19
ENDBRANCH  14  18
ENDBRANCH   1  14
TORSDOF 9
ENDMDL
MODEL 9
REMARK VINA RESULT:      -4.3     13.427     15.636
REMARK  9 active torsions:
REMARK  status: ('A' for Active; 'I' for Inactive)
REMARK    1  A    between atoms: O_2  and  C_3 
REMARK    2  A    between atoms: C_3  and  C_17 
REMARK    3  A    between atoms: C_4  and  C_5 
REMARK    4  A    between atoms: C_5  and  C_15 
REMARK    5  A    between atoms: C_5  and  N_7 
REMARK       I    between atoms: N_7  and  C_14 
REMARK    6  A    between atoms: N_10  and  C_17 
REMARK    7  A    between atoms: S_12  and  C_13 
REMARK    8  A    between atoms: C_13  and  C_15 
REMARK    9  A    between atoms: C_14  and  C_17 
ROOT
HETATM    1  N           1     -21.610  -5.220  -7.775  0.00  0.00    -0.345 N 
HETATM    2  H           1     -21.904  -5.950  -8.411  0.00  0.00     0.163 HD
HETATM    3  C           1     -21.745  -3.905  -8.131  0.00  0.00     0.251 C 
HETATM    4  O           1     -21.394  -3.035  -7.370  0.00  0.00    -0.271 OA
ENDROOT
BRANCH   3   5
HETATM    5  C           1     -22.333  -3.544  -9.472  0.00  0.00     0.302 C 
BRANCH   5   6
HETATM    6  C           1     -23.839  -3.761  -9.442  0.00  0.00     0.153 C 
HETATM    7  C           1     -24.194  -4.973 -10.295  0.00  0.00     0.042 C 
BRANCH   6   8
HETATM    8  O           1     -24.254  -3.983  -8.122  0.00  0.00    -0.393 OA
HETATM    9  H           1     -24.064  -3.197  -7.639  0.00  0.00     0.210 HD
ENDBRANCH   6   8
ENDBRANCH   5   6
BRANCH   5  10
HETATM   10  N           1     -21.724  -4.411 -10.535  0.00  0.00    -0.064 N 
HETATM   11  H           1     -20.690  -4.464 -10.392  0.00  0.00     0.275 HD
HETATM   12  H           1     -22.134  -5.371 -10.477  0.00  0.00     0.275 HD
HETATM   13  H           1     -21.925  -4.002 -11.476  0.00  0.00     0.275 HD
ENDBRANCH   5  10
ENDBRANCH   3   5
BRANCH   1  14
HETATM   14  C           1     -21.044  -5.568  -6.485  0.00  0.00     0.186 C 
BRANCH  14  15
HETATM   15  C           1     -19.588  -5.923  -6.654  0.00  0.00     0.196 C 
HETATM   16  O           1     -19.237  -7.123  -6.688  0.00  0.00    -0.646 OA
HETATM   17  O           1     -18.732  -5.018  -6.759  0.00  0.00    -0.646 OA
ENDBRANCH  14  15
BRANCH  14  18
HETATM   18  C           1     -21.795  -6.760  -5.907  0.00  0.00     0.046 C 
BRANCH  18  19
HETATM   19  C           1     -21.994  -6.559  -4.410  0.00  0.00     0.076 C 
BRANCH  19  20
HETATM   20  S           1     -21.156  -7.889  -3.504  0.00  0.00    -0.173 SA
HETATM   21  C           1     -21.282  -9.135  -4.818  0.00  0.00     0.089 C 
ENDBRANCH  19  20
ENDBRANCH  18  19
ENDBRANCH  14  18
ENDBRANCH   1  14
TORSDOF 9
ENDMDL
