MODEL 1
REMARK VINA RESULT:      -6.5      0.000      0.000
REMARK  9 active torsions:
REMARK  status: ('A' for Active; 'I' for Inactive)
REMARK    1  A    between atoms: C_1  and  C_16 
REMARK    2  A    between atoms: C_1  and  O_13 
REMARK    3  A    between atoms: C_2  and  C_4 
REMARK    4  A    between atoms: C_4  and  C_21 
REMARK    5  A    between atoms: C_4  and  N_11 
REMARK       I    between atoms: C_7  and  N_11 
REMARK    6  A    between atoms: C_7  and  C_16 
REMARK       I    between atoms: C_12  and  N_17 
REMARK    7  A    between atoms: C_12  and  C_20 
REMARK    8  A    between atoms: C_16  and  N_19 
REMARK    9  A    between atoms: C_20  and  C_21 
ROOT
HETATM    1  H           1     -22.003  -5.688  -9.296  0.00  0.00     0.163 HD
HETATM    2  C           1     -21.479  -4.382  -7.779  0.00  0.00     0.251 C 
HETATM    3  N           1     -22.033  -4.727  -8.982  0.00  0.00    -0.345 N 
HETATM    4  O           1     -21.515  -3.234  -7.404  0.00  0.00    -0.271 OA
ENDROOT
BRANCH   3   5
HETATM    5  C           1     -22.662  -3.714  -9.808  0.00  0.00     0.186 C 
BRANCH   5   6
HETATM    6  C           1     -24.161  -3.861  -9.728  0.00  0.00     0.196 C 
HETATM    7  O           1     -24.873  -2.871  -9.455  0.00  0.00    -0.646 OA
HETATM    8  O           1     -24.692  -4.974  -9.934  0.00  0.00    -0.646 OA
ENDBRANCH   5   6
BRANCH   5   9
HETATM    9  C           1     -22.210  -3.884 -11.252  0.00  0.00     0.045 C 
BRANCH   9  10
HETATM   10  C           1     -22.461  -2.593 -12.019  0.00  0.00     0.105 C 
BRANCH  10  11
HETATM   11  C           1     -23.244  -2.896 -13.273  0.00  0.00     0.215 C 
HETATM   12  O           1     -24.444  -3.027 -13.220  0.00  0.00    -0.274 OA
HETATM   13  N           1     -22.594  -3.022 -14.471  0.00  0.00    -0.370 N 
HETATM   14  H           1     -23.119  -3.226 -15.313  0.00  0.00     0.159 HD
HETATM   15  H           1     -21.589  -2.912 -14.516  0.00  0.00     0.159 HD
ENDBRANCH  10  11
ENDBRANCH   9  10
ENDBRANCH   5   9
ENDBRANCH   3   5
BRANCH   2  16
HETATM   16  C           1     -20.826  -5.435  -6.919  0.00  0.00     0.302 C 
BRANCH  16  17
HETATM   17  C           1     -21.850  -6.009  -5.950  0.00  0.00     0.153 C 
HETATM   18  C           1     -21.294  -5.957  -4.533  0.00  0.00     0.042 C 
BRANCH  17  19
HETATM   19  O           1     -23.031  -5.256  -6.016  0.00  0.00    -0.393 OA
HETATM   20  H           1     -23.631  -5.632  -5.394  0.00  0.00     0.210 HD
ENDBRANCH  17  19
ENDBRANCH  16  17
BRANCH  16  21
HETATM   21  N           1     -19.698  -4.819  -6.146  0.00  0.00    -0.064 N 
HETATM   22  H           1     -20.085  -4.163  -5.429  0.00  0.00     0.275 HD
HETATM   23  H           1     -19.149  -5.570  -5.668  0.00  0.00     0.275 HD
HETATM   24  H           1     -19.074  -4.294  -6.798  0.00  0.00     0.275 HD
ENDBRANCH  16  21
ENDBRANCH   2  16
TORSDOF 9
ENDMDL
MODEL 2
REMARK VINA RESULT:      -5.9      9.343     11.504
REMARK  9 active torsions:
REMARK  status: ('A' for Active; 'I' for Inactive)
REMARK    1  A    between atoms: C_1  and  C_16 
REMARK    2  A    between atoms: C_1  and  O_13 
REMARK    3  A    between atoms: C_2  and  C_4 
REMARK    4  A    between atoms: C_4  and  C_21 
REMARK    5  A    between atoms: C_4  and  N_11 
REMARK       I    between atoms: C_7  and  N_11 
REMARK    6  A    between atoms: C_7  and  C_16 
REMARK       I    between atoms: C_12  and  N_17 
REMARK    7  A    between atoms: C_12  and  C_20 
REMARK    8  A    between atoms: C_16  and  N_19 
REMARK    9  A    between atoms: C_20  and  C_21 
ROOT
HETATM    1  H           1     -27.334  -8.126 -18.757  0.00  0.00     0.163 HD
HETATM    2  C           1     -28.332  -6.318 -18.635  0.00  0.00     0.251 C 
HETATM    3  N           1     -27.443  -7.210 -19.171  0.00  0.00    -0.345 N 
HETATM    4  O           1     -28.462  -5.223 -19.130  0.00  0.00    -0.271 OA
ENDROOT
BRANCH   3   5
HETATM    5  C           1     -26.657  -6.841 -20.333  0.00  0.00     0.186 C 
BRANCH   5   6
HETATM    6  C           1     -26.474  -8.048 -21.219  0.00  0.00     0.196 C 
HETATM    7  O           1     -25.384  -8.240 -21.799  0.00  0.00    -0.646 OA
HETATM    8  O           1     -27.415  -8.857 -21.376  0.00  0.00    -0.646 OA
ENDBRANCH   5   6
BRANCH   5   9
HETATM    9  C           1     -25.296  -6.329 -19.883  0.00  0.00     0.045 C 
BRANCH   9  10
HETATM   10  C           1     -24.559  -7.432 -19.135  0.00  0.00     0.105 C 
BRANCH  10  11
HETATM   11  C           1     -24.597  -7.147 -17.653  0.00  0.00     0.215 C 
HETATM   12  O           1     -25.270  -6.238 -17.230  0.00  0.00    -0.274 OA
HETATM   13  N           1     -23.869  -7.921 -16.790  0.00  0.00    -0.370 N 
HETATM   14  H           1     -23.894  -7.731 -15.796  0.00  0.00     0.159 HD
HETATM   15  H           1     -23.306  -8.683 -17.145  0.00  0.00     0.159 HD
ENDBRANCH  10  11
ENDBRANCH   9  10
ENDBRANCH   5   9
ENDBRANCH   3   5
BRANCH   2  16
HETATM   16  C           1     -29.150  -6.701 -17.427  0.00  0.00     0.302 C 
BRANCH  16  17
HETATM   17  C           1     -28.354  -6.416 -16.161  0.00  0.00     0.153 C 
HETATM   18  C           1     -29.307  -6.025 -15.039  0.00  0.00     0.042 C 
BRANCH  17  19
HETATM   19  O           1     -27.640  -7.564 -15.788  0.00  0.00    -0.393 OA
HETATM   20  H           1     -26.875  -7.272 -15.323  0.00  0.00     0.210 HD
ENDBRANCH  17  19
ENDBRANCH  16  17
BRANCH  16  21
HETATM   21  N           1     -29.479  -8.163 -17.491  0.00  0.00    -0.064 N 
HETATM   22  H           1     -30.069  -8.423 -16.668  0.00  0.00     0.275 HD
HETATM   23  H           1     -30.003  -8.366 -18.373  0.00  0.00     0.275 HD
HETATM   24  H           1     -28.595  -8.720 -17.476  0.00  0.00     0.275 HD
ENDBRANCH  16  21
ENDBRANCH   2  16
TORSDOF 9
ENDMDL
MODEL 3
REMARK VINA RESULT:      -5.7      2.305      6.492
REMARK  9 active torsions:
REMARK  status: ('A' for Active; 'I' for Inactive)
REMARK    1  A    between atoms: C_1  and  C_16 
REMARK    2  A    between atoms: C_1  and  O_13 
REMARK    3  A    between atoms: C_2  and  C_4 
REMARK    4  A    between atoms: C_4  and  C_21 
REMARK    5  A    between atoms: C_4  and  N_11 
REMARK       I    between atoms: C_7  and  N_11 
REMARK    6  A    between atoms: C_7  and  C_16 
REMARK       I    between atoms: C_12  and  N_17 
REMARK    7  A    between atoms: C_12  and  C_20 
REMARK    8  A    between atoms: C_16  and  N_19 
REMARK    9  A    between atoms: C_20  and  C_21 
ROOT
HETATM    1  H           1     -22.350  -6.213  -8.901  0.00  0.00     0.163 HD
HETATM    2  C           1     -23.075  -4.280  -9.046  0.00  0.00     0.251 C 
HETATM    3  N           1     -22.233  -5.257  -8.588  0.00  0.00    -0.345 N 
HETATM    4  O           1     -22.934  -3.138  -8.673  0.00  0.00    -0.271 OA
ENDROOT
BRANCH   3   5
HETATM    5  C           1     -21.173  -4.924  -7.657  0.00  0.00     0.186 C 
BRANCH   5   6
HETATM    6  C           1     -19.899  -4.657  -8.420  0.00  0.00     0.196 C 
HETATM    7  O           1     -18.887  -4.234  -7.821  0.00  0.00    -0.646 OA
HETATM    8  O           1     -19.856  -4.856  -9.654  0.00  0.00    -0.646 OA
ENDBRANCH   5   6
BRANCH   5   9
HETATM    9  C           1     -20.957  -6.087  -6.697  0.00  0.00     0.045 C 
BRANCH   9  10
HETATM   10  C           1     -20.927  -5.566  -5.267  0.00  0.00     0.105 C 
BRANCH  10  11
HETATM   11  C           1     -21.714  -6.497  -4.376  0.00  0.00     0.215 C 
HETATM   12  O           1     -22.226  -6.077  -3.366  0.00  0.00    -0.274 OA
HETATM   13  N           1     -21.847  -7.817  -4.714  0.00  0.00    -0.370 N 
HETATM   14  H           1     -22.375  -8.441  -4.117  0.00  0.00     0.159 HD
HETATM   15  H           1     -21.418  -8.168  -5.560  0.00  0.00     0.159 HD
ENDBRANCH  10  11
ENDBRANCH   9  10
ENDBRANCH   5   9
ENDBRANCH   3   5
BRANCH   2  16
HETATM   16  C           1     -24.177  -4.625 -10.016  0.00  0.00     0.302 C 
BRANCH  16  17
HETATM   17  C           1     -23.673  -4.452 -11.442  0.00  0.00     0.153 C 
HETATM   18  C           1     -24.230  -3.160 -12.024  0.00  0.00     0.042 C 
BRANCH  17  19
HETATM   19  O           1     -22.272  -4.397 -11.440  0.00  0.00    -0.393 OA
HETATM   20  H           1     -21.975  -4.961 -12.134  0.00  0.00     0.210 HD
ENDBRANCH  17  19
ENDBRANCH  16  17
BRANCH  16  21
HETATM   21  N           1     -25.347  -3.715  -9.786  0.00  0.00    -0.064 N 
HETATM   22  H           1     -26.229  -4.206 -10.061  0.00  0.00     0.275 HD
HETATM   23  H           1     -25.395  -3.455  -8.775  0.00  0.00     0.275 HD
HETATM   24  H           1     -25.235  -2.851 -10.363  0.00  0.00     0.275 HD
ENDBRANCH  16  21
ENDBRANCH   2  16
TORSDOF 9
ENDMDL
MODEL 4
REMARK VINA RESULT:      -5.5      9.996     11.992
REMARK  9 active torsions:
REMARK  status: ('A' for Active; 'I' for Inactive)
REMARK    1  A    between atoms: C_1  and  C_16 
REMARK    2  A    between atoms: C_1  and  O_13 
REMARK    3  A    between atoms: C_2  and  C_4 
REMARK    4  A    between atoms: C_4  and  C_21 
REMARK    5  A    between atoms: C_4  and  N_11 
REMARK       I    between atoms: C_7  and  N_11 
REMARK    6  A    between atoms: C_7  and  C_16 
REMARK       I    between atoms: C_12  and  N_17 
REMARK    7  A    between atoms: C_12  and  C_20 
REMARK    8  A    between atoms: C_16  and  N_19 
REMARK    9  A    between atoms: C_20  and  C_21 
ROOT
HETATM    1  H           1     -28.872  -5.090 -18.294  0.00  0.00     0.163 HD
HETATM    2  C           1     -29.936  -6.852 -18.079  0.00  0.00     0.251 C 
HETATM    3  N           1     -28.809  -6.100 -18.274  0.00  0.00    -0.345 N 
HETATM    4  O           1     -29.860  -8.058 -18.054  0.00  0.00    -0.271 OA
ENDROOT
BRANCH   3   5
HETATM    5  C           1     -27.525  -6.749 -18.451  0.00  0.00     0.186 C 
BRANCH   5   6
HETATM    6  C           1     -26.583  -6.308 -17.357  0.00  0.00     0.196 C 
HETATM    7  O           1     -25.349  -6.324 -17.550  0.00  0.00    -0.646 OA
HETATM    8  O           1     -27.039  -5.928 -16.257  0.00  0.00    -0.646 OA
ENDBRANCH   5   6
BRANCH   5   9
HETATM    9  C           1     -26.945  -6.367 -19.806  0.00  0.00     0.045 C 
BRANCH   9  10
HETATM   10  C           1     -26.795  -7.615 -20.666  0.00  0.00     0.105 C 
BRANCH  10  11
HETATM   11  C           1     -25.330  -7.876 -20.922  0.00  0.00     0.215 C 
HETATM   12  O           1     -24.948  -8.129 -22.040  0.00  0.00    -0.274 OA
HETATM   13  N           1     -24.435  -7.825 -19.888  0.00  0.00    -0.370 N 
HETATM   14  H           1     -23.453  -8.000 -20.059  0.00  0.00     0.159 HD
HETATM   15  H           1     -24.755  -7.613 -18.951  0.00  0.00     0.159 HD
ENDBRANCH  10  11
ENDBRANCH   9  10
ENDBRANCH   5   9
ENDBRANCH   3   5
BRANCH   2  16
HETATM   16  C           1     -31.272  -6.177 -17.893  0.00  0.00     0.302 C 
BRANCH  16  17
HETATM   17  C           1     -31.109  -4.967 -16.984  0.00  0.00     0.153 C 
HETATM   18  C           1     -32.479  -4.382 -16.667  0.00  0.00     0.042 C 
BRANCH  17  19
HETATM   19  O           1     -30.482  -5.358 -15.792  0.00  0.00    -0.393 OA
HETATM   20  H           1     -31.122  -5.831 -15.287  0.00  0.00     0.210 HD
ENDBRANCH  17  19
ENDBRANCH  16  17
BRANCH  16  21
HETATM   21  N           1     -32.236  -7.143 -17.271  0.00  0.00    -0.064 N 
HETATM   22  H           1     -33.159  -6.671 -17.130  0.00  0.00     0.275 HD
HETATM   23  H           1     -32.361  -7.968 -17.900  0.00  0.00     0.275 HD
HETATM   24  H           1     -31.863  -7.462 -16.348  0.00  0.00     0.275 HD
ENDBRANCH  16  21
ENDBRANCH   2  16
TORSDOF 9
ENDMDL
MODEL 5
REMARK VINA RESULT:      -5.5      3.965      8.097
REMARK  9 active torsions:
REMARK  status: ('A' for Active; 'I' for Inactive)
REMARK    1  A    between atoms: C_1  and  C_16 
REMARK    2  A    between atoms: C_1  and  O_13 
REMARK    3  A    between atoms: C_2  and  C_4 
REMARK    4  A    between atoms: C_4  and  C_21 
REMARK    5  A    between atoms: C_4  and  N_11 
REMARK       I    between atoms: C_7  and  N_11 
REMARK    6  A    between atoms: C_7  and  C_16 
REMARK       I    between atoms: C_12  and  N_17 
REMARK    7  A    between atoms: C_12  and  C_20 
REMARK    8  A    between atoms: C_16  and  N_19 
REMARK    9  A    between atoms: C_20  and  C_21 
ROOT
HETATM    1  H           1     -22.544  -6.571  -5.799  0.00  0.00     0.163 HD
HETATM    2  C           1     -21.197  -5.009  -5.967  0.00  0.00     0.251 C 
HETATM    3  N           1     -21.755  -6.106  -5.368  0.00  0.00    -0.345 N 
HETATM    4  O           1     -20.255  -4.454  -5.452  0.00  0.00    -0.271 OA
ENDROOT
BRANCH   3   5
HETATM    5  C           1     -21.217  -6.602  -4.117  0.00  0.00     0.186 C 
BRANCH   5   6
HETATM    6  C           1     -20.397  -7.842  -4.379  0.00  0.00     0.196 C 
HETATM    7  O           1     -20.126  -8.177  -5.552  0.00  0.00    -0.646 OA
HETATM    8  O           1     -19.991  -8.536  -3.421  0.00  0.00    -0.646 OA
ENDBRANCH   5   6
BRANCH   5   9
HETATM    9  C           1     -22.361  -6.939  -3.170  0.00  0.00     0.045 C 
BRANCH   9  10
HETATM   10  C           1     -22.141  -6.239  -1.836  0.00  0.00     0.105 C 
BRANCH  10  11
HETATM   11  C           1     -22.176  -7.256  -0.721  0.00  0.00     0.215 C 
HETATM   12  O           1     -23.157  -7.354  -0.024  0.00  0.00    -0.274 OA
HETATM   13  N           1     -21.095  -8.066  -0.501  0.00  0.00    -0.370 N 
HETATM   14  H           1     -21.119  -8.749   0.246  0.00  0.00     0.159 HD
HETATM   15  H           1     -20.273  -7.984  -1.086  0.00  0.00     0.159 HD
ENDBRANCH  10  11
ENDBRANCH   9  10
ENDBRANCH   5   9
ENDBRANCH   3   5
BRANCH   2  16
HETATM   16  C           1     -21.756  -4.493  -7.269  0.00  0.00     0.302 C 
BRANCH  16  17
HETATM   17  C           1     -21.034  -5.159  -8.432  0.00  0.00     0.153 C 
HETATM   18  C           1     -20.330  -4.098  -9.268  0.00  0.00     0.042 C 
BRANCH  17  19
HETATM   19  O           1     -20.088  -6.068  -7.938  0.00  0.00    -0.393 OA
HETATM   20  H           1     -19.826  -5.755  -7.088  0.00  0.00     0.210 HD
ENDBRANCH  17  19
ENDBRANCH  16  17
BRANCH  16  21
HETATM   21  N           1     -21.558  -3.008  -7.344  0.00  0.00    -0.064 N 
HETATM   22  H           1     -22.472  -2.526  -7.182  0.00  0.00     0.275 HD
HETATM   23  H           1     -20.873  -2.709  -6.612  0.00  0.00     0.275 HD
HETATM   24  H           1     -21.191  -2.752  -8.288  0.00  0.00     0.275 HD
ENDBRANCH  16  21
ENDBRANCH   2  16
TORSDOF 9
ENDMDL
MODEL 6
REMARK VINA RESULT:      -5.3      2.210      3.347
REMARK  9 active torsions:
REMARK  status: ('A' for Active; 'I' for Inactive)
REMARK    1  A    between atoms: C_1  and  C_16 
REMARK    2  A    between atoms: C_1  and  O_13 
REMARK    3  A    between atoms: C_2  and  C_4 
REMARK    4  A    between atoms: C_4  and  C_21 
REMARK    5  A    between atoms: C_4  and  N_11 
REMARK       I    between atoms: C_7  and  N_11 
REMARK    6  A    between atoms: C_7  and  C_16 
REMARK       I    between atoms: C_12  and  N_17 
REMARK    7  A    between atoms: C_12  and  C_20 
REMARK    8  A    between atoms: C_16  and  N_19 
REMARK    9  A    between atoms: C_20  and  C_21 
ROOT
HETATM    1  H           1     -21.809  -4.185  -6.135  0.00  0.00     0.163 HD
HETATM    2  C           1     -21.245  -6.176  -6.180  0.00  0.00     0.251 C 
HETATM    3  N           1     -21.604  -4.976  -6.733  0.00  0.00    -0.345 N 
HETATM    4  O           1     -21.000  -7.120  -6.895  0.00  0.00    -0.271 OA
ENDROOT
BRANCH   3   5
HETATM    5  C           1     -21.692  -4.837  -8.173  0.00  0.00     0.186 C 
BRANCH   5   6
HETATM    6  C           1     -20.430  -4.194  -8.694  0.00  0.00     0.196 C 
HETATM    7  O           1     -20.376  -3.788  -9.875  0.00  0.00    -0.646 OA
HETATM    8  O           1     -19.438  -4.067  -7.943  0.00  0.00    -0.646 OA
ENDBRANCH   5   6
BRANCH   5   9
HETATM    9  C           1     -22.890  -3.968  -8.528  0.00  0.00     0.045 C 
BRANCH   9  10
HETATM   10  C           1     -23.650  -4.597  -9.687  0.00  0.00     0.105 C 
BRANCH  10  11
HETATM   11  C           1     -23.956  -3.541 -10.722  0.00  0.00     0.215 C 
HETATM   12  O           1     -25.093  -3.171 -10.890  0.00  0.00    -0.274 OA
HETATM   13  N           1     -22.943  -3.003 -11.469  0.00  0.00    -0.370 N 
HETATM   14  H           1     -23.147  -2.294 -12.163  0.00  0.00     0.159 HD
HETATM   15  H           1     -21.990  -3.313 -11.328  0.00  0.00     0.159 HD
ENDBRANCH  10  11
ENDBRANCH   9  10
ENDBRANCH   5   9
ENDBRANCH   3   5
BRANCH   2  16
HETATM   16  C           1     -21.152  -6.320  -4.682  0.00  0.00     0.302 C 
BRANCH  16  17
HETATM   17  C           1     -20.669  -7.721  -4.334  0.00  0.00     0.153 C 
HETATM   18  C           1     -20.486  -7.836  -2.826  0.00  0.00     0.042 C 
BRANCH  17  19
HETATM   19  O           1     -21.616  -8.663  -4.762  0.00  0.00    -0.393 OA
HETATM   20  H           1     -21.136  -9.378  -5.145  0.00  0.00     0.210 HD
ENDBRANCH  17  19
ENDBRANCH  16  17
BRANCH  16  21
HETATM   21  N           1     -22.505  -6.094  -4.075  0.00  0.00    -0.064 N 
HETATM   22  H           1     -23.117  -5.599  -4.763  0.00  0.00     0.275 HD
HETATM   23  H           1     -22.935  -7.014  -3.826  0.00  0.00     0.275 HD
HETATM   24  H           1     -22.407  -5.512  -3.213  0.00  0.00     0.275 HD
ENDBRANCH  16  21
ENDBRANCH   2  16
TORSDOF 9
ENDMDL
MODEL 7
REMARK VINA RESULT:      -5.2      5.987      9.131
REMARK  9 active torsions:
REMARK  status: ('A' for Active; 'I' for Inactive)
REMARK    1  A    between atoms: C_1  and  C_16 
REMARK    2  A    between atoms: C_1  and  O_13 
REMARK    3  A    between atoms: C_2  and  C_4 
REMARK    4  A    between atoms: C_4  and  C_21 
REMARK    5  A    between atoms: C_4  and  N_11 
REMARK       I    between atoms: C_7  and  N_11 
REMARK    6  A    between atoms: C_7  and  C_16 
REMARK       I    between atoms: C_12  and  N_17 
REMARK    7  A    between atoms: C_12  and  C_20 
REMARK    8  A    between atoms: C_16  and  N_19 
REMARK    9  A    between atoms: C_20  and  C_21 
ROOT
HETATM    1  H           1     -22.427  -9.440  -2.613  0.00  0.00     0.163 HD
HETATM    2  C           1     -21.525 -10.230  -0.927  0.00  0.00     0.251 C 
HETATM    3  N           1     -21.813  -9.245  -1.833  0.00  0.00    -0.345 N 
HETATM    4  O           1     -20.793  -9.997   0.006  0.00  0.00    -0.271 OA
ENDROOT
BRANCH   3   5
HETATM    5  C           1     -21.240  -7.923  -1.674  0.00  0.00     0.186 C 
BRANCH   5   6
HETATM    6  C           1     -22.318  -6.956  -1.250  0.00  0.00     0.196 C 
HETATM    7  O           1     -23.049  -7.222  -0.272  0.00  0.00    -0.646 OA
HETATM    8  O           1     -22.481  -5.887  -1.879  0.00  0.00    -0.646 OA
ENDBRANCH   5   6
BRANCH   5   9
HETATM    9  C           1     -20.640  -7.468  -2.997  0.00  0.00     0.045 C 
BRANCH   9  10
HETATM   10  C           1     -21.296  -8.227  -4.142  0.00  0.00     0.105 C 
BRANCH  10  11
HETATM   11  C           1     -21.694  -7.257  -5.228  0.00  0.00     0.215 C 
HETATM   12  O           1     -21.217  -7.358  -6.333  0.00  0.00    -0.274 OA
HETATM   13  N           1     -22.594  -6.261  -4.959  0.00  0.00    -0.370 N 
HETATM   14  H           1     -22.861  -5.610  -5.686  0.00  0.00     0.159 HD
HETATM   15  H           1     -22.993  -6.176  -4.032  0.00  0.00     0.159 HD
ENDBRANCH  10  11
ENDBRANCH   9  10
ENDBRANCH   5   9
ENDBRANCH   3   5
BRANCH   2  16
HETATM   16  C           1     -22.122 -11.605  -1.091  0.00  0.00     0.302 C 
BRANCH  16  17
HETATM   17  C           1     -23.502 -11.642  -0.448  0.00  0.00     0.153 C 
HETATM   18  C           1     -23.475 -12.566   0.762  0.00  0.00     0.042 C 
BRANCH  17  19
HETATM   19  O           1     -23.863 -10.350  -0.040  0.00  0.00    -0.393 OA
HETATM   20  H           1     -23.606 -10.266   0.863  0.00  0.00     0.210 HD
ENDBRANCH  17  19
ENDBRANCH  16  17
BRANCH  16  21
HETATM   21  N           1     -21.235 -12.617  -0.426  0.00  0.00    -0.064 N 
HETATM   22  H           1     -20.687 -12.153   0.334  0.00  0.00     0.275 HD
HETATM   23  H           1     -21.821 -13.380  -0.016  0.00  0.00     0.275 HD
HETATM   24  H           1     -20.580 -13.022  -1.132  0.00  0.00     0.275 HD
ENDBRANCH  16  21
ENDBRANCH   2  16
TORSDOF 9
ENDMDL
MODEL 8
REMARK VINA RESULT:      -5.0     10.824     12.144
REMARK  9 active torsions:
REMARK  status: ('A' for Active; 'I' for Inactive)
REMARK    1  A    between atoms: C_1  and  C_16 
REMARK    2  A    between atoms: C_1  and  O_13 
REMARK    3  A    between atoms: C_2  and  C_4 
REMARK    4  A    between atoms: C_4  and  C_21 
REMARK    5  A    between atoms: C_4  and  N_11 
REMARK       I    between atoms: C_7  and  N_11 
REMARK    6  A    between atoms: C_7  and  C_16 
REMARK       I    between atoms: C_12  and  N_17 
REMARK    7  A    between atoms: C_12  and  C_20 
REMARK    8  A    between atoms: C_16  and  N_19 
REMARK    9  A    between atoms: C_20  and  C_21 
ROOT
HETATM    1  H           1     -27.795  -7.742 -16.994  0.00  0.00     0.163 HD
HETATM    2  C           1     -27.720  -6.224 -18.398  0.00  0.00     0.251 C 
HETATM    3  N           1     -28.344  -7.122 -17.575  0.00  0.00    -0.345 N 
HETATM    4  O           1     -28.377  -5.482 -19.091  0.00  0.00    -0.271 OA
ENDROOT
BRANCH   3   5
HETATM    5  C           1     -29.792  -7.185 -17.535  0.00  0.00     0.186 C 
BRANCH   5   6
HETATM    6  C           1     -30.293  -7.998 -18.704  0.00  0.00     0.196 C 
HETATM    7  O           1     -31.499  -7.954 -19.026  0.00  0.00    -0.646 OA
HETATM    8  O           1     -29.499  -8.717 -19.349  0.00  0.00    -0.646 OA
ENDBRANCH   5   6
BRANCH   5   9
HETATM    9  C           1     -30.364  -5.776 -17.614  0.00  0.00     0.045 C 
BRANCH   9  10
HETATM   10  C           1     -31.749  -5.753 -16.982  0.00  0.00     0.105 C 
BRANCH  10  11
HETATM   11  C           1     -32.170  -4.323 -16.743  0.00  0.00     0.215 C 
HETATM   12  O           1     -31.556  -3.418 -17.258  0.00  0.00    -0.274 OA
HETATM   13  N           1     -33.247  -4.052 -15.943  0.00  0.00    -0.370 N 
HETATM   14  H           1     -33.530  -3.093 -15.783  0.00  0.00     0.159 HD
HETATM   15  H           1     -33.761  -4.809 -15.512  0.00  0.00     0.159 HD
ENDBRANCH  10  11
ENDBRANCH   9  10
ENDBRANCH   5   9
ENDBRANCH   3   5
BRANCH   2  16
HETATM   16  C           1     -26.214  -6.157 -18.438  0.00  0.00     0.302 C 
BRANCH  16  17
HETATM   17  C           1     -25.714  -6.730 -19.757  0.00  0.00     0.153 C 
HETATM   18  C           1     -24.351  -7.376 -19.546  0.00  0.00     0.042 C 
BRANCH  17  19
HETATM   19  O           1     -26.620  -7.694 -20.222  0.00  0.00    -0.393 OA
HETATM   20  H           1     -26.112  -8.445 -20.479  0.00  0.00     0.210 HD
ENDBRANCH  17  19
ENDBRANCH  16  17
BRANCH  16  21
HETATM   21  N           1     -25.649  -6.955 -17.301  0.00  0.00    -0.064 N 
HETATM   22  H           1     -26.077  -7.909 -17.299  0.00  0.00     0.275 HD
HETATM   23  H           1     -24.613  -7.040 -17.414  0.00  0.00     0.275 HD
HETATM   24  H           1     -25.862  -6.475 -16.398  0.00  0.00     0.275 HD
ENDBRANCH  16  21
ENDBRANCH   2  16
TORSDOF 9
ENDMDL
MODEL 9
REMARK VINA RESULT:      -4.8      4.150      8.250
REMARK  9 active torsions:
REMARK  status: ('A' for Active; 'I' for Inactive)
REMARK    1  A    between atoms: C_1  and  C_16 
REMARK    2  A    between atoms: C_1  and  O_13 
REMARK    3  A    between atoms: C_2  and  C_4 
REMARK    4  A    between atoms: C_4  and  C_21 
REMARK    5  A    between atoms: C_4  and  N_11 
REMARK       I    between atoms: C_7  and  N_11 
REMARK    6  A    between atoms: C_7  and  C_16 
REMARK       I    between atoms: C_12  and  N_17 
REMARK    7  A    between atoms: C_12  and  C_20 
REMARK    8  A    between atoms: C_16  and  N_19 
REMARK    9  A    between atoms: C_20  and  C_21 
ROOT
HETATM    1  H           1     -20.459  -5.707  -3.435  0.00  0.00     0.163 HD
HETATM    2  C           1     -20.664  -6.870  -5.134  0.00  0.00     0.251 C 
HETATM    3  N           1     -20.728  -6.615  -3.791  0.00  0.00    -0.345 N 
HETATM    4  O           1     -20.987  -7.955  -5.558  0.00  0.00    -0.271 OA
ENDROOT
BRANCH   3   5
HETATM    5  C           1     -21.181  -7.645  -2.877  0.00  0.00     0.186 C 
BRANCH   5   6
HETATM    6  C           1     -22.130  -7.043  -1.870  0.00  0.00     0.196 C 
HETATM    7  O           1     -22.598  -5.899  -2.058  0.00  0.00    -0.646 OA
HETATM    8  O           1     -22.447  -7.687  -0.847  0.00  0.00    -0.646 OA
ENDBRANCH   5   6
BRANCH   5   9
HETATM    9  C           1     -19.983  -8.244  -2.152  0.00  0.00     0.045 C 
BRANCH   9  10
HETATM   10  C           1     -19.625  -9.583  -2.783  0.00  0.00     0.105 C 
BRANCH  10  11
HETATM   11  C           1     -18.326  -9.451  -3.542  0.00  0.00     0.215 C 
HETATM   12  O           1     -17.291  -9.280  -2.943  0.00  0.00    -0.274 OA
HETATM   13  N           1     -18.323  -9.524  -4.909  0.00  0.00    -0.370 N 
HETATM   14  H           1     -17.452  -9.435  -5.418  0.00  0.00     0.159 HD
HETATM   15  H           1     -19.190  -9.666  -5.410  0.00  0.00     0.159 HD
ENDBRANCH  10  11
ENDBRANCH   9  10
ENDBRANCH   5   9
ENDBRANCH   3   5
BRANCH   2  16
HETATM   16  C           1     -20.194  -5.798  -6.085  0.00  0.00     0.302 C 
BRANCH  16  17
HETATM   17  C           1     -21.297  -4.767  -6.277  0.00  0.00     0.153 C 
HETATM   18  C           1     -21.297  -4.285  -7.721  0.00  0.00     0.042 C 
BRANCH  17  19
HETATM   19  O           1     -22.539  -5.349  -5.980  0.00  0.00    -0.393 OA
HETATM   20  H           1     -22.441  -6.278  -6.101  0.00  0.00     0.210 HD
ENDBRANCH  17  19
ENDBRANCH  16  17
BRANCH  16  21
HETATM   21  N           1     -19.855  -6.418  -7.408  0.00  0.00    -0.064 N 
HETATM   22  H           1     -20.455  -5.996  -8.154  0.00  0.00     0.275 HD
HETATM   23  H           1     -18.849  -6.242  -7.630  0.00  0.00     0.275 HD
HETATM   24  H           1     -20.026  -7.448  -7.364  0.00  0.00     0.275 HD
ENDBRANCH  16  21
ENDBRANCH   2  16
TORSDOF 9
ENDMDL
