MODEL 1
REMARK VINA RESULT:      -6.2      0.000      0.000
REMARK  7 active torsions:
REMARK  status: ('A' for Active; 'I' for Inactive)
REMARK    1  A    between atoms: N_5  and  C_11 
REMARK    2  A    between atoms: C_9  and  C_15 
REMARK    3  A    between atoms: C_11  and  C_17 
REMARK    4  A    between atoms: C_11  and  C_12 
REMARK    5  A    between atoms: C_12  and  C_13 
REMARK    6  A    between atoms: C_13  and  C_14 
REMARK    7  A    between atoms: C_15  and  N_18 
REMARK       I    between atoms: C_17  and  N_18 
ROOT
HETATM    1  C           1     -23.161  -3.589  -9.238  0.00  0.00     0.275 C 
ENDROOT
BRANCH   1   2
HETATM    2  N           1     -23.952  -4.064  -8.055  0.00  0.00    -0.066 N 
HETATM    3  H           1     -24.972  -4.027  -8.281  0.00  0.00     0.275 HD
HETATM    4  H           1     -23.681  -5.047  -7.829  0.00  0.00     0.275 HD
HETATM    5  H           1     -23.754  -3.448  -7.235  0.00  0.00     0.275 HD
ENDBRANCH   1   2
BRANCH   1   6
HETATM    6  C           1     -24.094  -3.324 -10.393  0.00  0.00     0.248 C 
HETATM    7  O           1     -25.286  -3.257 -10.204  0.00  0.00    -0.271 OA
HETATM    8  N           1     -23.591  -3.161 -11.656  0.00  0.00    -0.349 N 
HETATM    9  H           1     -22.593  -3.218 -11.815  0.00  0.00     0.163 HD
BRANCH   8  10
HETATM   10  C           1     -24.489  -2.907 -12.766  0.00  0.00     0.235 C 
BRANCH  10  11
HETATM   11  C           1     -23.700  -2.385 -13.942  0.00  0.00     0.191 C 
HETATM   12  O           1     -24.164  -1.460 -14.644  0.00  0.00    -0.647 OA
HETATM   13  O           1     -22.585  -2.877 -14.215  0.00  0.00    -0.647 OA
ENDBRANCH  10  11
ENDBRANCH   8  10
ENDBRANCH   1   6
BRANCH   1  14
HETATM   14  C           1     -22.151  -4.658  -9.635  0.00  0.00     0.053 C 
BRANCH  14  15
HETATM   15  C           1     -20.779  -4.293  -9.084  0.00  0.00     0.115 C 
BRANCH  15  16
HETATM   16  C           1     -20.581  -4.959  -7.744  0.00  0.00     0.172 C 
HETATM   17  O           1     -20.954  -4.383  -6.699  0.00  0.00    -0.648 OA
HETATM   18  O           1     -20.043  -6.085  -7.679  0.00  0.00    -0.648 OA
ENDBRANCH  15  16
ENDBRANCH  14  15
ENDBRANCH   1  14
TORSDOF 7
ENDMDL
MODEL 2
REMARK VINA RESULT:      -6.1     11.311     12.689
REMARK  7 active torsions:
REMARK  status: ('A' for Active; 'I' for Inactive)
REMARK    1  A    between atoms: N_5  and  C_11 
REMARK    2  A    between atoms: C_9  and  C_15 
REMARK    3  A    between atoms: C_11  and  C_17 
REMARK    4  A    between atoms: C_11  and  C_12 
REMARK    5  A    between atoms: C_12  and  C_13 
REMARK    6  A    between atoms: C_13  and  C_14 
REMARK    7  A    between atoms: C_15  and  N_18 
REMARK       I    between atoms: C_17  and  N_18 
ROOT
HETATM    1  C           1     -34.643  -1.639 -12.007  0.00  0.00     0.275 C 
ENDROOT
BRANCH   1   2
HETATM    2  N           1     -35.471  -1.831 -10.771  0.00  0.00    -0.066 N 
HETATM    3  H           1     -34.855  -1.783  -9.928  0.00  0.00     0.275 HD
HETATM    4  H           1     -36.194  -1.080 -10.717  0.00  0.00     0.275 HD
HETATM    5  H           1     -35.938  -2.765 -10.806  0.00  0.00     0.275 HD
ENDBRANCH   1   2
BRANCH   1   6
HETATM    6  C           1     -35.496  -1.029 -13.092  0.00  0.00     0.248 C 
HETATM    7  O           1     -36.701  -1.080 -13.015  0.00  0.00    -0.271 OA
HETATM    8  N           1     -34.905  -0.418 -14.164  0.00  0.00    -0.349 N 
HETATM    9  H           1     -33.896  -0.375 -14.230  0.00  0.00     0.163 HD
BRANCH   8  10
HETATM   10  C           1     -35.724   0.168 -15.208  0.00  0.00     0.235 C 
BRANCH  10  11
HETATM   11  C           1     -35.841  -0.798 -16.361  0.00  0.00     0.191 C 
HETATM   12  O           1     -34.918  -1.610 -16.591  0.00  0.00    -0.647 OA
HETATM   13  O           1     -36.859  -0.788 -17.085  0.00  0.00    -0.647 OA
ENDBRANCH  10  11
ENDBRANCH   8  10
ENDBRANCH   1   6
BRANCH   1  14
HETATM   14  C           1     -34.113  -2.988 -12.476  0.00  0.00     0.053 C 
BRANCH  14  15
HETATM   15  C           1     -33.256  -3.607 -11.380  0.00  0.00     0.115 C 
BRANCH  15  16
HETATM   16  C           1     -33.836  -4.941 -10.979  0.00  0.00     0.172 C 
HETATM   17  O           1     -33.157  -5.982 -11.108  0.00  0.00    -0.648 OA
HETATM   18  O           1     -34.996  -5.005 -10.518  0.00  0.00    -0.648 OA
ENDBRANCH  15  16
ENDBRANCH  14  15
ENDBRANCH   1  14
TORSDOF 7
ENDMDL
MODEL 3
REMARK VINA RESULT:      -6.0      1.758      2.083
REMARK  7 active torsions:
REMARK  status: ('A' for Active; 'I' for Inactive)
REMARK    1  A    between atoms: N_5  and  C_11 
REMARK    2  A    between atoms: C_9  and  C_15 
REMARK    3  A    between atoms: C_11  and  C_17 
REMARK    4  A    between atoms: C_11  and  C_12 
REMARK    5  A    between atoms: C_12  and  C_13 
REMARK    6  A    between atoms: C_13  and  C_14 
REMARK    7  A    between atoms: C_15  and  N_18 
REMARK       I    between atoms: C_17  and  N_18 
ROOT
HETATM    1  C           1     -23.648  -3.292 -10.089  0.00  0.00     0.275 C 
ENDROOT
BRANCH   1   2
HETATM    2  N           1     -24.816  -3.218  -9.150  0.00  0.00    -0.066 N 
HETATM    3  H           1     -25.511  -3.957  -9.400  0.00  0.00     0.275 HD
HETATM    4  H           1     -24.484  -3.370  -8.172  0.00  0.00     0.275 HD
HETATM    5  H           1     -25.264  -2.278  -9.227  0.00  0.00     0.275 HD
ENDBRANCH   1   2
BRANCH   1   6
HETATM    6  C           1     -24.150  -3.357 -11.510  0.00  0.00     0.248 C 
HETATM    7  O           1     -25.296  -3.068 -11.760  0.00  0.00    -0.271 OA
HETATM    8  N           1     -23.306  -3.742 -12.517  0.00  0.00    -0.349 N 
HETATM    9  H           1     -22.346  -3.984 -12.308  0.00  0.00     0.163 HD
BRANCH   8  10
HETATM   10  C           1     -23.788  -3.804 -13.883  0.00  0.00     0.235 C 
BRANCH  10  11
HETATM   11  C           1     -23.323  -2.583 -14.638  0.00  0.00     0.191 C 
HETATM   12  O           1     -23.923  -1.496 -14.498  0.00  0.00    -0.647 OA
HETATM   13  O           1     -22.338  -2.659 -15.403  0.00  0.00    -0.647 OA
ENDBRANCH  10  11
ENDBRANCH   8  10
ENDBRANCH   1   6
BRANCH   1  14
HETATM   14  C           1     -22.830  -4.540  -9.783  0.00  0.00     0.053 C 
BRANCH  14  15
HETATM   15  C           1     -21.452  -4.134  -9.276  0.00  0.00     0.115 C 
BRANCH  15  16
HETATM   16  C           1     -20.475  -4.123 -10.427  0.00  0.00     0.172 C 
HETATM   17  O           1     -19.672  -5.070 -10.573  0.00  0.00    -0.648 OA
HETATM   18  O           1     -20.468  -3.167 -11.232  0.00  0.00    -0.648 OA
ENDBRANCH  15  16
ENDBRANCH  14  15
ENDBRANCH   1  14
TORSDOF 7
ENDMDL
MODEL 4
REMARK VINA RESULT:      -5.9      1.775      2.046
REMARK  7 active torsions:
REMARK  status: ('A' for Active; 'I' for Inactive)
REMARK    1  A    between atoms: N_5  and  C_11 
REMARK    2  A    between atoms: C_9  and  C_15 
REMARK    3  A    between atoms: C_11  and  C_17 
REMARK    4  A    between atoms: C_11  and  C_12 
REMARK    5  A    between atoms: C_12  and  C_13 
REMARK    6  A    between atoms: C_13  and  C_14 
REMARK    7  A    between atoms: C_15  and  N_18 
REMARK       I    between atoms: C_17  and  N_18 
ROOT
HETATM    1  C           1     -21.369  -4.217 -11.072  0.00  0.00     0.275 C 
ENDROOT
BRANCH   1   2
HETATM    2  N           1     -20.176  -3.491 -11.619  0.00  0.00    -0.066 N 
HETATM    3  H           1     -19.423  -4.179 -11.847  0.00  0.00     0.275 HD
HETATM    4  H           1     -20.449  -2.975 -12.484  0.00  0.00     0.275 HD
HETATM    5  H           1     -19.823  -2.815 -10.904  0.00  0.00     0.275 HD
ENDBRANCH   1   2
BRANCH   1   6
HETATM    6  C           1     -22.631  -3.556 -11.572  0.00  0.00     0.248 C 
HETATM    7  O           1     -23.510  -3.268 -10.795  0.00  0.00    -0.271 OA
HETATM    8  N           1     -22.778  -3.283 -12.904  0.00  0.00    -0.349 N 
HETATM    9  H           1     -22.042  -3.524 -13.556  0.00  0.00     0.163 HD
BRANCH   8  10
HETATM   10  C           1     -23.991  -2.648 -13.385  0.00  0.00     0.235 C 
BRANCH  10  11
HETATM   11  C           1     -23.698  -1.905 -14.665  0.00  0.00     0.191 C 
HETATM   12  O           1     -24.428  -0.953 -15.016  0.00  0.00    -0.647 OA
HETATM   13  O           1     -22.725  -2.241 -15.374  0.00  0.00    -0.647 OA
ENDBRANCH  10  11
ENDBRANCH   8  10
ENDBRANCH   1   6
BRANCH   1  14
HETATM   14  C           1     -21.339  -4.169  -9.550  0.00  0.00     0.053 C 
BRANCH  14  15
HETATM   15  C           1     -20.005  -4.706  -9.050  0.00  0.00     0.115 C 
BRANCH  15  16
HETATM   16  C           1     -20.148  -5.155  -7.616  0.00  0.00     0.172 C 
HETATM   17  O           1     -19.931  -6.348  -7.310  0.00  0.00    -0.648 OA
HETATM   18  O           1     -20.483  -4.335  -6.735  0.00  0.00    -0.648 OA
ENDBRANCH  15  16
ENDBRANCH  14  15
ENDBRANCH   1  14
TORSDOF 7
ENDMDL
MODEL 5
REMARK VINA RESULT:      -5.8     12.018     14.100
REMARK  7 active torsions:
REMARK  status: ('A' for Active; 'I' for Inactive)
REMARK    1  A    between atoms: N_5  and  C_11 
REMARK    2  A    between atoms: C_9  and  C_15 
REMARK    3  A    between atoms: C_11  and  C_17 
REMARK    4  A    between atoms: C_11  and  C_12 
REMARK    5  A    between atoms: C_12  and  C_13 
REMARK    6  A    between atoms: C_13  and  C_14 
REMARK    7  A    between atoms: C_15  and  N_18 
REMARK       I    between atoms: C_17  and  N_18 
ROOT
HETATM    1  C           1     -35.503   0.125 -12.717  0.00  0.00     0.275 C 
ENDROOT
BRANCH   1   2
HETATM    2  N           1     -34.557   1.075 -13.392  0.00  0.00    -0.066 N 
HETATM    3  H           1     -34.968   2.036 -13.389  0.00  0.00     0.275 HD
HETATM    4  H           1     -33.648   1.083 -12.878  0.00  0.00     0.275 HD
HETATM    5  H           1     -34.400   0.766 -14.377  0.00  0.00     0.275 HD
ENDBRANCH   1   2
BRANCH   1   6
HETATM    6  C           1     -34.741  -1.084 -12.234  0.00  0.00     0.248 C 
HETATM    7  O           1     -34.200  -1.065 -11.154  0.00  0.00    -0.271 OA
HETATM    8  N           1     -34.663  -2.202 -13.019  0.00  0.00    -0.349 N 
HETATM    9  H           1     -35.116  -2.218 -13.924  0.00  0.00     0.163 HD
BRANCH   8  10
HETATM   10  C           1     -33.930  -3.364 -12.555  0.00  0.00     0.235 C 
BRANCH  10  11
HETATM   11  C           1     -34.902  -4.421 -12.091  0.00  0.00     0.191 C 
HETATM   12  O           1     -35.441  -4.323 -10.967  0.00  0.00    -0.647 OA
HETATM   13  O           1     -35.168  -5.393 -12.829  0.00  0.00    -0.647 OA
ENDBRANCH  10  11
ENDBRANCH   8  10
ENDBRANCH   1   6
BRANCH   1  14
HETATM   14  C           1     -36.575  -0.312 -13.707  0.00  0.00     0.053 C 
BRANCH  14  15
HETATM   15  C           1     -36.309   0.331 -15.062  0.00  0.00     0.115 C 
BRANCH  15  16
HETATM   16  C           1     -36.118  -0.745 -16.102  0.00  0.00     0.172 C 
HETATM   17  O           1     -35.237  -1.618 -15.943  0.00  0.00    -0.648 OA
HETATM   18  O           1     -36.838  -0.763 -17.123  0.00  0.00    -0.648 OA
ENDBRANCH  15  16
ENDBRANCH  14  15
ENDBRANCH   1  14
TORSDOF 7
ENDMDL
MODEL 6
REMARK VINA RESULT:      -5.8      1.698      6.268
REMARK  7 active torsions:
REMARK  status: ('A' for Active; 'I' for Inactive)
REMARK    1  A    between atoms: N_5  and  C_11 
REMARK    2  A    between atoms: C_9  and  C_15 
REMARK    3  A    between atoms: C_11  and  C_17 
REMARK    4  A    between atoms: C_11  and  C_12 
REMARK    5  A    between atoms: C_12  and  C_13 
REMARK    6  A    between atoms: C_13  and  C_14 
REMARK    7  A    between atoms: C_15  and  N_18 
REMARK       I    between atoms: C_17  and  N_18 
ROOT
HETATM    1  C           1     -23.034  -3.768 -10.590  0.00  0.00     0.275 C 
ENDROOT
BRANCH   1   2
HETATM    2  N           1     -24.357  -3.317 -10.047  0.00  0.00    -0.066 N 
HETATM    3  H           1     -24.444  -2.281 -10.155  0.00  0.00     0.275 HD
HETATM    4  H           1     -25.127  -3.787 -10.575  0.00  0.00     0.275 HD
HETATM    5  H           1     -24.422  -3.568  -9.035  0.00  0.00     0.275 HD
ENDBRANCH   1   2
BRANCH   1   6
HETATM    6  C           1     -22.061  -3.952  -9.452  0.00  0.00     0.248 C 
HETATM    7  O           1     -20.897  -4.182  -9.683  0.00  0.00    -0.271 OA
HETATM    8  N           1     -22.496  -3.859  -8.158  0.00  0.00    -0.349 N 
HETATM    9  H           1     -23.471  -3.666  -7.964  0.00  0.00     0.163 HD
BRANCH   8  10
HETATM   10  C           1     -21.561  -4.036  -7.064  0.00  0.00     0.235 C 
BRANCH  10  11
HETATM   11  C           1     -21.659  -5.448  -6.541  0.00  0.00     0.191 C 
HETATM   12  O           1     -21.000  -6.362  -7.083  0.00  0.00    -0.647 OA
HETATM   13  O           1     -22.398  -5.704  -5.566  0.00  0.00    -0.647 OA
ENDBRANCH  10  11
ENDBRANCH   8  10
ENDBRANCH   1   6
BRANCH   1  14
HETATM   14  C           1     -22.496  -2.717 -11.553  0.00  0.00     0.053 C 
BRANCH  14  15
HETATM   15  C           1     -22.437  -3.297 -12.960  0.00  0.00     0.115 C 
BRANCH  15  16
HETATM   16  C           1     -23.625  -2.814 -13.754  0.00  0.00     0.172 C 
HETATM   17  O           1     -23.518  -2.623 -14.986  0.00  0.00    -0.648 OA
HETATM   18  O           1     -24.717  -2.603 -13.182  0.00  0.00    -0.648 OA
ENDBRANCH  15  16
ENDBRANCH  14  15
ENDBRANCH   1  14
TORSDOF 7
ENDMDL
MODEL 7
REMARK VINA RESULT:      -5.7      1.726      6.164
REMARK  7 active torsions:
REMARK  status: ('A' for Active; 'I' for Inactive)
REMARK    1  A    between atoms: N_5  and  C_11 
REMARK    2  A    between atoms: C_9  and  C_15 
REMARK    3  A    between atoms: C_11  and  C_17 
REMARK    4  A    between atoms: C_11  and  C_12 
REMARK    5  A    between atoms: C_12  and  C_13 
REMARK    6  A    between atoms: C_13  and  C_14 
REMARK    7  A    between atoms: C_15  and  N_18 
REMARK       I    between atoms: C_17  and  N_18 
ROOT
HETATM    1  C           1     -23.498  -4.244  -9.068  0.00  0.00     0.275 C 
ENDROOT
BRANCH   1   2
HETATM    2  N           1     -24.629  -3.274  -8.893  0.00  0.00    -0.066 N 
HETATM    3  H           1     -24.494  -2.461  -9.536  0.00  0.00     0.275 HD
HETATM    4  H           1     -25.531  -3.749  -9.117  0.00  0.00     0.275 HD
HETATM    5  H           1     -24.647  -2.935  -7.905  0.00  0.00     0.275 HD
ENDBRANCH   1   2
BRANCH   1   6
HETATM    6  C           1     -22.741  -4.372  -7.769  0.00  0.00     0.248 C 
HETATM    7  O           1     -23.339  -4.575  -6.739  0.00  0.00    -0.271 OA
HETATM    8  N           1     -21.377  -4.259  -7.758  0.00  0.00    -0.349 N 
HETATM    9  H           1     -20.876  -4.090  -8.621  0.00  0.00     0.163 HD
BRANCH   8  10
HETATM   10  C           1     -20.649  -4.383  -6.510  0.00  0.00     0.235 C 
BRANCH  10  11
HETATM   11  C           1     -20.266  -5.826  -6.290  0.00  0.00     0.191 C 
HETATM   12  O           1     -19.721  -6.474  -7.209  0.00  0.00    -0.647 OA
HETATM   13  O           1     -20.494  -6.372  -5.190  0.00  0.00    -0.647 OA
ENDBRANCH  10  11
ENDBRANCH   8  10
ENDBRANCH   1   6
BRANCH   1  14
HETATM   14  C           1     -22.559  -3.736 -10.155  0.00  0.00     0.053 C 
BRANCH  14  15
HETATM   15  C           1     -23.024  -4.251 -11.510  0.00  0.00     0.115 C 
BRANCH  15  16
HETATM   16  C           1     -23.806  -3.172 -12.218  0.00  0.00     0.172 C 
HETATM   17  O           1     -25.025  -3.027 -11.981  0.00  0.00    -0.648 OA
HETATM   18  O           1     -23.237  -2.425 -13.042  0.00  0.00    -0.648 OA
ENDBRANCH  15  16
ENDBRANCH  14  15
ENDBRANCH   1  14
TORSDOF 7
ENDMDL
MODEL 8
REMARK VINA RESULT:      -5.6      1.829      2.300
REMARK  7 active torsions:
REMARK  status: ('A' for Active; 'I' for Inactive)
REMARK    1  A    between atoms: N_5  and  C_11 
REMARK    2  A    between atoms: C_9  and  C_15 
REMARK    3  A    between atoms: C_11  and  C_17 
REMARK    4  A    between atoms: C_11  and  C_12 
REMARK    5  A    between atoms: C_12  and  C_13 
REMARK    6  A    between atoms: C_13  and  C_14 
REMARK    7  A    between atoms: C_15  and  N_18 
REMARK       I    between atoms: C_17  and  N_18 
ROOT
HETATM    1  C           1     -22.282  -3.820  -8.588  0.00  0.00     0.275 C 
ENDROOT
BRANCH   1   2
HETATM    2  N           1     -23.744  -3.998  -8.301  0.00  0.00    -0.066 N 
HETATM    3  H           1     -24.253  -3.111  -8.519  0.00  0.00     0.275 HD
HETATM    4  H           1     -24.122  -4.771  -8.893  0.00  0.00     0.275 HD
HETATM    5  H           1     -23.873  -4.234  -7.291  0.00  0.00     0.275 HD
ENDBRANCH   1   2
BRANCH   1   6
HETATM    6  C           1     -22.072  -3.727 -10.080  0.00  0.00     0.248 C 
HETATM    7  O           1     -20.988  -3.974 -10.553  0.00  0.00    -0.271 OA
HETATM    8  N           1     -23.108  -3.363 -10.895  0.00  0.00    -0.349 N 
HETATM    9  H           1     -24.016  -3.156 -10.499  0.00  0.00     0.163 HD
BRANCH   8  10
HETATM   10  C           1     -22.906  -3.274 -12.329  0.00  0.00     0.235 C 
BRANCH  10  11
HETATM   11  C           1     -24.159  -2.745 -12.983  0.00  0.00     0.191 C 
HETATM   12  O           1     -25.275  -2.963 -12.463  0.00  0.00    -0.647 OA
HETATM   13  O           1     -24.082  -2.090 -14.044  0.00  0.00    -0.647 OA
ENDBRANCH  10  11
ENDBRANCH   8  10
ENDBRANCH   1   6
BRANCH   1  14
HETATM   14  C           1     -21.508  -5.011  -8.039  0.00  0.00     0.053 C 
BRANCH  14  15
HETATM   15  C           1     -20.919  -4.654  -6.682  0.00  0.00     0.115 C 
BRANCH  15  16
HETATM   16  C           1     -21.567  -5.499  -5.612  0.00  0.00     0.172 C 
HETATM   17  O           1     -20.877  -5.961  -4.678  0.00  0.00    -0.648 OA
HETATM   18  O           1     -22.793  -5.737  -5.661  0.00  0.00    -0.648 OA
ENDBRANCH  15  16
ENDBRANCH  14  15
ENDBRANCH   1  14
TORSDOF 7
ENDMDL
MODEL 9
REMARK VINA RESULT:      -5.4      2.046      6.389
REMARK  7 active torsions:
REMARK  status: ('A' for Active; 'I' for Inactive)
REMARK    1  A    between atoms: N_5  and  C_11 
REMARK    2  A    between atoms: C_9  and  C_15 
REMARK    3  A    between atoms: C_11  and  C_17 
REMARK    4  A    between atoms: C_11  and  C_12 
REMARK    5  A    between atoms: C_12  and  C_13 
REMARK    6  A    between atoms: C_13  and  C_14 
REMARK    7  A    between atoms: C_15  and  N_18 
REMARK       I    between atoms: C_17  and  N_18 
ROOT
HETATM    1  C           1     -21.367  -3.785 -10.637  0.00  0.00     0.275 C 
ENDROOT
BRANCH   1   2
HETATM    2  N           1     -20.080  -4.541 -10.792  0.00  0.00    -0.066 N 
HETATM    3  H           1     -19.846  -5.018  -9.892  0.00  0.00     0.275 HD
HETATM    4  H           1     -20.186  -5.255 -11.547  0.00  0.00     0.275 HD
HETATM    5  H           1     -19.314  -3.876 -11.043  0.00  0.00     0.275 HD
ENDBRANCH   1   2
BRANCH   1   6
HETATM    6  C           1     -22.089  -4.270  -9.404  0.00  0.00     0.248 C 
HETATM    7  O           1     -23.220  -4.684  -9.490  0.00  0.00    -0.271 OA
HETATM    8  N           1     -21.461  -4.241  -8.189  0.00  0.00    -0.349 N 
HETATM    9  H           1     -20.513  -3.894  -8.116  0.00  0.00     0.163 HD
BRANCH   8  10
HETATM   10  C           1     -22.155  -4.707  -7.003  0.00  0.00     0.235 C 
BRANCH  10  11
HETATM   11  C           1     -21.256  -5.639  -6.227  0.00  0.00     0.191 C 
HETATM   12  O           1     -20.756  -5.266  -5.144  0.00  0.00    -0.647 OA
HETATM   13  O           1     -21.013  -6.783  -6.667  0.00  0.00    -0.647 OA
ENDBRANCH  10  11
ENDBRANCH   8  10
ENDBRANCH   1   6
BRANCH   1  14
HETATM   14  C           1     -22.242  -4.017 -11.862  0.00  0.00     0.053 C 
BRANCH  14  15
HETATM   15  C           1     -22.705  -2.678 -12.419  0.00  0.00     0.115 C 
BRANCH  15  16
HETATM   16  C           1     -23.823  -2.902 -13.408  0.00  0.00     0.172 C 
HETATM   17  O           1     -23.561  -3.060 -14.620  0.00  0.00    -0.648 OA
HETATM   18  O           1     -25.009  -2.928 -13.016  0.00  0.00    -0.648 OA
ENDBRANCH  15  16
ENDBRANCH  14  15
ENDBRANCH   1  14
TORSDOF 7
ENDMDL
