MODEL 1
REMARK VINA RESULT:      -7.4      0.000      0.000
REMARK  9 active torsions:
REMARK  status: ('A' for Active; 'I' for Inactive)
REMARK    1  A    between atoms: C_1  and  C_2 
REMARK    2  A    between atoms: C_1  and  C_19 
REMARK    3  A    between atoms: C_2  and  C_9 
REMARK    4  A    between atoms: C_2  and  N_11 
REMARK       I    between atoms: N_11  and  C_29 
REMARK    5  A    between atoms: C_14  and  C_31 
REMARK       I    between atoms: C_14  and  N_15 
REMARK    6  A    between atoms: N_17  and  C_28 
REMARK    7  A    between atoms: C_27  and  C_28 
REMARK    8  A    between atoms: C_27  and  C_31 
REMARK    9  A    between atoms: C_28  and  C_29 
ROOT
HETATM    1  N           1     -19.889  -7.061  -6.608  0.00  0.00    -0.344 N 
HETATM    2  H           1     -19.567  -7.689  -7.333  0.00  0.00     0.163 HD
HETATM    3  O           1     -19.412  -4.898  -6.894  0.00  0.00    -0.271 OA
HETATM    4  C           1     -20.241  -5.776  -6.923  0.00  0.00     0.249 C 
ENDROOT
BRANCH   1   5
HETATM    5  C           1     -19.977  -7.521  -5.236  0.00  0.00     0.190 C 
BRANCH   5   6
HETATM    6  C           1     -21.431  -7.816  -4.892  0.00  0.00     0.077 C 
BRANCH   6   7
HETATM    7  C           1     -21.734  -7.305  -3.519  0.00  0.00    -0.028 A 
HETATM    8  C           1     -22.042  -6.005  -3.187  0.00  0.00     0.096 A 
HETATM    9  N           1     -22.251  -5.956  -1.835  0.00  0.00    -0.365 N 
HETATM   10  C           1     -22.083  -7.206  -1.282  0.00  0.00     0.042 A 
HETATM   11  H           1     -22.502  -5.089  -1.297  0.00  0.00     0.165 HD
HETATM   12  C           1     -22.194  -7.629   0.049  0.00  0.00     0.030 A 
HETATM   13  C           1     -21.757  -8.074  -2.323  0.00  0.00    -0.002 A 
HETATM   14  C           1     -21.965  -8.982   0.318  0.00  0.00     0.002 A 
HETATM   15  C           1     -21.637  -9.873  -0.703  0.00  0.00     0.001 A 
HETATM   16  C           1     -21.530  -9.432  -2.028  0.00  0.00     0.014 A 
ENDBRANCH   6   7
ENDBRANCH   5   6
BRANCH   5  17
HETATM   17  C           1     -19.156  -8.777  -5.074  0.00  0.00     0.197 C 
HETATM   18  O           1     -19.066  -9.590  -6.018  0.00  0.00    -0.646 OA
HETATM   19  O           1     -18.565  -9.003  -3.996  0.00  0.00    -0.646 OA
ENDBRANCH   5  17
ENDBRANCH   1   5
BRANCH   4  20
HETATM   20  C           1     -21.666  -5.456  -7.306  0.00  0.00     0.275 C 
BRANCH  20  21
HETATM   21  N           1     -22.217  -4.427  -6.363  0.00  0.00    -0.066 N 
HETATM   22  H           1     -21.450  -4.072  -5.747  0.00  0.00     0.275 HD
HETATM   23  H           1     -22.965  -4.860  -5.775  0.00  0.00     0.275 HD
HETATM   24  H           1     -22.620  -3.634  -6.911  0.00  0.00     0.275 HD
ENDBRANCH  20  21
BRANCH  20  25
HETATM   25  C           1     -21.700  -4.910  -8.727  0.00  0.00     0.052 C 
BRANCH  25  26
HETATM   26  C           1     -22.788  -3.851  -8.840  0.00  0.00     0.105 C 
BRANCH  26  27
HETATM   27  C           1     -23.906  -4.368  -9.711  0.00  0.00     0.215 C 
HETATM   28  N           1     -25.164  -3.840  -9.596  0.00  0.00    -0.370 N 
HETATM   29  H           1     -25.343  -3.102  -8.927  0.00  0.00     0.159 HD
HETATM   30  H           1     -25.913  -4.187 -10.180  0.00  0.00     0.159 HD
HETATM   31  O           1     -23.692  -5.249 -10.509  0.00  0.00    -0.274 OA
ENDBRANCH  26  27
ENDBRANCH  25  26
ENDBRANCH  20  25
ENDBRANCH   4  20
TORSDOF 9
ENDMDL
MODEL 2
REMARK VINA RESULT:      -7.3      2.482      7.913
REMARK  9 active torsions:
REMARK  status: ('A' for Active; 'I' for Inactive)
REMARK    1  A    between atoms: C_1  and  C_2 
REMARK    2  A    between atoms: C_1  and  C_19 
REMARK    3  A    between atoms: C_2  and  C_9 
REMARK    4  A    between atoms: C_2  and  N_11 
REMARK       I    between atoms: N_11  and  C_29 
REMARK    5  A    between atoms: C_14  and  C_31 
REMARK       I    between atoms: C_14  and  N_15 
REMARK    6  A    between atoms: N_17  and  C_28 
REMARK    7  A    between atoms: C_27  and  C_28 
REMARK    8  A    between atoms: C_27  and  C_31 
REMARK    9  A    between atoms: C_28  and  C_29 
ROOT
HETATM    1  N           1     -22.388  -6.307  -4.373  0.00  0.00    -0.344 N 
HETATM    2  H           1     -23.338  -5.989  -4.232  0.00  0.00     0.163 HD
HETATM    3  O           1     -20.875  -5.583  -2.898  0.00  0.00    -0.271 OA
HETATM    4  C           1     -21.562  -6.494  -3.298  0.00  0.00     0.249 C 
ENDROOT
BRANCH   1   5
HETATM    5  C           1     -21.901  -6.566  -5.714  0.00  0.00     0.190 C 
BRANCH   5   6
HETATM    6  C           1     -21.217  -5.317  -6.255  0.00  0.00     0.077 C 
BRANCH   6   7
HETATM    7  C           1     -22.038  -4.739  -7.365  0.00  0.00    -0.028 A 
HETATM    8  C           1     -23.363  -4.374  -7.289  0.00  0.00     0.096 A 
HETATM    9  N           1     -23.735  -3.890  -8.515  0.00  0.00    -0.365 N 
HETATM   10  C           1     -22.671  -3.935  -9.387  0.00  0.00     0.042 A 
HETATM   11  H           1     -24.695  -3.536  -8.754  0.00  0.00     0.165 HD
HETATM   12  C           1     -22.586  -3.550 -10.731  0.00  0.00     0.030 A 
HETATM   13  C           1     -21.589  -4.467  -8.687  0.00  0.00    -0.002 A 
HETATM   14  C           1     -21.355  -3.713 -11.373  0.00  0.00     0.002 A 
HETATM   15  C           1     -20.256  -4.241 -10.698  0.00  0.00     0.001 A 
HETATM   16  C           1     -20.359  -4.622  -9.355  0.00  0.00     0.014 A 
ENDBRANCH   6   7
ENDBRANCH   5   6
BRANCH   5  17
HETATM   17  C           1     -20.914  -7.706  -5.679  0.00  0.00     0.197 C 
HETATM   18  O           1     -19.687  -7.470  -5.674  0.00  0.00    -0.646 OA
HETATM   19  O           1     -21.323  -8.887  -5.653  0.00  0.00    -0.646 OA
ENDBRANCH   5  17
ENDBRANCH   1   5
BRANCH   4  20
HETATM   20  C           1     -21.508  -7.837  -2.611  0.00  0.00     0.275 C 
BRANCH  20  21
HETATM   21  N           1     -20.103  -8.362  -2.652  0.00  0.00    -0.066 N 
HETATM   22  H           1     -19.870  -8.661  -3.626  0.00  0.00     0.275 HD
HETATM   23  H           1     -20.018  -9.179  -2.006  0.00  0.00     0.275 HD
HETATM   24  H           1     -19.442  -7.611  -2.350  0.00  0.00     0.275 HD
ENDBRANCH  20  21
BRANCH  20  25
HETATM   25  C           1     -21.950  -7.685  -1.161  0.00  0.00     0.052 C 
BRANCH  25  26
HETATM   26  C           1     -22.249  -9.058  -0.574  0.00  0.00     0.105 C 
BRANCH  26  27
HETATM   27  C           1     -21.363  -9.297   0.624  0.00  0.00     0.215 C 
HETATM   28  N           1     -20.829 -10.539   0.843  0.00  0.00    -0.370 N 
HETATM   29  H           1     -21.028 -11.296   0.201  0.00  0.00     0.159 HD
HETATM   30  H           1     -20.235 -10.699   1.646  0.00  0.00     0.159 HD
HETATM   31  O           1     -21.126  -8.394   1.390  0.00  0.00    -0.274 OA
ENDBRANCH  26  27
ENDBRANCH  25  26
ENDBRANCH  20  25
ENDBRANCH   4  20
TORSDOF 9
ENDMDL
MODEL 3
REMARK VINA RESULT:      -7.3      1.289      1.952
REMARK  9 active torsions:
REMARK  status: ('A' for Active; 'I' for Inactive)
REMARK    1  A    between atoms: C_1  and  C_2 
REMARK    2  A    between atoms: C_1  and  C_19 
REMARK    3  A    between atoms: C_2  and  C_9 
REMARK    4  A    between atoms: C_2  and  N_11 
REMARK       I    between atoms: N_11  and  C_29 
REMARK    5  A    between atoms: C_14  and  C_31 
REMARK       I    between atoms: C_14  and  N_15 
REMARK    6  A    between atoms: N_17  and  C_28 
REMARK    7  A    between atoms: C_27  and  C_28 
REMARK    8  A    between atoms: C_27  and  C_31 
REMARK    9  A    between atoms: C_28  and  C_29 
ROOT
HETATM    1  N           1     -19.768  -7.102  -6.410  0.00  0.00    -0.344 N 
HETATM    2  H           1     -19.314  -7.475  -7.234  0.00  0.00     0.163 HD
HETATM    3  O           1     -19.551  -4.904  -6.075  0.00  0.00    -0.271 OA
HETATM    4  C           1     -20.256  -5.823  -6.419  0.00  0.00     0.249 C 
ENDROOT
BRANCH   1   5
HETATM    5  C           1     -19.901  -7.921  -5.222  0.00  0.00     0.190 C 
BRANCH   5   6
HETATM    6  C           1     -21.241  -8.644  -5.252  0.00  0.00     0.077 C 
BRANCH   6   7
HETATM    7  C           1     -21.547  -9.188  -3.892  0.00  0.00    -0.028 A 
HETATM    8  C           1     -21.633 -10.519  -3.551  0.00  0.00     0.096 A 
HETATM    9  N           1     -21.930 -10.590  -2.215  0.00  0.00    -0.365 N 
HETATM   10  C           1     -22.038  -9.325  -1.683  0.00  0.00     0.042 A 
HETATM   11  H           1     -22.057 -11.483  -1.676  0.00  0.00     0.165 HD
HETATM   12  C           1     -22.325  -8.915  -0.375  0.00  0.00     0.030 A 
HETATM   13  C           1     -21.801  -8.423  -2.720  0.00  0.00    -0.002 A 
HETATM   14  C           1     -22.368  -7.541  -0.124  0.00  0.00     0.002 A 
HETATM   15  C           1     -22.136  -6.616  -1.140  0.00  0.00     0.001 A 
HETATM   16  C           1     -21.851  -7.044  -2.443  0.00  0.00     0.014 A 
ENDBRANCH   6   7
ENDBRANCH   5   6
BRANCH   5  17
HETATM   17  C           1     -18.783  -8.934  -5.182  0.00  0.00     0.197 C 
HETATM   18  O           1     -18.243  -9.225  -4.093  0.00  0.00    -0.646 OA
HETATM   19  O           1     -18.398  -9.482  -6.236  0.00  0.00    -0.646 OA
ENDBRANCH   5  17
ENDBRANCH   1   5
BRANCH   4  20
HETATM   20  C           1     -21.677  -5.561  -6.857  0.00  0.00     0.275 C 
BRANCH  20  21
HETATM   21  N           1     -22.567  -5.493  -5.651  0.00  0.00    -0.066 N 
HETATM   22  H           1     -22.103  -5.973  -4.848  0.00  0.00     0.275 HD
HETATM   23  H           1     -23.475  -5.963  -5.863  0.00  0.00     0.275 HD
HETATM   24  H           1     -22.743  -4.492  -5.405  0.00  0.00     0.275 HD
ENDBRANCH  20  21
BRANCH  20  25
HETATM   25  C           1     -21.740  -4.238  -7.609  0.00  0.00     0.052 C 
BRANCH  25  26
HETATM   26  C           1     -21.912  -4.506  -9.098  0.00  0.00     0.105 C 
BRANCH  26  27
HETATM   27  C           1     -23.375  -4.424  -9.459  0.00  0.00     0.215 C 
HETATM   28  N           1     -24.230  -3.683  -8.688  0.00  0.00    -0.370 N 
HETATM   29  H           1     -23.880  -3.189  -7.877  0.00  0.00     0.159 HD
HETATM   30  H           1     -25.210  -3.628  -8.930  0.00  0.00     0.159 HD
HETATM   31  O           1     -23.792  -5.014 -10.428  0.00  0.00    -0.274 OA
ENDBRANCH  26  27
ENDBRANCH  25  26
ENDBRANCH  20  25
ENDBRANCH   4  20
TORSDOF 9
ENDMDL
MODEL 4
REMARK VINA RESULT:      -7.2      2.206      3.404
REMARK  9 active torsions:
REMARK  status: ('A' for Active; 'I' for Inactive)
REMARK    1  A    between atoms: C_1  and  C_2 
REMARK    2  A    between atoms: C_1  and  C_19 
REMARK    3  A    between atoms: C_2  and  C_9 
REMARK    4  A    between atoms: C_2  and  N_11 
REMARK       I    between atoms: N_11  and  C_29 
REMARK    5  A    between atoms: C_14  and  C_31 
REMARK       I    between atoms: C_14  and  N_15 
REMARK    6  A    between atoms: N_17  and  C_28 
REMARK    7  A    between atoms: C_27  and  C_28 
REMARK    8  A    between atoms: C_27  and  C_31 
REMARK    9  A    between atoms: C_28  and  C_29 
ROOT
HETATM    1  N           1     -21.285  -5.316  -8.690  0.00  0.00    -0.344 N 
HETATM    2  H           1     -20.841  -6.014  -9.273  0.00  0.00     0.163 HD
HETATM    3  O           1     -21.548  -3.293  -9.599  0.00  0.00    -0.271 OA
HETATM    4  C           1     -22.053  -4.337  -9.260  0.00  0.00     0.249 C 
ENDROOT
BRANCH   1   5
HETATM    5  C           1     -21.109  -5.353  -7.251  0.00  0.00     0.190 C 
BRANCH   5   6
HETATM    6  C           1     -21.101  -6.801  -6.779  0.00  0.00     0.077 C 
BRANCH   6   7
HETATM    7  C           1     -21.384  -6.850  -5.311  0.00  0.00    -0.028 A 
HETATM    8  C           1     -22.365  -6.146  -4.649  0.00  0.00     0.096 A 
HETATM    9  N           1     -22.291  -6.472  -3.321  0.00  0.00    -0.365 N 
HETATM   10  C           1     -21.276  -7.378  -3.109  0.00  0.00     0.042 A 
HETATM   11  H           1     -22.918  -6.085  -2.573  0.00  0.00     0.165 HD
HETATM   12  C           1     -20.838  -7.985  -1.925  0.00  0.00     0.030 A 
HETATM   13  C           1     -20.688  -7.633  -4.348  0.00  0.00    -0.002 A 
HETATM   14  C           1     -19.768  -8.880  -2.016  0.00  0.00     0.002 A 
HETATM   15  C           1     -19.161  -9.154  -3.240  0.00  0.00     0.001 A 
HETATM   16  C           1     -19.612  -8.538  -4.414  0.00  0.00     0.014 A 
ENDBRANCH   6   7
ENDBRANCH   5   6
BRANCH   5  17
HETATM   17  C           1     -19.800  -4.698  -6.888  0.00  0.00     0.197 C 
HETATM   18  O           1     -19.555  -4.407  -5.698  0.00  0.00    -0.646 OA
HETATM   19  O           1     -18.959  -4.446  -7.778  0.00  0.00    -0.646 OA
ENDBRANCH   5  17
ENDBRANCH   1   5
BRANCH   4  20
HETATM   20  C           1     -23.532  -4.560  -9.465  0.00  0.00     0.275 C 
BRANCH  20  21
HETATM   21  N           1     -24.294  -3.391  -8.915  0.00  0.00    -0.066 N 
HETATM   22  H           1     -24.198  -2.576  -9.562  0.00  0.00     0.275 HD
HETATM   23  H           1     -23.913  -3.139  -7.975  0.00  0.00     0.275 HD
HETATM   24  H           1     -25.303  -3.646  -8.824  0.00  0.00     0.275 HD
ENDBRANCH  20  21
BRANCH  20  25
HETATM   25  C           1     -23.823  -4.700 -10.954  0.00  0.00     0.052 C 
BRANCH  25  26
HETATM   26  C           1     -24.250  -3.351 -11.518  0.00  0.00     0.105 C 
BRANCH  26  27
HETATM   27  C           1     -23.467  -3.061 -12.774  0.00  0.00     0.215 C 
HETATM   28  N           1     -22.139  -3.391 -12.845  0.00  0.00    -0.370 N 
HETATM   29  H           1     -21.685  -3.830 -12.055  0.00  0.00     0.159 HD
HETATM   30  H           1     -21.614  -3.196 -13.688  0.00  0.00     0.159 HD
HETATM   31  O           1     -24.010  -2.536 -13.717  0.00  0.00    -0.274 OA
ENDBRANCH  26  27
ENDBRANCH  25  26
ENDBRANCH  20  25
ENDBRANCH   4  20
TORSDOF 9
ENDMDL
MODEL 5
REMARK VINA RESULT:      -7.2      2.401      2.935
REMARK  9 active torsions:
REMARK  status: ('A' for Active; 'I' for Inactive)
REMARK    1  A    between atoms: C_1  and  C_2 
REMARK    2  A    between atoms: C_1  and  C_19 
REMARK    3  A    between atoms: C_2  and  C_9 
REMARK    4  A    between atoms: C_2  and  N_11 
REMARK       I    between atoms: N_11  and  C_29 
REMARK    5  A    between atoms: C_14  and  C_31 
REMARK       I    between atoms: C_14  and  N_15 
REMARK    6  A    between atoms: N_17  and  C_28 
REMARK    7  A    between atoms: C_27  and  C_28 
REMARK    8  A    between atoms: C_27  and  C_31 
REMARK    9  A    between atoms: C_28  and  C_29 
ROOT
HETATM    1  N           1     -20.504  -6.678  -6.594  0.00  0.00    -0.344 N 
HETATM    2  H           1     -19.755  -7.168  -7.066  0.00  0.00     0.163 HD
HETATM    3  O           1     -20.211  -4.485  -6.291  0.00  0.00    -0.271 OA
HETATM    4  C           1     -20.765  -5.370  -6.900  0.00  0.00     0.249 C 
ENDROOT
BRANCH   1   5
HETATM    5  C           1     -21.300  -7.362  -5.594  0.00  0.00     0.190 C 
BRANCH   5   6
HETATM    6  C           1     -20.382  -8.129  -4.652  0.00  0.00     0.077 C 
BRANCH   6   7
HETATM    7  C           1     -21.163  -9.195  -3.949  0.00  0.00    -0.028 A 
HETATM    8  C           1     -21.579 -10.389  -4.494  0.00  0.00     0.096 A 
HETATM    9  N           1     -22.260 -11.076  -3.525  0.00  0.00    -0.365 N 
HETATM   10  C           1     -22.293 -10.347  -2.358  0.00  0.00     0.042 A 
HETATM   11  H           1     -22.695 -12.024  -3.655  0.00  0.00     0.165 HD
HETATM   12  C           1     -22.872 -10.649  -1.119  0.00  0.00     0.030 A 
HETATM   13  C           1     -21.608  -9.156  -2.599  0.00  0.00    -0.002 A 
HETATM   14  C           1     -22.743  -9.702  -0.098  0.00  0.00     0.002 A 
HETATM   15  C           1     -22.064  -8.504  -0.310  0.00  0.00     0.001 A 
HETATM   16  C           1     -21.492  -8.219  -1.556  0.00  0.00     0.014 A 
ENDBRANCH   6   7
ENDBRANCH   5   6
BRANCH   5  17
HETATM   17  C           1     -22.096  -6.350  -4.807  0.00  0.00     0.197 C 
HETATM   18  O           1     -23.269  -6.079  -5.144  0.00  0.00    -0.646 OA
HETATM   19  O           1     -21.584  -5.783  -3.819  0.00  0.00    -0.646 OA
ENDBRANCH   5  17
ENDBRANCH   1   5
BRANCH   4  20
HETATM   20  C           1     -21.746  -5.032  -7.997  0.00  0.00     0.275 C 
BRANCH  20  21
HETATM   21  N           1     -22.770  -4.069  -7.471  0.00  0.00    -0.066 N 
HETATM   22  H           1     -22.589  -3.119  -7.866  0.00  0.00     0.275 HD
HETATM   23  H           1     -22.709  -4.033  -6.429  0.00  0.00     0.275 HD
HETATM   24  H           1     -23.724  -4.389  -7.753  0.00  0.00     0.275 HD
ENDBRANCH  20  21
BRANCH  20  25
HETATM   25  C           1     -21.003  -4.395  -9.164  0.00  0.00     0.052 C 
BRANCH  25  26
HETATM   26  C           1     -21.984  -4.097 -10.290  0.00  0.00     0.105 C 
BRANCH  26  27
HETATM   27  C           1     -21.225  -3.885 -11.576  0.00  0.00     0.215 C 
HETATM   28  N           1     -21.902  -3.603 -12.732  0.00  0.00    -0.370 N 
HETATM   29  H           1     -22.912  -3.535 -12.724  0.00  0.00     0.159 HD
HETATM   30  H           1     -21.393  -3.460 -13.595  0.00  0.00     0.159 HD
HETATM   31  O           1     -20.019  -3.966 -11.587  0.00  0.00    -0.274 OA
ENDBRANCH  26  27
ENDBRANCH  25  26
ENDBRANCH  20  25
ENDBRANCH   4  20
TORSDOF 9
ENDMDL
MODEL 6
REMARK VINA RESULT:      -7.0      2.805      5.140
REMARK  9 active torsions:
REMARK  status: ('A' for Active; 'I' for Inactive)
REMARK    1  A    between atoms: C_1  and  C_2 
REMARK    2  A    between atoms: C_1  and  C_19 
REMARK    3  A    between atoms: C_2  and  C_9 
REMARK    4  A    between atoms: C_2  and  N_11 
REMARK       I    between atoms: N_11  and  C_29 
REMARK    5  A    between atoms: C_14  and  C_31 
REMARK       I    between atoms: C_14  and  N_15 
REMARK    6  A    between atoms: N_17  and  C_28 
REMARK    7  A    between atoms: C_27  and  C_28 
REMARK    8  A    between atoms: C_27  and  C_31 
REMARK    9  A    between atoms: C_28  and  C_29 
ROOT
HETATM    1  N           1     -20.882  -7.384  -2.323  0.00  0.00    -0.344 N 
HETATM    2  H           1     -19.970  -7.060  -2.028  0.00  0.00     0.163 HD
HETATM    3  O           1     -22.499  -5.845  -2.395  0.00  0.00    -0.271 OA
HETATM    4  C           1     -21.720  -6.541  -3.002  0.00  0.00     0.249 C 
ENDROOT
BRANCH   1   5
HETATM    5  C           1     -21.301  -8.740  -2.027  0.00  0.00     0.190 C 
BRANCH   5   6
HETATM    6  C           1     -20.088  -9.660  -2.042  0.00  0.00     0.077 C 
BRANCH   6   7
HETATM    7  C           1     -19.570  -9.782  -3.441  0.00  0.00    -0.028 A 
HETATM    8  C           1     -20.331  -9.939  -4.577  0.00  0.00     0.096 A 
HETATM    9  N           1     -19.477 -10.010  -5.646  0.00  0.00    -0.365 N 
HETATM   10  C           1     -18.172  -9.902  -5.221  0.00  0.00     0.042 A 
HETATM   11  H           1     -19.776 -10.130  -6.646  0.00  0.00     0.165 HD
HETATM   12  C           1     -16.978  -9.920  -5.953  0.00  0.00     0.030 A 
HETATM   13  C           1     -18.203  -9.757  -3.834  0.00  0.00    -0.002 A 
HETATM   14  C           1     -15.782  -9.786  -5.241  0.00  0.00     0.002 A 
HETATM   15  C           1     -15.783  -9.640  -3.855  0.00  0.00     0.001 A 
HETATM   16  C           1     -16.986  -9.624  -3.140  0.00  0.00     0.014 A 
ENDBRANCH   6   7
ENDBRANCH   5   6
BRANCH   5  17
HETATM   17  C           1     -21.947  -8.780  -0.665  0.00  0.00     0.197 C 
HETATM   18  O           1     -22.985  -9.452  -0.485  0.00  0.00    -0.646 OA
HETATM   19  O           1     -21.444  -8.142   0.285  0.00  0.00    -0.646 OA
ENDBRANCH   5  17
ENDBRANCH   1   5
BRANCH   4  20
HETATM   20  C           1     -21.671  -6.481  -4.510  0.00  0.00     0.275 C 
BRANCH  20  21
HETATM   21  N           1     -23.030  -6.129  -5.039  0.00  0.00    -0.066 N 
HETATM   22  H           1     -23.763  -6.588  -4.452  0.00  0.00     0.275 HD
HETATM   23  H           1     -23.115  -6.461  -6.026  0.00  0.00     0.275 HD
HETATM   24  H           1     -23.157  -5.093  -5.009  0.00  0.00     0.275 HD
ENDBRANCH  20  21
BRANCH  20  25
HETATM   25  C           1     -20.668  -5.420  -4.944  0.00  0.00     0.052 C 
BRANCH  25  26
HETATM   26  C           1     -20.236  -5.685  -6.380  0.00  0.00     0.105 C 
BRANCH  26  27
HETATM   27  C           1     -20.692  -4.548  -7.261  0.00  0.00     0.215 C 
HETATM   28  N           1     -19.790  -3.895  -8.058  0.00  0.00    -0.370 N 
HETATM   29  H           1     -18.818  -4.176  -8.056  0.00  0.00     0.159 HD
HETATM   30  H           1     -20.096  -3.133  -8.649  0.00  0.00     0.159 HD
HETATM   31  O           1     -21.853  -4.213  -7.263  0.00  0.00    -0.274 OA
ENDBRANCH  26  27
ENDBRANCH  25  26
ENDBRANCH  20  25
ENDBRANCH   4  20
TORSDOF 9
ENDMDL
MODEL 7
REMARK VINA RESULT:      -7.0      2.489      7.639
REMARK  9 active torsions:
REMARK  status: ('A' for Active; 'I' for Inactive)
REMARK    1  A    between atoms: C_1  and  C_2 
REMARK    2  A    between atoms: C_1  and  C_19 
REMARK    3  A    between atoms: C_2  and  C_9 
REMARK    4  A    between atoms: C_2  and  N_11 
REMARK       I    between atoms: N_11  and  C_29 
REMARK    5  A    between atoms: C_14  and  C_31 
REMARK       I    between atoms: C_14  and  N_15 
REMARK    6  A    between atoms: N_17  and  C_28 
REMARK    7  A    between atoms: C_27  and  C_28 
REMARK    8  A    between atoms: C_27  and  C_31 
REMARK    9  A    between atoms: C_28  and  C_29 
ROOT
HETATM    1  N           1     -22.540  -6.573  -4.047  0.00  0.00    -0.344 N 
HETATM    2  H           1     -23.548  -6.623  -4.128  0.00  0.00     0.163 HD
HETATM    3  O           1     -21.747  -5.447  -2.289  0.00  0.00    -0.271 OA
HETATM    4  C           1     -21.956  -6.517  -2.811  0.00  0.00     0.249 C 
ENDROOT
BRANCH   1   5
HETATM    5  C           1     -21.716  -6.560  -5.240  0.00  0.00     0.190 C 
BRANCH   5   6
HETATM    6  C           1     -20.808  -5.338  -5.216  0.00  0.00     0.077 C 
BRANCH   6   7
HETATM    7  C           1     -20.529  -4.895  -6.618  0.00  0.00    -0.028 A 
HETATM    8  C           1     -19.286  -4.774  -7.199  0.00  0.00     0.096 A 
HETATM    9  N           1     -19.466  -4.344  -8.486  0.00  0.00    -0.365 N 
HETATM   10  C           1     -20.807  -4.183  -8.752  0.00  0.00     0.042 A 
HETATM   11  H           1     -18.691  -4.162  -9.172  0.00  0.00     0.165 HD
HETATM   12  C           1     -21.454  -3.765  -9.922  0.00  0.00     0.030 A 
HETATM   13  C           1     -21.499  -4.524  -7.590  0.00  0.00    -0.002 A 
HETATM   14  C           1     -22.850  -3.697  -9.899  0.00  0.00     0.002 A 
HETATM   15  C           1     -23.568  -4.032  -8.752  0.00  0.00     0.001 A 
HETATM   16  C           1     -22.904  -4.448  -7.591  0.00  0.00     0.014 A 
ENDBRANCH   6   7
ENDBRANCH   5   6
BRANCH   5  17
HETATM   17  C           1     -20.875  -7.812  -5.282  0.00  0.00     0.197 C 
HETATM   18  O           1     -21.379  -8.892  -5.659  0.00  0.00    -0.646 OA
HETATM   19  O           1     -19.673  -7.770  -4.941  0.00  0.00    -0.646 OA
ENDBRANCH   5  17
ENDBRANCH   1   5
BRANCH   4  20
HETATM   20  C           1     -21.571  -7.792  -2.099  0.00  0.00     0.275 C 
BRANCH  20  21
HETATM   21  N           1     -20.086  -7.813  -1.882  0.00  0.00    -0.066 N 
HETATM   22  H           1     -19.636  -7.080  -2.476  0.00  0.00     0.275 HD
HETATM   23  H           1     -19.710  -8.753  -2.142  0.00  0.00     0.275 HD
HETATM   24  H           1     -19.879  -7.622  -0.876  0.00  0.00     0.275 HD
ENDBRANCH  20  21
BRANCH  20  25
HETATM   25  C           1     -22.280  -7.857  -0.753  0.00  0.00     0.052 C 
BRANCH  25  26
HETATM   26  C           1     -21.342  -8.450   0.289  0.00  0.00     0.105 C 
BRANCH  26  27
HETATM   27  C           1     -21.570  -9.939   0.382  0.00  0.00     0.215 C 
HETATM   28  N           1     -20.550 -10.765   0.773  0.00  0.00    -0.370 N 
HETATM   29  H           1     -19.644 -10.376   1.000  0.00  0.00     0.159 HD
HETATM   30  H           1     -20.703 -11.763   0.835  0.00  0.00     0.159 HD
HETATM   31  O           1     -22.653 -10.403   0.111  0.00  0.00    -0.274 OA
ENDBRANCH  26  27
ENDBRANCH  25  26
ENDBRANCH  20  25
ENDBRANCH   4  20
TORSDOF 9
ENDMDL
MODEL 8
REMARK VINA RESULT:      -7.0      1.761      2.112
REMARK  9 active torsions:
REMARK  status: ('A' for Active; 'I' for Inactive)
REMARK    1  A    between atoms: C_1  and  C_2 
REMARK    2  A    between atoms: C_1  and  C_19 
REMARK    3  A    between atoms: C_2  and  C_9 
REMARK    4  A    between atoms: C_2  and  N_11 
REMARK       I    between atoms: N_11  and  C_29 
REMARK    5  A    between atoms: C_14  and  C_31 
REMARK       I    between atoms: C_14  and  N_15 
REMARK    6  A    between atoms: N_17  and  C_28 
REMARK    7  A    between atoms: C_27  and  C_28 
REMARK    8  A    between atoms: C_27  and  C_31 
REMARK    9  A    between atoms: C_28  and  C_29 
ROOT
HETATM    1  N           1     -20.944  -7.910  -5.691  0.00  0.00    -0.344 N 
HETATM    2  H           1     -21.679  -8.433  -6.151  0.00  0.00     0.163 HD
HETATM    3  O           1     -19.624  -6.691  -7.017  0.00  0.00    -0.271 OA
HETATM    4  C           1     -20.526  -6.716  -6.214  0.00  0.00     0.249 C 
ENDROOT
BRANCH   1   5
HETATM    5  C           1     -20.337  -8.423  -4.479  0.00  0.00     0.190 C 
BRANCH   5   6
HETATM    6  C           1     -21.381  -9.181  -3.670  0.00  0.00     0.077 C 
BRANCH   6   7
HETATM    7  C           1     -21.515  -8.557  -2.317  0.00  0.00    -0.028 A 
HETATM    8  C           1     -22.006  -7.299  -2.048  0.00  0.00     0.096 A 
HETATM    9  N           1     -21.960  -7.113  -0.692  0.00  0.00    -0.365 N 
HETATM   10  C           1     -21.447  -8.231  -0.074  0.00  0.00     0.042 A 
HETATM   11  H           1     -22.272  -6.241  -0.195  0.00  0.00     0.165 HD
HETATM   12  C           1     -21.219  -8.491   1.283  0.00  0.00     0.030 A 
HETATM   13  C           1     -21.158  -9.157  -1.077  0.00  0.00    -0.002 A 
HETATM   14  C           1     -20.680  -9.736   1.620  0.00  0.00     0.002 A 
HETATM   15  C           1     -20.381 -10.680   0.640  0.00  0.00     0.001 A 
HETATM   16  C           1     -20.616 -10.403  -0.713  0.00  0.00     0.014 A 
ENDBRANCH   6   7
ENDBRANCH   5   6
BRANCH   5  17
HETATM   17  C           1     -19.206  -9.355  -4.840  0.00  0.00     0.197 C 
HETATM   18  O           1     -18.224  -9.470  -4.076  0.00  0.00    -0.646 OA
HETATM   19  O           1     -19.252 -10.012  -5.902  0.00  0.00    -0.646 OA
ENDBRANCH   5  17
ENDBRANCH   1   5
BRANCH   4  20
HETATM   20  C           1     -21.191  -5.430  -5.787  0.00  0.00     0.275 C 
BRANCH  20  21
HETATM   21  N           1     -20.143  -4.388  -5.528  0.00  0.00    -0.066 N 
HETATM   22  H           1     -19.196  -4.795  -5.703  0.00  0.00     0.275 HD
HETATM   23  H           1     -20.208  -4.069  -4.535  0.00  0.00     0.275 HD
HETATM   24  H           1     -20.296  -3.575  -6.165  0.00  0.00     0.275 HD
ENDBRANCH  20  21
BRANCH  20  25
HETATM   25  C           1     -22.122  -4.948  -6.892  0.00  0.00     0.052 C 
BRANCH  25  26
HETATM   26  C           1     -21.522  -3.720  -7.564  0.00  0.00     0.105 C 
BRANCH  26  27
HETATM   27  C           1     -21.189  -4.045  -9.000  0.00  0.00     0.215 C 
HETATM   28  N           1     -20.032  -4.712  -9.301  0.00  0.00    -0.370 N 
HETATM   29  H           1     -19.400  -4.988  -8.560  0.00  0.00     0.159 HD
HETATM   30  H           1     -19.810  -4.930 -10.263  0.00  0.00     0.159 HD
HETATM   31  O           1     -21.944  -3.715  -9.884  0.00  0.00    -0.274 OA
ENDBRANCH  26  27
ENDBRANCH  25  26
ENDBRANCH  20  25
ENDBRANCH   4  20
TORSDOF 9
ENDMDL
MODEL 9
REMARK VINA RESULT:      -6.9     12.457     15.577
REMARK  9 active torsions:
REMARK  status: ('A' for Active; 'I' for Inactive)
REMARK    1  A    between atoms: C_1  and  C_2 
REMARK    2  A    between atoms: C_1  and  C_19 
REMARK    3  A    between atoms: C_2  and  C_9 
REMARK    4  A    between atoms: C_2  and  N_11 
REMARK       I    between atoms: N_11  and  C_29 
REMARK    5  A    between atoms: C_14  and  C_31 
REMARK       I    between atoms: C_14  and  N_15 
REMARK    6  A    between atoms: N_17  and  C_28 
REMARK    7  A    between atoms: C_27  and  C_28 
REMARK    8  A    between atoms: C_27  and  C_31 
REMARK    9  A    between atoms: C_28  and  C_29 
ROOT
HETATM    1  N           1     -28.042  -6.768 -16.407  0.00  0.00    -0.344 N 
HETATM    2  H           1     -28.173  -6.102 -15.655  0.00  0.00     0.163 HD
HETATM    3  O           1     -29.329  -8.592 -16.344  0.00  0.00    -0.271 OA
HETATM    4  C           1     -29.099  -7.518 -16.847  0.00  0.00     0.249 C 
ENDROOT
BRANCH   1   5
HETATM    5  C           1     -26.737  -6.925 -17.017  0.00  0.00     0.190 C 
BRANCH   5   6
HETATM    6  C           1     -26.614  -5.979 -18.204  0.00  0.00     0.077 C 
BRANCH   6   7
HETATM    7  C           1     -26.253  -6.758 -19.429  0.00  0.00    -0.028 A 
HETATM    8  C           1     -27.124  -7.187 -20.405  0.00  0.00     0.096 A 
HETATM    9  N           1     -26.397  -7.861 -21.349  0.00  0.00    -0.365 N 
HETATM   10  C           1     -25.065  -7.877 -21.003  0.00  0.00     0.042 A 
HETATM   11  H           1     -26.799  -8.303 -22.214  0.00  0.00     0.165 HD
HETATM   12  C           1     -23.965  -8.443 -21.659  0.00  0.00     0.030 A 
HETATM   13  C           1     -24.947  -7.188 -19.795  0.00  0.00    -0.002 A 
HETATM   14  C           1     -22.710  -8.298 -21.062  0.00  0.00     0.002 A 
HETATM   15  C           1     -22.562  -7.614 -19.856  0.00  0.00     0.001 A 
HETATM   16  C           1     -23.673  -7.054 -19.213  0.00  0.00     0.014 A 
ENDBRANCH   6   7
ENDBRANCH   5   6
BRANCH   5  17
HETATM   17  C           1     -25.667  -6.603 -16.004  0.00  0.00     0.197 C 
HETATM   18  O           1     -25.333  -7.456 -15.154  0.00  0.00    -0.646 OA
HETATM   19  O           1     -25.112  -5.482 -16.014  0.00  0.00    -0.646 OA
ENDBRANCH   5  17
ENDBRANCH   1   5
BRANCH   4  20
HETATM   20  C           1     -29.977  -7.004 -17.962  0.00  0.00     0.275 C 
BRANCH  20  21
HETATM   21  N           1     -30.274  -8.121 -18.919  0.00  0.00    -0.066 N 
HETATM   22  H           1     -29.951  -9.026 -18.509  0.00  0.00     0.275 HD
HETATM   23  H           1     -29.775  -7.948 -19.821  0.00  0.00     0.275 HD
HETATM   24  H           1     -31.303  -8.164 -19.094  0.00  0.00     0.275 HD
ENDBRANCH  20  21
BRANCH  20  25
HETATM   25  C           1     -31.282  -6.476 -17.379  0.00  0.00     0.052 C 
BRANCH  25  26
HETATM   26  C           1     -31.003  -5.222 -16.561  0.00  0.00     0.105 C 
BRANCH  26  27
HETATM   27  C           1     -31.891  -4.100 -17.041  0.00  0.00     0.215 C 
HETATM   28  N           1     -33.240  -4.150 -16.814  0.00  0.00    -0.370 N 
HETATM   29  H           1     -33.642  -4.939 -16.324  0.00  0.00     0.159 HD
HETATM   30  H           1     -33.835  -3.397 -17.136  0.00  0.00     0.159 HD
HETATM   31  O           1     -31.411  -3.158 -17.626  0.00  0.00    -0.274 OA
ENDBRANCH  26  27
ENDBRANCH  25  26
ENDBRANCH  20  25
ENDBRANCH   4  20
TORSDOF 9
ENDMDL
