MODEL 1
REMARK VINA RESULT:      -6.3      0.000      0.000
REMARK  10 active torsions:
REMARK  status: ('A' for Active; 'I' for Inactive)
REMARK    1  A    between atoms: N_7  and  C_14 
REMARK    2  A    between atoms: O_10  and  P_11 
REMARK    3  A    between atoms: P_11  and  O_12 
REMARK    4  A    between atoms: O_12  and  C_13 
REMARK    5  A    between atoms: C_13  and  C_14 
REMARK    6  A    between atoms: C_14  and  C_15 
REMARK       I    between atoms: C_15  and  N_16 
REMARK    7  A    between atoms: N_16  and  C_20 
REMARK    8  A    between atoms: C_19  and  C_20 
REMARK    9  A    between atoms: C_20  and  C_21 
REMARK   10  A    between atoms: C_21  and  C_23 
ROOT
HETATM    1  C           1     -33.593  -2.098 -11.271  0.00  0.00     0.298 C 
ENDROOT
BRANCH   1   2
HETATM    2  N           1     -34.276  -1.859  -9.956  0.00  0.00    -0.064 N 
HETATM    3  H           1     -33.729  -1.160  -9.403  0.00  0.00     0.275 HD
HETATM    4  H           1     -34.333  -2.757  -9.426  0.00  0.00     0.275 HD
HETATM    5  H           1     -35.239  -1.492 -10.126  0.00  0.00     0.275 HD
ENDBRANCH   1   2
BRANCH   1   6
HETATM    6  C           1     -33.101  -3.537 -11.332  0.00  0.00     0.224 C 
BRANCH   6   7
HETATM    7  O           1     -33.848  -4.325 -10.444  0.00  0.00    -0.287 OA
BRANCH   7   8
HETATM    8  P           1     -34.183  -5.826 -10.939  0.00  0.00     0.406 P 
HETATM    9  O           1     -34.974  -5.769 -12.188  0.00  0.00    -0.624 OA
HETATM   10  O           1     -34.958  -6.528  -9.892  0.00  0.00    -0.624 OA
BRANCH   8  11
HETATM   11  O           1     -32.805  -6.623 -11.212  0.00  0.00    -0.300 OA
HETATM   12  H           1     -32.123  -5.997 -11.040  0.00  0.00     0.223 HD
ENDBRANCH   8  11
ENDBRANCH   7   8
ENDBRANCH   6   7
ENDBRANCH   1   6
BRANCH   1  13
HETATM   13  C           1     -34.566  -1.849 -12.396  0.00  0.00     0.251 C 
HETATM   14  O           1     -34.649  -2.637 -13.308  0.00  0.00    -0.271 OA
HETATM   15  N           1     -35.357  -0.732 -12.383  0.00  0.00    -0.344 N 
HETATM   16  H           1     -35.287  -0.071 -11.619  0.00  0.00     0.163 HD
BRANCH  15  17
HETATM   17  C           1     -36.293  -0.493 -13.464  0.00  0.00     0.195 C 
BRANCH  17  18
HETATM   18  C           1     -35.748   0.582 -14.372  0.00  0.00     0.197 C 
HETATM   19  O           1     -36.201   0.712 -15.530  0.00  0.00    -0.646 OA
HETATM   20  O           1     -34.844   1.344 -13.967  0.00  0.00    -0.646 OA
ENDBRANCH  17  18
BRANCH  17  21
HETATM   21  C           1     -37.629  -0.043 -12.888  0.00  0.00     0.149 C 
BRANCH  21  22
HETATM   22  C           1     -37.628  -0.251 -11.393  0.00  0.00     0.175 C 
HETATM   23  O           1     -37.538   0.732 -10.625  0.00  0.00    -0.648 OA
HETATM   24  O           1     -37.717  -1.405 -10.922  0.00  0.00    -0.648 OA
ENDBRANCH  21  22
ENDBRANCH  17  21
ENDBRANCH  15  17
ENDBRANCH   1  13
TORSDOF 10
ENDMDL
MODEL 2
REMARK VINA RESULT:      -6.2      8.619     10.808
REMARK  10 active torsions:
REMARK  status: ('A' for Active; 'I' for Inactive)
REMARK    1  A    between atoms: N_7  and  C_14 
REMARK    2  A    between atoms: O_10  and  P_11 
REMARK    3  A    between atoms: P_11  and  O_12 
REMARK    4  A    between atoms: O_12  and  C_13 
REMARK    5  A    between atoms: C_13  and  C_14 
REMARK    6  A    between atoms: C_14  and  C_15 
REMARK       I    between atoms: C_15  and  N_16 
REMARK    7  A    between atoms: N_16  and  C_20 
REMARK    8  A    between atoms: C_19  and  C_20 
REMARK    9  A    between atoms: C_20  and  C_21 
REMARK   10  A    between atoms: C_21  and  C_23 
ROOT
HETATM    1  C           1     -30.173  -7.127 -18.653  0.00  0.00     0.298 C 
ENDROOT
BRANCH   1   2
HETATM    2  N           1     -29.840  -8.583 -18.798  0.00  0.00    -0.064 N 
HETATM    3  H           1     -28.888  -8.681 -19.217  0.00  0.00     0.275 HD
HETATM    4  H           1     -30.545  -9.040 -19.419  0.00  0.00     0.275 HD
HETATM    5  H           1     -29.856  -9.038 -17.858  0.00  0.00     0.275 HD
ENDBRANCH   1   2
BRANCH   1   6
HETATM    6  C           1     -30.993  -6.918 -17.388  0.00  0.00     0.224 C 
BRANCH   6   7
HETATM    7  O           1     -31.951  -5.918 -17.611  0.00  0.00    -0.287 OA
BRANCH   7   8
HETATM    8  P           1     -31.826  -4.599 -16.688  0.00  0.00     0.406 P 
HETATM    9  O           1     -33.139  -4.298 -16.076  0.00  0.00    -0.624 OA
HETATM   10  O           1     -31.393  -3.455 -17.521  0.00  0.00    -0.624 OA
BRANCH   8  11
HETATM   11  O           1     -30.737  -4.857 -15.523  0.00  0.00    -0.300 OA
HETATM   12  H           1     -30.100  -4.171 -15.628  0.00  0.00     0.223 HD
ENDBRANCH   8  11
ENDBRANCH   7   8
ENDBRANCH   6   7
ENDBRANCH   1   6
BRANCH   1  13
HETATM   13  C           1     -28.898  -6.325 -18.567  0.00  0.00     0.251 C 
HETATM   14  O           1     -28.905  -5.148 -18.839  0.00  0.00    -0.271 OA
HETATM   15  N           1     -27.734  -6.931 -18.177  0.00  0.00    -0.344 N 
HETATM   16  H           1     -27.728  -7.917 -17.949  0.00  0.00     0.163 HD
BRANCH  15  17
HETATM   17  C           1     -26.509  -6.160 -18.093  0.00  0.00     0.195 C 
BRANCH  17  18
HETATM   18  C           1     -25.518  -6.680 -19.106  0.00  0.00     0.197 C 
HETATM   19  O           1     -25.917  -7.091 -20.217  0.00  0.00    -0.646 OA
HETATM   20  O           1     -24.298  -6.700 -18.834  0.00  0.00    -0.646 OA
ENDBRANCH  17  18
BRANCH  17  21
HETATM   21  C           1     -25.922  -6.291 -16.694  0.00  0.00     0.149 C 
BRANCH  21  22
HETATM   22  C           1     -27.024  -6.616 -15.715  0.00  0.00     0.175 C 
HETATM   23  O           1     -27.058  -7.737 -15.162  0.00  0.00    -0.648 OA
HETATM   24  O           1     -27.901  -5.765 -15.456  0.00  0.00    -0.648 OA
ENDBRANCH  21  22
ENDBRANCH  17  21
ENDBRANCH  15  17
ENDBRANCH   1  13
TORSDOF 10
ENDMDL
MODEL 3
REMARK VINA RESULT:      -6.2      2.456      3.965
REMARK  10 active torsions:
REMARK  status: ('A' for Active; 'I' for Inactive)
REMARK    1  A    between atoms: N_7  and  C_14 
REMARK    2  A    between atoms: O_10  and  P_11 
REMARK    3  A    between atoms: P_11  and  O_12 
REMARK    4  A    between atoms: O_12  and  C_13 
REMARK    5  A    between atoms: C_13  and  C_14 
REMARK    6  A    between atoms: C_14  and  C_15 
REMARK       I    between atoms: C_15  and  N_16 
REMARK    7  A    between atoms: N_16  and  C_20 
REMARK    8  A    between atoms: C_19  and  C_20 
REMARK    9  A    between atoms: C_20  and  C_21 
REMARK   10  A    between atoms: C_21  and  C_23 
ROOT
HETATM    1  C           1     -33.624  -3.623 -11.762  0.00  0.00     0.298 C 
ENDROOT
BRANCH   1   2
HETATM    2  N           1     -33.863  -4.535 -10.595  0.00  0.00    -0.064 N 
HETATM    3  H           1     -32.945  -4.832 -10.192  0.00  0.00     0.275 HD
HETATM    4  H           1     -34.394  -5.377 -10.915  0.00  0.00     0.275 HD
HETATM    5  H           1     -34.416  -4.031  -9.866  0.00  0.00     0.275 HD
ENDBRANCH   1   2
BRANCH   1   6
HETATM    6  C           1     -34.337  -4.172 -12.989  0.00  0.00     0.224 C 
BRANCH   6   7
HETATM    7  O           1     -34.126  -3.313 -14.077  0.00  0.00    -0.287 OA
BRANCH   7   8
HETATM    8  P           1     -34.206  -3.991 -15.541  0.00  0.00     0.406 P 
HETATM    9  O           1     -35.044  -5.209 -15.475  0.00  0.00    -0.624 OA
HETATM   10  O           1     -32.844  -4.350 -15.992  0.00  0.00    -0.624 OA
BRANCH   8  11
HETATM   11  O           1     -34.860  -2.946 -16.584  0.00  0.00    -0.300 OA
HETATM   12  H           1     -35.643  -3.367 -16.893  0.00  0.00     0.223 HD
ENDBRANCH   8  11
ENDBRANCH   7   8
ENDBRANCH   6   7
ENDBRANCH   1   6
BRANCH   1  13
HETATM   13  C           1     -34.156  -2.248 -11.442  0.00  0.00     0.251 C 
HETATM   14  O           1     -33.558  -1.533 -10.674  0.00  0.00    -0.271 OA
HETATM   15  N           1     -35.314  -1.809 -12.025  0.00  0.00    -0.344 N 
HETATM   16  H           1     -35.815  -2.408 -12.669  0.00  0.00     0.163 HD
BRANCH  15  17
HETATM   17  C           1     -35.824  -0.487 -11.718  0.00  0.00     0.195 C 
BRANCH  17  18
HETATM   18  C           1     -36.793  -0.577 -10.565  0.00  0.00     0.197 C 
HETATM   19  O           1     -37.959  -0.986 -10.758  0.00  0.00    -0.646 OA
HETATM   20  O           1     -36.431  -0.244  -9.416  0.00  0.00    -0.646 OA
ENDBRANCH  17  18
BRANCH  17  21
HETATM   21  C           1     -36.538   0.077 -12.940  0.00  0.00     0.149 C 
BRANCH  21  22
HETATM   22  C           1     -35.822  -0.368 -14.192  0.00  0.00     0.175 C 
HETATM   23  O           1     -34.643  -0.008 -14.399  0.00  0.00    -0.648 OA
HETATM   24  O           1     -36.408  -1.096 -15.022  0.00  0.00    -0.648 OA
ENDBRANCH  21  22
ENDBRANCH  17  21
ENDBRANCH  15  17
ENDBRANCH   1  13
TORSDOF 10
ENDMDL
MODEL 4
REMARK VINA RESULT:      -6.1      2.580      6.017
REMARK  10 active torsions:
REMARK  status: ('A' for Active; 'I' for Inactive)
REMARK    1  A    between atoms: N_7  and  C_14 
REMARK    2  A    between atoms: O_10  and  P_11 
REMARK    3  A    between atoms: P_11  and  O_12 
REMARK    4  A    between atoms: O_12  and  C_13 
REMARK    5  A    between atoms: C_13  and  C_14 
REMARK    6  A    between atoms: C_14  and  C_15 
REMARK       I    between atoms: C_15  and  N_16 
REMARK    7  A    between atoms: N_16  and  C_20 
REMARK    8  A    between atoms: C_19  and  C_20 
REMARK    9  A    between atoms: C_20  and  C_21 
REMARK   10  A    between atoms: C_21  and  C_23 
ROOT
HETATM    1  C           1     -35.999  -0.028 -12.536  0.00  0.00     0.298 C 
ENDROOT
BRANCH   1   2
HETATM    2  N           1     -34.792   0.615 -13.155  0.00  0.00    -0.064 N 
HETATM    3  H           1     -33.944   0.044 -12.937  0.00  0.00     0.275 HD
HETATM    4  H           1     -34.675   1.578 -12.768  0.00  0.00     0.275 HD
HETATM    5  H           1     -34.919   0.669 -14.190  0.00  0.00     0.275 HD
ENDBRANCH   1   2
BRANCH   1   6
HETATM    6  C           1     -37.169   0.053 -13.507  0.00  0.00     0.224 C 
BRANCH   6   7
HETATM    7  O           1     -36.982  -0.873 -14.543  0.00  0.00    -0.287 OA
BRANCH   7   8
HETATM    8  P           1     -36.270  -0.306 -15.878  0.00  0.00     0.406 P 
HETATM    9  O           1     -36.375   1.169 -15.905  0.00  0.00    -0.624 OA
HETATM   10  O           1     -36.938  -0.873 -17.071  0.00  0.00    -0.624 OA
BRANCH   8  11
HETATM   11  O           1     -34.712  -0.734 -15.881  0.00  0.00    -0.300 OA
HETATM   12  H           1     -34.279  -0.079 -15.362  0.00  0.00     0.223 HD
ENDBRANCH   8  11
ENDBRANCH   7   8
ENDBRANCH   6   7
ENDBRANCH   1   6
BRANCH   1  13
HETATM   13  C           1     -35.697  -1.473 -12.229  0.00  0.00     0.251 C 
HETATM   14  O           1     -36.336  -2.058 -11.387  0.00  0.00    -0.271 OA
HETATM   15  N           1     -34.699  -2.123 -12.904  0.00  0.00    -0.344 N 
HETATM   16  H           1     -34.163  -1.633 -13.608  0.00  0.00     0.163 HD
BRANCH  15  17
HETATM   17  C           1     -34.410  -3.513 -12.608  0.00  0.00     0.195 C 
BRANCH  17  18
HETATM   18  C           1     -33.610  -3.598 -11.331  0.00  0.00     0.197 C 
HETATM   19  O           1     -33.739  -4.588 -10.577  0.00  0.00    -0.646 OA
HETATM   20  O           1     -32.819  -2.681 -11.025  0.00  0.00    -0.646 OA
ENDBRANCH  17  18
BRANCH  17  21
HETATM   21  C           1     -33.606  -4.118 -13.752  0.00  0.00     0.149 C 
BRANCH  21  22
HETATM   22  C           1     -34.506  -4.320 -14.947  0.00  0.00     0.175 C 
HETATM   23  O           1     -35.174  -5.372 -15.056  0.00  0.00    -0.648 OA
HETATM   24  O           1     -34.583  -3.437 -15.828  0.00  0.00    -0.648 OA
ENDBRANCH  21  22
ENDBRANCH  17  21
ENDBRANCH  15  17
ENDBRANCH   1  13
TORSDOF 10
ENDMDL
MODEL 5
REMARK VINA RESULT:      -6.0     11.807     14.712
REMARK  10 active torsions:
REMARK  status: ('A' for Active; 'I' for Inactive)
REMARK    1  A    between atoms: N_7  and  C_14 
REMARK    2  A    between atoms: O_10  and  P_11 
REMARK    3  A    between atoms: P_11  and  O_12 
REMARK    4  A    between atoms: O_12  and  C_13 
REMARK    5  A    between atoms: C_13  and  C_14 
REMARK    6  A    between atoms: C_14  and  C_15 
REMARK       I    between atoms: C_15  and  N_16 
REMARK    7  A    between atoms: N_16  and  C_20 
REMARK    8  A    between atoms: C_19  and  C_20 
REMARK    9  A    between atoms: C_20  and  C_21 
REMARK   10  A    between atoms: C_21  and  C_23 
ROOT
HETATM    1  C           1     -23.678  -4.436  -9.243  0.00  0.00     0.298 C 
ENDROOT
BRANCH   1   2
HETATM    2  N           1     -24.680  -3.350  -8.982  0.00  0.00    -0.064 N 
HETATM    3  H           1     -25.583  -3.591  -9.451  0.00  0.00     0.275 HD
HETATM    4  H           1     -24.318  -2.446  -9.362  0.00  0.00     0.275 HD
HETATM    5  H           1     -24.835  -3.259  -7.954  0.00  0.00     0.275 HD
ENDBRANCH   1   2
BRANCH   1   6
HETATM    6  C           1     -23.375  -4.499 -10.734  0.00  0.00     0.224 C 
BRANCH   6   7
HETATM    7  O           1     -24.265  -3.668 -11.427  0.00  0.00    -0.287 OA
BRANCH   7   8
HETATM    8  P           1     -23.888  -3.353 -12.966  0.00  0.00     0.406 P 
HETATM    9  O           1     -22.438  -3.076 -13.072  0.00  0.00    -0.624 OA
HETATM   10  O           1     -24.653  -2.174 -13.430  0.00  0.00    -0.624 OA
BRANCH   8  11
HETATM   11  O           1     -24.259  -4.629 -13.884  0.00  0.00    -0.300 OA
HETATM   12  H           1     -23.984  -5.377 -13.384  0.00  0.00     0.223 HD
ENDBRANCH   8  11
ENDBRANCH   7   8
ENDBRANCH   6   7
ENDBRANCH   1   6
BRANCH   1  13
HETATM   13  C           1     -22.409  -4.143  -8.482  0.00  0.00     0.251 C 
HETATM   14  O           1     -21.654  -3.285  -8.874  0.00  0.00    -0.271 OA
HETATM   15  N           1     -22.113  -4.848  -7.347  0.00  0.00    -0.344 N 
HETATM   16  H           1     -22.745  -5.567  -7.018  0.00  0.00     0.163 HD
BRANCH  15  17
HETATM   17  C           1     -20.894  -4.566  -6.615  0.00  0.00     0.195 C 
BRANCH  17  18
HETATM   18  C           1     -19.710  -5.093  -7.388  0.00  0.00     0.197 C 
HETATM   19  O           1     -19.751  -6.237  -7.892  0.00  0.00    -0.646 OA
HETATM   20  O           1     -18.688  -4.387  -7.527  0.00  0.00    -0.646 OA
ENDBRANCH  17  18
BRANCH  17  21
HETATM   21  C           1     -20.952  -5.242  -5.252  0.00  0.00     0.149 C 
BRANCH  21  22
HETATM   22  C           1     -21.988  -6.339  -5.278  0.00  0.00     0.175 C 
HETATM   23  O           1     -23.164  -6.097  -4.930  0.00  0.00    -0.648 OA
HETATM   24  O           1     -21.670  -7.490  -5.647  0.00  0.00    -0.648 OA
ENDBRANCH  21  22
ENDBRANCH  17  21
ENDBRANCH  15  17
ENDBRANCH   1  13
TORSDOF 10
ENDMDL
MODEL 6
REMARK VINA RESULT:      -5.9      2.474      5.866
REMARK  10 active torsions:
REMARK  status: ('A' for Active; 'I' for Inactive)
REMARK    1  A    between atoms: N_7  and  C_14 
REMARK    2  A    between atoms: O_10  and  P_11 
REMARK    3  A    between atoms: P_11  and  O_12 
REMARK    4  A    between atoms: O_12  and  C_13 
REMARK    5  A    between atoms: C_13  and  C_14 
REMARK    6  A    between atoms: C_14  and  C_15 
REMARK       I    between atoms: C_15  and  N_16 
REMARK    7  A    between atoms: N_16  and  C_20 
REMARK    8  A    between atoms: C_19  and  C_20 
REMARK    9  A    between atoms: C_20  and  C_21 
REMARK   10  A    between atoms: C_21  and  C_23 
ROOT
HETATM    1  C           1     -36.405  -1.071 -10.702  0.00  0.00     0.298 C 
ENDROOT
BRANCH   1   2
HETATM    2  N           1     -36.302  -0.203  -9.483  0.00  0.00    -0.064 N 
HETATM    3  H           1     -37.219  -0.198  -8.981  0.00  0.00     0.275 HD
HETATM    4  H           1     -36.054   0.771  -9.770  0.00  0.00     0.275 HD
HETATM    5  H           1     -35.561  -0.578  -8.850  0.00  0.00     0.275 HD
ENDBRANCH   1   2
BRANCH   1   6
HETATM    6  C           1     -36.276  -0.209 -11.950  0.00  0.00     0.224 C 
BRANCH   6   7
HETATM    7  O           1     -36.262  -1.030 -13.087  0.00  0.00    -0.287 OA
BRANCH   7   8
HETATM    8  P           1     -35.735  -0.343 -14.451  0.00  0.00     0.406 P 
HETATM    9  O           1     -35.448  -1.393 -15.453  0.00  0.00    -0.624 OA
HETATM   10  O           1     -34.503   0.425 -14.170  0.00  0.00    -0.624 OA
BRANCH   8  11
HETATM   11  O           1     -36.870   0.653 -15.026  0.00  0.00    -0.300 OA
HETATM   12  H           1     -37.503   0.090 -15.436  0.00  0.00     0.223 HD
ENDBRANCH   8  11
ENDBRANCH   7   8
ENDBRANCH   6   7
ENDBRANCH   1   6
BRANCH   1  13
HETATM   13  C           1     -35.301  -2.099 -10.683  0.00  0.00     0.251 C 
HETATM   14  O           1     -34.243  -1.839 -10.161  0.00  0.00    -0.271 OA
HETATM   15  N           1     -35.498  -3.327 -11.254  0.00  0.00    -0.344 N 
HETATM   16  H           1     -36.385  -3.545 -11.691  0.00  0.00     0.163 HD
BRANCH  15  17
HETATM   17  C           1     -34.438  -4.315 -11.234  0.00  0.00     0.195 C 
BRANCH  17  18
HETATM   18  C           1     -33.434  -3.997 -12.316  0.00  0.00     0.197 C 
HETATM   19  O           1     -32.210  -4.115 -12.088  0.00  0.00    -0.646 OA
HETATM   20  O           1     -33.826  -3.615 -13.440  0.00  0.00    -0.646 OA
ENDBRANCH  17  18
BRANCH  17  21
HETATM   21  C           1     -35.028  -5.697 -11.479  0.00  0.00     0.149 C 
BRANCH  21  22
HETATM   22  C           1     -34.421  -6.683 -10.509  0.00  0.00     0.175 C 
HETATM   23  O           1     -33.235  -7.051 -10.652  0.00  0.00    -0.648 OA
HETATM   24  O           1     -35.105  -7.131  -9.564  0.00  0.00    -0.648 OA
ENDBRANCH  21  22
ENDBRANCH  17  21
ENDBRANCH  15  17
ENDBRANCH   1  13
TORSDOF 10
ENDMDL
MODEL 7
REMARK VINA RESULT:      -5.5      2.683      5.151
REMARK  10 active torsions:
REMARK  status: ('A' for Active; 'I' for Inactive)
REMARK    1  A    between atoms: N_7  and  C_14 
REMARK    2  A    between atoms: O_10  and  P_11 
REMARK    3  A    between atoms: P_11  and  O_12 
REMARK    4  A    between atoms: O_12  and  C_13 
REMARK    5  A    between atoms: C_13  and  C_14 
REMARK    6  A    between atoms: C_14  and  C_15 
REMARK       I    between atoms: C_15  and  N_16 
REMARK    7  A    between atoms: N_16  and  C_20 
REMARK    8  A    between atoms: C_19  and  C_20 
REMARK    9  A    between atoms: C_20  and  C_21 
REMARK   10  A    between atoms: C_21  and  C_23 
ROOT
HETATM    1  C           1     -35.479   0.851 -13.936  0.00  0.00     0.298 C 
ENDROOT
BRANCH   1   2
HETATM    2  N           1     -34.016   0.819 -13.601  0.00  0.00    -0.064 N 
HETATM    3  H           1     -33.503   1.484 -14.223  0.00  0.00     0.275 HD
HETATM    4  H           1     -33.649  -0.148 -13.744  0.00  0.00     0.275 HD
HETATM    5  H           1     -33.881   1.100 -12.604  0.00  0.00     0.275 HD
ENDBRANCH   1   2
BRANCH   1   6
HETATM    6  C           1     -35.680   0.381 -15.370  0.00  0.00     0.224 C 
BRANCH   6   7
HETATM    7  O           1     -34.576  -0.383 -15.771  0.00  0.00    -0.287 OA
BRANCH   7   8
HETATM    8  P           1     -34.886  -1.912 -16.187  0.00  0.00     0.406 P 
HETATM    9  O           1     -33.971  -2.324 -17.275  0.00  0.00    -0.624 OA
HETATM   10  O           1     -36.287  -2.022 -16.650  0.00  0.00    -0.624 OA
BRANCH   8  11
HETATM   11  O           1     -34.667  -2.874 -14.908  0.00  0.00    -0.300 OA
HETATM   12  H           1     -35.010  -3.711 -15.171  0.00  0.00     0.223 HD
ENDBRANCH   8  11
ENDBRANCH   7   8
ENDBRANCH   6   7
ENDBRANCH   1   6
BRANCH   1  13
HETATM   13  C           1     -36.230  -0.059 -12.996  0.00  0.00     0.251 C 
HETATM   14  O           1     -37.288  -0.534 -13.333  0.00  0.00    -0.271 OA
HETATM   15  N           1     -35.713  -0.347 -11.762  0.00  0.00    -0.344 N 
HETATM   16  H           1     -34.826   0.051 -11.480  0.00  0.00     0.163 HD
BRANCH  15  17
HETATM   17  C           1     -36.435  -1.223 -10.860  0.00  0.00     0.195 C 
BRANCH  17  18
HETATM   18  C           1     -36.831  -0.453  -9.624  0.00  0.00     0.197 C 
HETATM   19  O           1     -38.012  -0.067  -9.479  0.00  0.00    -0.646 OA
HETATM   20  O           1     -35.980  -0.201  -8.744  0.00  0.00    -0.646 OA
ENDBRANCH  17  18
BRANCH  17  21
HETATM   21  C           1     -35.542  -2.392 -10.466  0.00  0.00     0.149 C 
BRANCH  21  22
HETATM   22  C           1     -34.181  -2.222 -11.096  0.00  0.00     0.175 C 
HETATM   23  O           1     -33.968  -2.652 -12.250  0.00  0.00    -0.648 OA
HETATM   24  O           1     -33.267  -1.650 -10.463  0.00  0.00    -0.648 OA
ENDBRANCH  21  22
ENDBRANCH  17  21
ENDBRANCH  15  17
ENDBRANCH   1  13
TORSDOF 10
ENDMDL
MODEL 8
REMARK VINA RESULT:      -5.4     11.899     14.194
REMARK  10 active torsions:
REMARK  status: ('A' for Active; 'I' for Inactive)
REMARK    1  A    between atoms: N_7  and  C_14 
REMARK    2  A    between atoms: O_10  and  P_11 
REMARK    3  A    between atoms: P_11  and  O_12 
REMARK    4  A    between atoms: O_12  and  C_13 
REMARK    5  A    between atoms: C_13  and  C_14 
REMARK    6  A    between atoms: C_14  and  C_15 
REMARK       I    between atoms: C_15  and  N_16 
REMARK    7  A    between atoms: N_16  and  C_20 
REMARK    8  A    between atoms: C_19  and  C_20 
REMARK    9  A    between atoms: C_20  and  C_21 
REMARK   10  A    between atoms: C_21  and  C_23 
ROOT
HETATM    1  C           1     -20.292  -5.445  -7.903  0.00  0.00     0.298 C 
ENDROOT
BRANCH   1   2
HETATM    2  N           1     -19.188  -4.686  -7.228  0.00  0.00    -0.064 N 
HETATM    3  H           1     -18.427  -5.349  -6.956  0.00  0.00     0.275 HD
HETATM    4  H           1     -19.562  -4.212  -6.376  0.00  0.00     0.275 HD
HETATM    5  H           1     -18.806  -3.969  -7.885  0.00  0.00     0.275 HD
ENDBRANCH   1   2
BRANCH   1   6
HETATM    6  C           1     -21.303  -5.903  -6.860  0.00  0.00     0.224 C 
BRANCH   6   7
HETATM    7  O           1     -20.630  -6.269  -5.686  0.00  0.00    -0.287 OA
BRANCH   7   8
HETATM    8  P           1     -21.563  -6.607  -4.411  0.00  0.00     0.406 P 
HETATM    9  O           1     -21.088  -5.845  -3.235  0.00  0.00    -0.624 OA
HETATM   10  O           1     -21.495  -8.057  -4.123  0.00  0.00    -0.624 OA
BRANCH   8  11
HETATM   11  O           1     -23.091  -6.196  -4.737  0.00  0.00    -0.300 OA
HETATM   12  H           1     -23.439  -6.920  -5.228  0.00  0.00     0.223 HD
ENDBRANCH   8  11
ENDBRANCH   7   8
ENDBRANCH   6   7
ENDBRANCH   1   6
BRANCH   1  13
HETATM   13  C           1     -20.975  -4.552  -8.909  0.00  0.00     0.251 C 
HETATM   14  O           1     -20.348  -3.684  -9.469  0.00  0.00    -0.271 OA
HETATM   15  N           1     -22.303  -4.727  -9.190  0.00  0.00    -0.344 N 
HETATM   16  H           1     -22.828  -5.454  -8.722  0.00  0.00     0.163 HD
BRANCH  15  17
HETATM   17  C           1     -22.958  -3.869 -10.159  0.00  0.00     0.195 C 
BRANCH  17  18
HETATM   18  C           1     -24.432  -3.795  -9.846  0.00  0.00     0.197 C 
HETATM   19  O           1     -25.127  -4.835  -9.855  0.00  0.00    -0.646 OA
HETATM   20  O           1     -24.960  -2.694  -9.579  0.00  0.00    -0.646 OA
ENDBRANCH  17  18
BRANCH  17  21
HETATM   21  C           1     -22.762  -4.441 -11.556  0.00  0.00     0.149 C 
BRANCH  21  22
HETATM   22  C           1     -23.380  -3.510 -12.572  0.00  0.00     0.175 C 
HETATM   23  O           1     -24.289  -3.922 -13.325  0.00  0.00    -0.648 OA
HETATM   24  O           1     -22.984  -2.328 -12.659  0.00  0.00    -0.648 OA
ENDBRANCH  21  22
ENDBRANCH  17  21
ENDBRANCH  15  17
ENDBRANCH   1  13
TORSDOF 10
ENDMDL
MODEL 9
REMARK VINA RESULT:      -5.4     13.574     16.526
REMARK  10 active torsions:
REMARK  status: ('A' for Active; 'I' for Inactive)
REMARK    1  A    between atoms: N_7  and  C_14 
REMARK    2  A    between atoms: O_10  and  P_11 
REMARK    3  A    between atoms: P_11  and  O_12 
REMARK    4  A    between atoms: O_12  and  C_13 
REMARK    5  A    between atoms: C_13  and  C_14 
REMARK    6  A    between atoms: C_14  and  C_15 
REMARK       I    between atoms: C_15  and  N_16 
REMARK    7  A    between atoms: N_16  and  C_20 
REMARK    8  A    between atoms: C_19  and  C_20 
REMARK    9  A    between atoms: C_20  and  C_21 
REMARK   10  A    between atoms: C_21  and  C_23 
ROOT
HETATM    1  C           1     -20.973  -5.103  -6.547  0.00  0.00     0.298 C 
ENDROOT
BRANCH   1   2
HETATM    2  N           1     -20.169  -5.968  -7.472  0.00  0.00    -0.064 N 
HETATM    3  H           1     -20.814  -6.567  -8.036  0.00  0.00     0.275 HD
HETATM    4  H           1     -19.528  -6.574  -6.912  0.00  0.00     0.275 HD
HETATM    5  H           1     -19.606  -5.364  -8.112  0.00  0.00     0.275 HD
ENDBRANCH   1   2
BRANCH   1   6
HETATM    6  C           1     -22.011  -4.331  -7.349  0.00  0.00     0.224 C 
BRANCH   6   7
HETATM    7  O           1     -22.155  -4.917  -8.615  0.00  0.00    -0.287 OA
BRANCH   7   8
HETATM    8  P           1     -23.229  -4.219  -9.600  0.00  0.00     0.406 P 
HETATM    9  O           1     -23.869  -5.253 -10.443  0.00  0.00    -0.624 OA
HETATM   10  O           1     -22.538  -3.235 -10.462  0.00  0.00    -0.624 OA
BRANCH   8  11
HETATM   11  O           1     -24.357  -3.467  -8.722  0.00  0.00    -0.300 OA
HETATM   12  H           1     -24.991  -3.163  -9.349  0.00  0.00     0.223 HD
ENDBRANCH   8  11
ENDBRANCH   7   8
ENDBRANCH   6   7
ENDBRANCH   1   6
BRANCH   1  13
HETATM   13  C           1     -21.667  -5.969  -5.525  0.00  0.00     0.251 C 
HETATM   14  O           1     -22.873  -5.975  -5.458  0.00  0.00    -0.271 OA
HETATM   15  N           1     -20.931  -6.750  -4.675  0.00  0.00    -0.344 N 
HETATM   16  H           1     -19.921  -6.745  -4.731  0.00  0.00     0.163 HD
BRANCH  15  17
HETATM   17  C           1     -21.598  -7.583  -3.694  0.00  0.00     0.195 C 
BRANCH  17  18
HETATM   18  C           1     -21.584  -6.890  -2.354  0.00  0.00     0.197 C 
HETATM   19  O           1     -20.870  -7.334  -1.427  0.00  0.00    -0.646 OA
HETATM   20  O           1     -22.284  -5.871  -2.168  0.00  0.00    -0.646 OA
ENDBRANCH  17  18
BRANCH  17  21
HETATM   21  C           1     -20.873  -8.917  -3.584  0.00  0.00     0.149 C 
BRANCH  21  22
HETATM   22  C           1     -21.267  -9.801  -4.743  0.00  0.00     0.175 C 
HETATM   23  O           1     -21.868 -10.877  -4.532  0.00  0.00    -0.648 OA
HETATM   24  O           1     -20.992  -9.458  -5.913  0.00  0.00    -0.648 OA
ENDBRANCH  21  22
ENDBRANCH  17  21
ENDBRANCH  15  17
ENDBRANCH   1  13
TORSDOF 10
ENDMDL
