MODEL 1
REMARK VINA RESULT:      -6.3      0.000      0.000
REMARK  8 active torsions:
REMARK  status: ('A' for Active; 'I' for Inactive)
REMARK    1  A    between atoms: C_1  and  C_8 
REMARK    2  A    between atoms: C_5  and  C_6 
REMARK    3  A    between atoms: C_5  and  C_8 
REMARK    4  A    between atoms: C_5  and  N_25 
REMARK       I    between atoms: C_6  and  N_21 
REMARK    5  A    between atoms: C_11  and  C_12 
REMARK    6  A    between atoms: C_12  and  C_13 
REMARK    7  A    between atoms: C_12  and  N_21 
REMARK    8  A    between atoms: C_13  and  C_17 
ROOT
HETATM    1  C           1     -21.404  -4.715  -7.522  0.00  0.00     0.261 C 
ENDROOT
BRANCH   1   2
HETATM    2  C           1     -20.841  -5.355  -6.277  0.00  0.00     0.130 C 
HETATM    3  N           1     -20.981  -6.702  -6.077  0.00  0.00    -0.359 N 
HETATM    4  H           1     -21.461  -7.269  -6.764  0.00  0.00     0.162 HD
HETATM    5  O           1     -20.266  -4.678  -5.457  0.00  0.00    -0.397 OA
BRANCH   3   6
HETATM    6  C           1     -20.438  -7.316  -4.881  0.00  0.00     0.184 C 
BRANCH   6   7
HETATM    7  C           1     -19.843  -8.659  -5.231  0.00  0.00     0.196 C 
HETATM    8  O           1     -20.327  -9.703  -4.744  0.00  0.00    -0.646 OA
HETATM    9  O           1     -18.868  -8.726  -6.009  0.00  0.00    -0.646 OA
ENDBRANCH   6   7
BRANCH   6  10
HETATM   10  C           1     -21.550  -7.507  -3.858  0.00  0.00     0.040 C 
BRANCH  10  11
HETATM   11  C           1     -21.098  -6.965  -2.508  0.00  0.00    -0.018 C 
HETATM   12  C           1     -20.736  -8.126  -1.591  0.00  0.00     0.289 C 
HETATM   13  C           1     -22.227  -6.157  -1.882  0.00  0.00     0.009 C 
ENDBRANCH  10  11
ENDBRANCH   6  10
ENDBRANCH   3   6
ENDBRANCH   1   2
BRANCH   1  14
HETATM   14  C           1     -20.394  -4.832  -8.655  0.00  0.00     0.099 C 
BRANCH  14  15
HETATM   15  C           1     -21.029  -4.394  -9.938  0.00  0.00     0.028 A 
HETATM   16  C           1     -20.401  -3.647 -10.906  0.00  0.00     0.114 A 
HETATM   17  N           1     -21.337  -3.480 -11.888  0.00  0.00    -0.360 N 
HETATM   18  C           1     -22.473  -4.122 -11.485  0.00  0.00     0.180 A 
HETATM   19  H           1     -21.206  -2.956 -12.789  0.00  0.00     0.166 HD
HETATM   20  N           1     -22.317  -4.684 -10.309  0.00  0.00    -0.355 N 
ATOM     21  HN          1     -23.006  -5.221  -9.784  1.00  0.00     0.166 HD
ENDBRANCH  14  15
ENDBRANCH   1  14
BRANCH   1  22
HETATM   22  N           1     -21.688  -3.266  -7.254  0.00  0.00    -0.067 N 
HETATM   23  H           1     -20.835  -2.812  -6.857  0.00  0.00     0.275 HD
HETATM   24  H           1     -22.475  -3.185  -6.571  0.00  0.00     0.275 HD
HETATM   25  H           1     -21.953  -2.792  -8.147  0.00  0.00     0.275 HD
ENDBRANCH   1  22
TORSDOF 8
ENDMDL
MODEL 2
REMARK VINA RESULT:      -6.3     14.422     16.616
REMARK  8 active torsions:
REMARK  status: ('A' for Active; 'I' for Inactive)
REMARK    1  A    between atoms: C_1  and  C_8 
REMARK    2  A    between atoms: C_5  and  C_6 
REMARK    3  A    between atoms: C_5  and  C_8 
REMARK    4  A    between atoms: C_5  and  N_25 
REMARK       I    between atoms: C_6  and  N_21 
REMARK    5  A    between atoms: C_11  and  C_12 
REMARK    6  A    between atoms: C_12  and  C_13 
REMARK    7  A    between atoms: C_12  and  N_21 
REMARK    8  A    between atoms: C_13  and  C_17 
ROOT
HETATM    1  C           1     -36.341   0.024 -11.711  0.00  0.00     0.261 C 
ENDROOT
BRANCH   1   2
HETATM    2  C           1     -35.429  -1.177 -11.660  0.00  0.00     0.130 C 
HETATM    3  N           1     -35.378  -2.042 -12.720  0.00  0.00    -0.359 N 
HETATM    4  H           1     -35.951  -1.876 -13.538  0.00  0.00     0.162 HD
HETATM    5  O           1     -34.745  -1.375 -10.684  0.00  0.00    -0.397 OA
BRANCH   3   6
HETATM    6  C           1     -34.501  -3.196 -12.672  0.00  0.00     0.184 C 
BRANCH   6   7
HETATM    7  C           1     -34.598  -3.955 -13.972  0.00  0.00     0.196 C 
HETATM    8  O           1     -34.231  -3.417 -15.040  0.00  0.00    -0.646 OA
HETATM    9  O           1     -35.044  -5.123 -13.983  0.00  0.00    -0.646 OA
ENDBRANCH   6   7
BRANCH   6  10
HETATM   10  C           1     -34.919  -4.104 -11.523  0.00  0.00     0.040 C 
BRANCH  10  11
HETATM   11  C           1     -33.680  -4.717 -10.883  0.00  0.00    -0.018 C 
HETATM   12  C           1     -32.465  -4.437 -11.758  0.00  0.00     0.289 C 
HETATM   13  C           1     -33.872  -6.222 -10.749  0.00  0.00     0.009 C 
ENDBRANCH  10  11
ENDBRANCH   6  10
ENDBRANCH   3   6
ENDBRANCH   1   2
BRANCH   1  14
HETATM   14  C           1     -37.530  -0.201 -10.786  0.00  0.00     0.099 C 
BRANCH  14  15
HETATM   15  C           1     -37.275   0.468  -9.472  0.00  0.00     0.028 A 
HETATM   16  C           1     -37.862   1.643  -9.066  0.00  0.00     0.114 A 
HETATM   17  N           1     -37.350   1.883  -7.821  0.00  0.00    -0.360 N 
HETATM   18  C           1     -36.491   0.863  -7.527  0.00  0.00     0.180 A 
HETATM   19  H           1     -37.578   2.701  -7.204  0.00  0.00     0.166 HD
HETATM   20  N           1     -36.425  -0.008  -8.507  0.00  0.00    -0.355 N 
ATOM     21  HN          1     -35.861  -0.857  -8.543  1.00  0.00     0.166 HD
ENDBRANCH  14  15
ENDBRANCH   1  14
BRANCH   1  22
HETATM   22  N           1     -36.831   0.220 -13.115  0.00  0.00    -0.067 N 
HETATM   23  H           1     -36.366  -0.471 -13.746  0.00  0.00     0.275 HD
HETATM   24  H           1     -36.602   1.190 -13.433  0.00  0.00     0.275 HD
HETATM   25  H           1     -37.866   0.080 -13.146  0.00  0.00     0.275 HD
ENDBRANCH   1  22
TORSDOF 8
ENDMDL
MODEL 3
REMARK VINA RESULT:      -6.3      2.772      7.323
REMARK  8 active torsions:
REMARK  status: ('A' for Active; 'I' for Inactive)
REMARK    1  A    between atoms: C_1  and  C_8 
REMARK    2  A    between atoms: C_5  and  C_6 
REMARK    3  A    between atoms: C_5  and  C_8 
REMARK    4  A    between atoms: C_5  and  N_25 
REMARK       I    between atoms: C_6  and  N_21 
REMARK    5  A    between atoms: C_11  and  C_12 
REMARK    6  A    between atoms: C_12  and  C_13 
REMARK    7  A    between atoms: C_12  and  N_21 
REMARK    8  A    between atoms: C_13  and  C_17 
ROOT
HETATM    1  C           1     -20.980  -5.454  -6.915  0.00  0.00     0.261 C 
ENDROOT
BRANCH   1   2
HETATM    2  C           1     -21.615  -4.503  -7.899  0.00  0.00     0.130 C 
HETATM    3  N           1     -22.231  -4.990  -9.020  0.00  0.00    -0.359 N 
HETATM    4  H           1     -22.262  -5.987  -9.190  0.00  0.00     0.162 HD
HETATM    5  O           1     -21.579  -3.313  -7.697  0.00  0.00    -0.397 OA
BRANCH   3   6
HETATM    6  C           1     -22.842  -4.075  -9.965  0.00  0.00     0.184 C 
BRANCH   6   7
HETATM    7  C           1     -24.319  -3.965  -9.674  0.00  0.00     0.196 C 
HETATM    8  O           1     -25.038  -4.987  -9.690  0.00  0.00    -0.646 OA
HETATM    9  O           1     -24.823  -2.850  -9.417  0.00  0.00    -0.646 OA
ENDBRANCH   6   7
BRANCH   6  10
HETATM   10  C           1     -22.643  -4.600 -11.381  0.00  0.00     0.040 C 
BRANCH  10  11
HETATM   11  C           1     -21.941  -3.541 -12.222  0.00  0.00    -0.018 C 
HETATM   12  C           1     -20.868  -2.858 -11.384  0.00  0.00     0.289 C 
HETATM   13  C           1     -22.958  -2.506 -12.685  0.00  0.00     0.009 C 
ENDBRANCH  10  11
ENDBRANCH   6  10
ENDBRANCH   3   6
ENDBRANCH   1   2
BRANCH   1  14
HETATM   14  C           1     -21.981  -5.796  -5.819  0.00  0.00     0.099 C 
BRANCH  14  15
HETATM   15  C           1     -21.608  -7.101  -5.190  0.00  0.00     0.028 A 
HETATM   16  C           1     -21.612  -7.347  -3.838  0.00  0.00     0.114 A 
HETATM   17  N           1     -21.210  -8.648  -3.713  0.00  0.00    -0.360 N 
HETATM   18  C           1     -20.984  -9.130  -4.971  0.00  0.00     0.180 A 
HETATM   19  H           1     -21.098  -9.179  -2.814  0.00  0.00     0.166 HD
HETATM   20  N           1     -21.216  -8.217  -5.885  0.00  0.00    -0.355 N 
ATOM     21  HN          1     -21.124  -8.317  -6.895  1.00  0.00     0.166 HD
ENDBRANCH  14  15
ENDBRANCH   1  14
BRANCH   1  22
HETATM   22  N           1     -19.772  -4.808  -6.304  0.00  0.00    -0.067 N 
HETATM   23  H           1     -20.073  -4.025  -5.681  0.00  0.00     0.275 HD
HETATM   24  H           1     -19.156  -4.433  -7.060  0.00  0.00     0.275 HD
HETATM   25  H           1     -19.244  -5.515  -5.744  0.00  0.00     0.275 HD
ENDBRANCH   1  22
TORSDOF 8
ENDMDL
MODEL 4
REMARK VINA RESULT:      -6.3     15.316     17.740
REMARK  8 active torsions:
REMARK  status: ('A' for Active; 'I' for Inactive)
REMARK    1  A    between atoms: C_1  and  C_8 
REMARK    2  A    between atoms: C_5  and  C_6 
REMARK    3  A    between atoms: C_5  and  C_8 
REMARK    4  A    between atoms: C_5  and  N_25 
REMARK       I    between atoms: C_6  and  N_21 
REMARK    5  A    between atoms: C_11  and  C_12 
REMARK    6  A    between atoms: C_12  and  C_13 
REMARK    7  A    between atoms: C_12  and  N_21 
REMARK    8  A    between atoms: C_13  and  C_17 
ROOT
HETATM    1  C           1     -36.757   0.104  -8.740  0.00  0.00     0.261 C 
ENDROOT
BRANCH   1   2
HETATM    2  C           1     -36.734  -0.754  -9.982  0.00  0.00     0.130 C 
HETATM    3  N           1     -35.539  -1.152 -10.516  0.00  0.00    -0.359 N 
HETATM    4  H           1     -34.670  -0.873 -10.079  0.00  0.00     0.162 HD
HETATM    5  O           1     -37.772  -1.089 -10.503  0.00  0.00    -0.397 OA
BRANCH   3   6
HETATM    6  C           1     -35.518  -1.977 -11.708  0.00  0.00     0.184 C 
BRANCH   6   7
HETATM    7  C           1     -34.750  -3.246 -11.428  0.00  0.00     0.196 C 
HETATM    8  O           1     -33.505  -3.212 -11.316  0.00  0.00    -0.646 OA
HETATM    9  O           1     -35.358  -4.331 -11.307  0.00  0.00    -0.646 OA
ENDBRANCH   6   7
BRANCH   6  10
HETATM   10  C           1     -34.842  -1.216 -12.841  0.00  0.00     0.040 C 
BRANCH  10  11
HETATM   11  C           1     -35.627   0.054 -13.140  0.00  0.00    -0.018 C 
HETATM   12  C           1     -36.752  -0.263 -14.116  0.00  0.00     0.289 C 
HETATM   13  C           1     -34.698   1.091 -13.756  0.00  0.00     0.009 C 
ENDBRANCH  10  11
ENDBRANCH   6  10
ENDBRANCH   3   6
ENDBRANCH   1   2
BRANCH   1  14
HETATM   14  C           1     -38.075  -0.100  -8.005  0.00  0.00     0.099 C 
BRANCH  14  15
HETATM   15  C           1     -37.857   0.064  -6.534  0.00  0.00     0.028 A 
HETATM   16  C           1     -38.074  -0.918  -5.596  0.00  0.00     0.114 A 
HETATM   17  N           1     -37.753  -0.342  -4.399  0.00  0.00    -0.360 N 
HETATM   18  C           1     -37.361   0.942  -4.653  0.00  0.00     0.180 A 
HETATM   19  H           1     -37.798  -0.803  -3.456  0.00  0.00     0.166 HD
HETATM   20  N           1     -37.414   1.216  -5.935  0.00  0.00    -0.355 N 
ATOM     21  HN          1     -37.176   2.097  -6.390  1.00  0.00     0.166 HD
ENDBRANCH  14  15
ENDBRANCH   1  14
BRANCH   1  22
HETATM   22  N           1     -36.619   1.546  -9.128  0.00  0.00    -0.067 N 
HETATM   23  H           1     -36.660   1.633 -10.168  0.00  0.00     0.275 HD
HETATM   24  H           1     -35.704   1.915  -8.784  0.00  0.00     0.275 HD
HETATM   25  H           1     -37.398   2.097  -8.700  0.00  0.00     0.275 HD
ENDBRANCH   1  22
TORSDOF 8
ENDMDL
MODEL 5
REMARK VINA RESULT:      -5.9      2.133      3.075
REMARK  8 active torsions:
REMARK  status: ('A' for Active; 'I' for Inactive)
REMARK    1  A    between atoms: C_1  and  C_8 
REMARK    2  A    between atoms: C_5  and  C_6 
REMARK    3  A    between atoms: C_5  and  C_8 
REMARK    4  A    between atoms: C_5  and  N_25 
REMARK       I    between atoms: C_6  and  N_21 
REMARK    5  A    between atoms: C_11  and  C_12 
REMARK    6  A    between atoms: C_12  and  C_13 
REMARK    7  A    between atoms: C_12  and  N_21 
REMARK    8  A    between atoms: C_13  and  C_17 
ROOT
HETATM    1  C           1     -21.648  -6.306  -5.125  0.00  0.00     0.261 C 
ENDROOT
BRANCH   1   2
HETATM    2  C           1     -21.220  -6.693  -3.731  0.00  0.00     0.130 C 
HETATM    3  N           1     -20.897  -7.993  -3.452  0.00  0.00    -0.359 N 
HETATM    4  H           1     -20.944  -8.695  -4.179  0.00  0.00     0.162 HD
HETATM    5  O           1     -21.164  -5.855  -2.863  0.00  0.00    -0.397 OA
BRANCH   3   6
HETATM    6  C           1     -20.485  -8.365  -2.112  0.00  0.00     0.184 C 
BRANCH   6   7
HETATM    7  C           1     -19.460  -9.470  -2.189  0.00  0.00     0.196 C 
HETATM    8  O           1     -19.744 -10.617  -1.781  0.00  0.00    -0.646 OA
HETATM    9  O           1     -18.327  -9.239  -2.663  0.00  0.00    -0.646 OA
ENDBRANCH   6   7
BRANCH   6  10
HETATM   10  C           1     -21.695  -8.851  -1.325  0.00  0.00     0.040 C 
BRANCH  10  11
HETATM   11  C           1     -21.755  -8.128   0.015  0.00  0.00    -0.018 C 
HETATM   12  C           1     -21.044  -8.960   1.073  0.00  0.00     0.289 C 
HETATM   13  C           1     -23.210  -7.929   0.418  0.00  0.00     0.009 C 
ENDBRANCH  10  11
ENDBRANCH   6  10
ENDBRANCH   3   6
ENDBRANCH   1   2
BRANCH   1  14
HETATM   14  C           1     -20.906  -5.047  -5.553  0.00  0.00     0.099 C 
BRANCH  14  15
HETATM   15  C           1     -21.263  -4.712  -6.968  0.00  0.00     0.028 A 
HETATM   16  C           1     -20.729  -5.326  -8.076  0.00  0.00     0.114 A 
HETATM   17  N           1     -21.330  -4.717  -9.142  0.00  0.00    -0.360 N 
HETATM   18  C           1     -22.189  -3.777  -8.648  0.00  0.00     0.180 A 
HETATM   19  H           1     -21.162  -4.934 -10.156  0.00  0.00     0.166 HD
HETATM   20  N           1     -22.170  -3.751  -7.336  0.00  0.00    -0.355 N 
ATOM     21  HN          1     -22.713  -3.145  -6.722  1.00  0.00     0.166 HD
ENDBRANCH  14  15
ENDBRANCH   1  14
BRANCH   1  22
HETATM   22  N           1     -23.125  -6.044  -5.140  0.00  0.00    -0.067 N 
HETATM   23  H           1     -23.482  -6.115  -6.119  0.00  0.00     0.275 HD
HETATM   24  H           1     -23.313  -5.084  -4.770  0.00  0.00     0.275 HD
HETATM   25  H           1     -23.610  -6.749  -4.540  0.00  0.00     0.275 HD
ENDBRANCH   1  22
TORSDOF 8
ENDMDL
MODEL 6
REMARK VINA RESULT:      -5.7      2.593      4.597
REMARK  8 active torsions:
REMARK  status: ('A' for Active; 'I' for Inactive)
REMARK    1  A    between atoms: C_1  and  C_8 
REMARK    2  A    between atoms: C_5  and  C_6 
REMARK    3  A    between atoms: C_5  and  C_8 
REMARK    4  A    between atoms: C_5  and  N_25 
REMARK       I    between atoms: C_6  and  N_21 
REMARK    5  A    between atoms: C_11  and  C_12 
REMARK    6  A    between atoms: C_12  and  C_13 
REMARK    7  A    between atoms: C_12  and  N_21 
REMARK    8  A    between atoms: C_13  and  C_17 
ROOT
HETATM    1  C           1     -20.305  -8.513  -4.986  0.00  0.00     0.261 C 
ENDROOT
BRANCH   1   2
HETATM    2  C           1     -19.966  -8.924  -3.574  0.00  0.00     0.130 C 
HETATM    3  N           1     -20.966  -9.247  -2.697  0.00  0.00    -0.359 N 
HETATM    4  H           1     -21.932  -9.212  -2.995  0.00  0.00     0.162 HD
HETATM    5  O           1     -18.812  -8.966  -3.218  0.00  0.00    -0.397 OA
BRANCH   3   6
HETATM    6  C           1     -20.639  -9.642  -1.341  0.00  0.00     0.184 C 
BRANCH   6   7
HETATM    7  C           1     -21.457 -10.853  -0.959  0.00  0.00     0.196 C 
HETATM    8  O           1     -21.359 -11.337   0.189  0.00  0.00    -0.646 OA
HETATM    9  O           1     -22.232 -11.371  -1.792  0.00  0.00    -0.646 OA
ENDBRANCH   6   7
BRANCH   6  10
HETATM   10  C           1     -20.956  -8.497  -0.388  0.00  0.00     0.040 C 
BRANCH  10  11
HETATM   11  C           1     -22.364  -7.983  -0.659  0.00  0.00    -0.018 C 
HETATM   12  C           1     -22.289  -6.562  -1.202  0.00  0.00     0.289 C 
HETATM   13  C           1     -23.164  -7.991   0.636  0.00  0.00     0.009 C 
ENDBRANCH  10  11
ENDBRANCH   6  10
ENDBRANCH   3   6
ENDBRANCH   1   2
BRANCH   1  14
HETATM   14  C           1     -21.299  -7.360  -4.955  0.00  0.00     0.099 C 
BRANCH  14  15
HETATM   15  C           1     -21.006  -6.417  -6.080  0.00  0.00     0.028 A 
HETATM   16  C           1     -21.806  -5.359  -6.442  0.00  0.00     0.114 A 
HETATM   17  N           1     -21.167  -4.779  -7.502  0.00  0.00    -0.360 N 
HETATM   18  C           1     -20.026  -5.493  -7.735  0.00  0.00     0.180 A 
HETATM   19  H           1     -21.492  -3.936  -8.038  0.00  0.00     0.166 HD
HETATM   20  N           1     -19.903  -6.491  -6.891  0.00  0.00    -0.355 N 
ATOM     21  HN          1     -19.147  -7.174  -6.848  1.00  0.00     0.166 HD
ENDBRANCH  14  15
ENDBRANCH   1  14
BRANCH   1  22
HETATM   22  N           1     -20.913  -9.677  -5.712  0.00  0.00    -0.067 N 
HETATM   23  H           1     -21.152  -9.393  -6.688  0.00  0.00     0.275 HD
HETATM   24  H           1     -21.781  -9.983  -5.216  0.00  0.00     0.275 HD
HETATM   25  H           1     -20.230 -10.468  -5.736  0.00  0.00     0.275 HD
ENDBRANCH   1  22
TORSDOF 8
ENDMDL
MODEL 7
REMARK VINA RESULT:      -5.7      1.717      2.848
REMARK  8 active torsions:
REMARK  status: ('A' for Active; 'I' for Inactive)
REMARK    1  A    between atoms: C_1  and  C_8 
REMARK    2  A    between atoms: C_5  and  C_6 
REMARK    3  A    between atoms: C_5  and  C_8 
REMARK    4  A    between atoms: C_5  and  N_25 
REMARK       I    between atoms: C_6  and  N_21 
REMARK    5  A    between atoms: C_11  and  C_12 
REMARK    6  A    between atoms: C_12  and  C_13 
REMARK    7  A    between atoms: C_12  and  N_21 
REMARK    8  A    between atoms: C_13  and  C_17 
ROOT
HETATM    1  C           1     -21.687  -6.449  -5.762  0.00  0.00     0.261 C 
ENDROOT
BRANCH   1   2
HETATM    2  C           1     -20.812  -7.359  -4.935  0.00  0.00     0.130 C 
HETATM    3  N           1     -21.266  -7.842  -3.738  0.00  0.00    -0.359 N 
HETATM    4  H           1     -22.189  -7.590  -3.407  0.00  0.00     0.162 HD
HETATM    5  O           1     -19.711  -7.660  -5.331  0.00  0.00    -0.397 OA
BRANCH   3   6
HETATM    6  C           1     -20.426  -8.718  -2.944  0.00  0.00     0.184 C 
BRANCH   6   7
HETATM    7  C           1     -20.974 -10.123  -2.996  0.00  0.00     0.196 C 
HETATM    8  O           1     -20.380 -11.048  -2.401  0.00  0.00    -0.646 OA
HETATM    9  O           1     -22.023 -10.362  -3.632  0.00  0.00    -0.646 OA
ENDBRANCH   6   7
BRANCH   6  10
HETATM   10  C           1     -20.408  -8.234  -1.501  0.00  0.00     0.040 C 
BRANCH  10  11
HETATM   11  C           1     -21.826  -8.238  -0.945  0.00  0.00    -0.018 C 
HETATM   12  C           1     -22.344  -6.808  -0.865  0.00  0.00     0.289 C 
HETATM   13  C           1     -21.822  -8.855   0.448  0.00  0.00     0.009 C 
ENDBRANCH  10  11
ENDBRANCH   6  10
ENDBRANCH   3   6
ENDBRANCH   1   2
BRANCH   1  14
HETATM   14  C           1     -20.942  -5.152  -6.049  0.00  0.00     0.099 C 
BRANCH  14  15
HETATM   15  C           1     -21.353  -4.627  -7.389  0.00  0.00     0.028 A 
HETATM   16  C           1     -20.650  -4.822  -8.555  0.00  0.00     0.114 A 
HETATM   17  N           1     -21.376  -4.179  -9.518  0.00  0.00    -0.360 N 
HETATM   18  C           1     -22.470  -3.631  -8.911  0.00  0.00     0.180 A 
HETATM   19  H           1     -21.137  -4.118 -10.539  0.00  0.00     0.166 HD
HETATM   20  N           1     -22.482  -3.885  -7.623  0.00  0.00    -0.355 N 
ATOM     21  HN          1     -23.183  -3.593  -6.942  1.00  0.00     0.166 HD
ENDBRANCH  14  15
ENDBRANCH   1  14
BRANCH   1  22
HETATM   22  N           1     -22.946  -6.145  -5.005  0.00  0.00    -0.067 N 
HETATM   23  H           1     -23.288  -5.193  -5.267  0.00  0.00     0.275 HD
HETATM   24  H           1     -22.753  -6.175  -3.978  0.00  0.00     0.275 HD
HETATM   25  H           1     -23.675  -6.855  -5.242  0.00  0.00     0.275 HD
ENDBRANCH   1  22
TORSDOF 8
ENDMDL
MODEL 8
REMARK VINA RESULT:      -5.6      2.181      3.488
REMARK  8 active torsions:
REMARK  status: ('A' for Active; 'I' for Inactive)
REMARK    1  A    between atoms: C_1  and  C_8 
REMARK    2  A    between atoms: C_5  and  C_6 
REMARK    3  A    between atoms: C_5  and  C_8 
REMARK    4  A    between atoms: C_5  and  N_25 
REMARK       I    between atoms: C_6  and  N_21 
REMARK    5  A    between atoms: C_11  and  C_12 
REMARK    6  A    between atoms: C_12  and  C_13 
REMARK    7  A    between atoms: C_12  and  N_21 
REMARK    8  A    between atoms: C_13  and  C_17 
ROOT
HETATM    1  C           1     -21.283  -6.098  -5.458  0.00  0.00     0.261 C 
ENDROOT
BRANCH   1   2
HETATM    2  C           1     -20.226  -7.158  -5.652  0.00  0.00     0.130 C 
HETATM    3  N           1     -20.033  -8.114  -4.692  0.00  0.00    -0.359 N 
HETATM    4  H           1     -20.599  -8.111  -3.853  0.00  0.00     0.162 HD
HETATM    5  O           1     -19.552  -7.162  -6.654  0.00  0.00    -0.397 OA
BRANCH   3   6
HETATM    6  C           1     -19.019  -9.133  -4.879  0.00  0.00     0.184 C 
BRANCH   6   7
HETATM    7  C           1     -19.682 -10.447  -5.216  0.00  0.00     0.196 C 
HETATM    8  O           1     -20.366 -11.042  -4.354  0.00  0.00    -0.646 OA
HETATM    9  O           1     -19.548 -10.940  -6.357  0.00  0.00    -0.646 OA
ENDBRANCH   6   7
BRANCH   6  10
HETATM   10  C           1     -18.211  -9.288  -3.597  0.00  0.00     0.040 C 
BRANCH  10  11
HETATM   11  C           1     -16.969 -10.125  -3.876  0.00  0.00    -0.018 C 
HETATM   12  C           1     -15.985  -9.970  -2.724  0.00  0.00     0.289 C 
HETATM   13  C           1     -16.318  -9.649  -5.168  0.00  0.00     0.009 C 
ENDBRANCH  10  11
ENDBRANCH   6  10
ENDBRANCH   3   6
ENDBRANCH   1   2
BRANCH   1  14
HETATM   14  C           1     -20.804  -4.787  -6.067  0.00  0.00     0.099 C 
BRANCH  14  15
HETATM   15  C           1     -21.584  -4.499  -7.311  0.00  0.00     0.028 A 
HETATM   16  C           1     -21.048  -4.452  -8.576  0.00  0.00     0.114 A 
HETATM   17  N           1     -22.102  -4.162  -9.397  0.00  0.00    -0.360 N 
HETATM   18  C           1     -23.214  -4.048  -8.612  0.00  0.00     0.180 A 
HETATM   19  H           1     -22.064  -4.049 -10.440  0.00  0.00     0.166 HD
HETATM   20  N           1     -22.931  -4.246  -7.346  0.00  0.00    -0.355 N 
ATOM     21  HN          1     -23.576  -4.218  -6.556  1.00  0.00     0.166 HD
ENDBRANCH  14  15
ENDBRANCH   1  14
BRANCH   1  22
HETATM   22  N           1     -21.534  -5.906  -3.992  0.00  0.00    -0.067 N 
HETATM   23  H           1     -21.795  -6.820  -3.560  0.00  0.00     0.275 HD
HETATM   24  H           1     -22.314  -5.223  -3.857  0.00  0.00     0.275 HD
HETATM   25  H           1     -20.669  -5.539  -3.535  0.00  0.00     0.275 HD
ENDBRANCH   1  22
TORSDOF 8
ENDMDL
MODEL 9
REMARK VINA RESULT:      -5.5      3.398      5.712
REMARK  8 active torsions:
REMARK  status: ('A' for Active; 'I' for Inactive)
REMARK    1  A    between atoms: C_1  and  C_8 
REMARK    2  A    between atoms: C_5  and  C_6 
REMARK    3  A    between atoms: C_5  and  C_8 
REMARK    4  A    between atoms: C_5  and  N_25 
REMARK       I    between atoms: C_6  and  N_21 
REMARK    5  A    between atoms: C_11  and  C_12 
REMARK    6  A    between atoms: C_12  and  C_13 
REMARK    7  A    between atoms: C_12  and  N_21 
REMARK    8  A    between atoms: C_13  and  C_17 
ROOT
HETATM    1  C           1     -19.841  -8.504  -3.812  0.00  0.00     0.261 C 
ENDROOT
BRANCH   1   2
HETATM    2  C           1     -21.022  -8.933  -2.976  0.00  0.00     0.130 C 
HETATM    3  N           1     -21.043  -8.666  -1.634  0.00  0.00    -0.359 N 
HETATM    4  H           1     -20.268  -8.181  -1.201  0.00  0.00     0.162 HD
HETATM    5  O           1     -21.949  -9.511  -3.493  0.00  0.00    -0.397 OA
BRANCH   3   6
HETATM    6  C           1     -22.179  -9.077  -0.832  0.00  0.00     0.184 C 
BRANCH   6   7
HETATM    7  C           1     -22.778  -7.870  -0.153  0.00  0.00     0.196 C 
HETATM    8  O           1     -23.331  -7.989   0.962  0.00  0.00    -0.646 OA
HETATM    9  O           1     -22.722  -6.750  -0.705  0.00  0.00    -0.646 OA
ENDBRANCH   6   7
BRANCH   6  10
HETATM   10  C           1     -21.722 -10.076   0.222  0.00  0.00     0.040 C 
BRANCH  10  11
HETATM   11  C           1     -22.313 -11.446  -0.084  0.00  0.00    -0.018 C 
HETATM   12  C           1     -23.833 -11.367  -0.027  0.00  0.00     0.289 C 
HETATM   13  C           1     -21.819 -12.453   0.946  0.00  0.00     0.009 C 
ENDBRANCH  10  11
ENDBRANCH   6  10
ENDBRANCH   3   6
ENDBRANCH   1   2
BRANCH   1  14
HETATM   14  C           1     -20.260  -8.405  -5.272  0.00  0.00     0.099 C 
BRANCH  14  15
HETATM   15  C           1     -20.251  -6.971  -5.700  0.00  0.00     0.028 A 
HETATM   16  C           1     -20.757  -5.931  -4.957  0.00  0.00     0.114 A 
HETATM   17  N           1     -20.542  -4.815  -5.718  0.00  0.00    -0.360 N 
HETATM   18  C           1     -19.925  -5.216  -6.868  0.00  0.00     0.180 A 
HETATM   19  H           1     -20.802  -3.830  -5.463  0.00  0.00     0.166 HD
HETATM   20  N           1     -19.736  -6.514  -6.886  0.00  0.00    -0.355 N 
ATOM     21  HN          1     -19.300  -7.066  -7.625  1.00  0.00     0.166 HD
ENDBRANCH  14  15
ENDBRANCH   1  14
BRANCH   1  22
HETATM   22  N           1     -18.740  -9.514  -3.675  0.00  0.00    -0.067 N 
HETATM   23  H           1     -17.911  -9.203  -4.229  0.00  0.00     0.275 HD
HETATM   24  H           1     -19.069 -10.440  -4.031  0.00  0.00     0.275 HD
HETATM   25  H           1     -18.473  -9.604  -2.669  0.00  0.00     0.275 HD
ENDBRANCH   1  22
TORSDOF 8
ENDMDL
