MODEL 1
REMARK VINA RESULT:      -7.2      0.000      0.000
REMARK  10 active torsions:
REMARK  status: ('A' for Active; 'I' for Inactive)
REMARK    1  A    between atoms: C_2  and  C_21 
REMARK    2  A    between atoms: C_2  and  C_3 
REMARK    3  A    between atoms: C_3  and  C_23 
REMARK    4  A    between atoms: C_3  and  N_14 
REMARK    5  A    between atoms: C_4  and  C_15 
REMARK    6  A    between atoms: C_4  and  C_5 
REMARK       I    between atoms: N_14  and  C_22 
REMARK    7  A    between atoms: C_15  and  C_22 
REMARK    8  A    between atoms: C_15  and  N_18 
REMARK    9  A    between atoms: C_17  and  O_19 
REMARK   10  A    between atoms: C_21  and  Se_26 
ROOT
HETATM    1  C           1     -21.088  -5.716  -6.774  0.00  0.00     0.278 C 
ENDROOT
BRANCH   1   2
HETATM    2  C           1     -20.873  -5.219  -5.350  0.00  0.00     0.081 C 
BRANCH   2   3
HETATM    3  C           1     -21.164  -6.327  -4.385  0.00  0.00    -0.056 A 
HETATM    4  C           1     -21.312  -6.047  -3.027  0.00  0.00     0.010 A 
HETATM    5  C           1     -21.583  -7.078  -2.127  0.00  0.00     0.037 A 
HETATM    6  C           1     -21.707  -8.389  -2.588  0.00  0.00     0.065 A 
HETATM    7  C           1     -21.560  -8.669  -3.946  0.00  0.00     0.037 A 
HETATM    8  C           1     -21.288  -7.638  -4.845  0.00  0.00     0.010 A 
BRANCH   6   9
HETATM    9  O           1     -21.970  -9.391  -1.714  0.00  0.00    -0.361 OA
HETATM   10  H           1     -22.410 -10.108  -2.204  0.00  0.00     0.217 HD
ENDBRANCH   6   9
ENDBRANCH   2   3
ENDBRANCH   1   2
BRANCH   1  11
HETATM   11  C           1     -21.616  -4.588  -7.626  0.00  0.00     0.249 C 
HETATM   12  O           1     -21.530  -3.447  -7.239  0.00  0.00    -0.271 OA
HETATM   13  N           1     -22.193  -4.858  -8.838  0.00  0.00    -0.345 N 
HETATM   14  H           1     -22.265  -5.814  -9.162  0.00  0.00     0.163 HD
BRANCH  13  15
HETATM   15  C           1     -22.701  -3.775  -9.657  0.00  0.00     0.185 C 
BRANCH  15  16
HETATM   16  C           1     -22.171  -3.921 -11.077  0.00  0.00     0.036 C 
BRANCH  16  17
HETATM   17  C           1     -22.552  -2.691 -11.891  0.00  0.00     0.003 C 
BRANCH  17  18
HETATM   18 Se           1     -23.933  -3.166 -13.182  0.00  0.00     0.000 Se
HETATM   19  C           1     -22.956  -2.487 -14.725  0.00  0.00     0.000 C 
ENDBRANCH  17  18
ENDBRANCH  16  17
ENDBRANCH  15  16
BRANCH  15  20
HETATM   20  C           1     -24.209  -3.824  -9.676  0.00  0.00     0.196 C 
HETATM   21  O           1     -24.797  -4.896  -9.934  0.00  0.00    -0.646 OA
HETATM   22  O           1     -24.870  -2.791  -9.431  0.00  0.00    -0.646 OA
ENDBRANCH  15  20
ENDBRANCH  13  15
ENDBRANCH   1  11
BRANCH   1  23
HETATM   23  N           1     -19.784  -6.197  -7.336  0.00  0.00    -0.066 N 
HETATM   24  H           1     -19.223  -5.379  -7.667  0.00  0.00     0.275 HD
HETATM   25  H           1     -19.251  -6.706  -6.594  0.00  0.00     0.275 HD
HETATM   26  H           1     -19.965  -6.841  -8.139  0.00  0.00     0.275 HD
ENDBRANCH   1  23
TORSDOF 10
ENDMDL
MODEL 2
REMARK VINA RESULT:      -7.1      3.700      8.388
REMARK  10 active torsions:
REMARK  status: ('A' for Active; 'I' for Inactive)
REMARK    1  A    between atoms: C_2  and  C_21 
REMARK    2  A    between atoms: C_2  and  C_3 
REMARK    3  A    between atoms: C_3  and  C_23 
REMARK    4  A    between atoms: C_3  and  N_14 
REMARK    5  A    between atoms: C_4  and  C_15 
REMARK    6  A    between atoms: C_4  and  C_5 
REMARK       I    between atoms: N_14  and  C_22 
REMARK    7  A    between atoms: C_15  and  C_22 
REMARK    8  A    between atoms: C_15  and  N_18 
REMARK    9  A    between atoms: C_17  and  O_19 
REMARK   10  A    between atoms: C_21  and  Se_26 
ROOT
HETATM    1  C           1     -22.195  -5.113  -6.949  0.00  0.00     0.278 C 
ENDROOT
BRANCH   1   2
HETATM    2  C           1     -21.606  -3.801  -7.454  0.00  0.00     0.081 C 
BRANCH   2   3
HETATM    3  C           1     -21.647  -3.779  -8.951  0.00  0.00    -0.056 A 
HETATM    4  C           1     -22.844  -3.501  -9.611  0.00  0.00     0.010 A 
HETATM    5  C           1     -22.883  -3.480 -11.005  0.00  0.00     0.037 A 
HETATM    6  C           1     -21.725  -3.735 -11.738  0.00  0.00     0.065 A 
HETATM    7  C           1     -20.528  -4.011 -11.079  0.00  0.00     0.037 A 
HETATM    8  C           1     -20.489  -4.033  -9.684  0.00  0.00     0.010 A 
BRANCH   6   9
HETATM    9  O           1     -21.762  -3.714 -13.093  0.00  0.00    -0.361 OA
HETATM   10  H           1     -21.284  -4.495 -13.419  0.00  0.00     0.217 HD
ENDBRANCH   6   9
ENDBRANCH   2   3
ENDBRANCH   1   2
BRANCH   1  11
HETATM   11  C           1     -21.337  -5.651  -5.830  0.00  0.00     0.249 C 
HETATM   12  O           1     -20.540  -4.929  -5.279  0.00  0.00    -0.271 OA
HETATM   13  N           1     -21.461  -6.957  -5.440  0.00  0.00    -0.345 N 
HETATM   14  H           1     -22.128  -7.562  -5.902  0.00  0.00     0.163 HD
BRANCH  13  15
HETATM   15  C           1     -20.636  -7.475  -4.365  0.00  0.00     0.185 C 
BRANCH  15  16
HETATM   16  C           1     -21.523  -7.879  -3.195  0.00  0.00     0.036 C 
BRANCH  16  17
HETATM   17  C           1     -21.724  -6.683  -2.273  0.00  0.00     0.003 C 
BRANCH  17  18
HETATM   18 Se           1     -22.342  -7.300  -0.531  0.00  0.00     0.000 Se
HETATM   19  C           1     -22.115  -9.193  -0.937  0.00  0.00     0.000 C 
ENDBRANCH  17  18
ENDBRANCH  16  17
ENDBRANCH  15  16
BRANCH  15  20
HETATM   20  C           1     -19.871  -8.680  -4.855  0.00  0.00     0.196 C 
HETATM   21  O           1     -20.361  -9.414  -5.740  0.00  0.00    -0.646 OA
HETATM   22  O           1     -18.748  -8.943  -4.375  0.00  0.00    -0.646 OA
ENDBRANCH  15  20
ENDBRANCH  13  15
ENDBRANCH   1  11
BRANCH   1  23
HETATM   23  N           1     -23.584  -4.873  -6.441  0.00  0.00    -0.066 N 
HETATM   24  H           1     -23.614  -5.044  -5.410  0.00  0.00     0.275 HD
HETATM   25  H           1     -23.861  -3.884  -6.637  0.00  0.00     0.275 HD
HETATM   26  H           1     -24.248  -5.523  -6.920  0.00  0.00     0.275 HD
ENDBRANCH   1  23
TORSDOF 10
ENDMDL
MODEL 3
REMARK VINA RESULT:      -7.0      3.486      8.376
REMARK  10 active torsions:
REMARK  status: ('A' for Active; 'I' for Inactive)
REMARK    1  A    between atoms: C_2  and  C_21 
REMARK    2  A    between atoms: C_2  and  C_3 
REMARK    3  A    between atoms: C_3  and  C_23 
REMARK    4  A    between atoms: C_3  and  N_14 
REMARK    5  A    between atoms: C_4  and  C_15 
REMARK    6  A    between atoms: C_4  and  C_5 
REMARK       I    between atoms: N_14  and  C_22 
REMARK    7  A    between atoms: C_15  and  C_22 
REMARK    8  A    between atoms: C_15  and  N_18 
REMARK    9  A    between atoms: C_17  and  O_19 
REMARK   10  A    between atoms: C_21  and  Se_26 
ROOT
HETATM    1  C           1     -21.864  -4.395  -7.254  0.00  0.00     0.278 C 
ENDROOT
BRANCH   1   2
HETATM    2  C           1     -21.378  -4.921  -8.599  0.00  0.00     0.081 C 
BRANCH   2   3
HETATM    3  C           1     -22.115  -4.226  -9.702  0.00  0.00    -0.056 A 
HETATM    4  C           1     -21.407  -3.629 -10.745  0.00  0.00     0.010 A 
HETATM    5  C           1     -22.092  -2.982 -11.774  0.00  0.00     0.037 A 
HETATM    6  C           1     -23.486  -2.933 -11.758  0.00  0.00     0.065 A 
HETATM    7  C           1     -24.194  -3.530 -10.716  0.00  0.00     0.037 A 
HETATM    8  C           1     -23.509  -4.177  -9.687  0.00  0.00     0.010 A 
BRANCH   6   9
HETATM    9  O           1     -24.153  -2.305 -12.757  0.00  0.00    -0.361 OA
HETATM   10  H           1     -24.226  -1.363 -12.523  0.00  0.00     0.217 HD
ENDBRANCH   6   9
ENDBRANCH   2   3
ENDBRANCH   1   2
BRANCH   1  11
HETATM   11  C           1     -21.147  -5.122  -6.142  0.00  0.00     0.249 C 
HETATM   12  O           1     -20.141  -4.653  -5.665  0.00  0.00    -0.271 OA
HETATM   13  N           1     -21.636  -6.312  -5.675  0.00  0.00    -0.345 N 
HETATM   14  H           1     -22.478  -6.704  -6.075  0.00  0.00     0.163 HD
BRANCH  13  15
HETATM   15  C           1     -20.947  -7.010  -4.607  0.00  0.00     0.185 C 
BRANCH  15  16
HETATM   16  C           1     -21.944  -7.378  -3.515  0.00  0.00     0.036 C 
BRANCH  16  17
HETATM   17  C           1     -21.928  -6.308  -2.431  0.00  0.00     0.003 C 
BRANCH  17  18
HETATM   18 Se           1     -22.325  -7.123  -0.706  0.00  0.00     0.000 Se
HETATM   19  C           1     -21.878  -8.934  -1.274  0.00  0.00     0.000 C 
ENDBRANCH  17  18
ENDBRANCH  16  17
ENDBRANCH  15  16
BRANCH  15  20
HETATM   20  C           1     -20.315  -8.266  -5.154  0.00  0.00     0.196 C 
HETATM   21  O           1     -19.325  -8.189  -5.912  0.00  0.00    -0.646 OA
HETATM   22  O           1     -20.783  -9.385  -4.848  0.00  0.00    -0.646 OA
ENDBRANCH  15  20
ENDBRANCH  13  15
ENDBRANCH   1  11
BRANCH   1  23
HETATM   23  N           1     -21.575  -2.927  -7.158  0.00  0.00    -0.066 N 
HETATM   24  H           1     -20.751  -2.693  -7.758  0.00  0.00     0.275 HD
HETATM   25  H           1     -22.408  -2.387  -7.485  0.00  0.00     0.275 HD
HETATM   26  H           1     -21.364  -2.677  -6.166  0.00  0.00     0.275 HD
ENDBRANCH   1  23
TORSDOF 10
ENDMDL
MODEL 4
REMARK VINA RESULT:      -6.6     12.646     14.259
REMARK  10 active torsions:
REMARK  status: ('A' for Active; 'I' for Inactive)
REMARK    1  A    between atoms: C_2  and  C_21 
REMARK    2  A    between atoms: C_2  and  C_3 
REMARK    3  A    between atoms: C_3  and  C_23 
REMARK    4  A    between atoms: C_3  and  N_14 
REMARK    5  A    between atoms: C_4  and  C_15 
REMARK    6  A    between atoms: C_4  and  C_5 
REMARK       I    between atoms: N_14  and  C_22 
REMARK    7  A    between atoms: C_15  and  C_22 
REMARK    8  A    between atoms: C_15  and  N_18 
REMARK    9  A    between atoms: C_17  and  O_19 
REMARK   10  A    between atoms: C_21  and  Se_26 
ROOT
HETATM    1  C           1     -33.953  -3.220 -11.613  0.00  0.00     0.278 C 
ENDROOT
BRANCH   1   2
HETATM    2  C           1     -35.002  -3.942 -10.777  0.00  0.00     0.081 C 
BRANCH   2   3
HETATM    3  C           1     -34.577  -5.361 -10.558  0.00  0.00    -0.056 A 
HETATM    4  C           1     -33.367  -5.815 -11.084  0.00  0.00     0.010 A 
HETATM    5  C           1     -32.970  -7.137 -10.880  0.00  0.00     0.037 A 
HETATM    6  C           1     -33.783  -8.004 -10.150  0.00  0.00     0.065 A 
HETATM    7  C           1     -34.992  -7.550  -9.624  0.00  0.00     0.037 A 
HETATM    8  C           1     -35.389  -6.228  -9.827  0.00  0.00     0.010 A 
BRANCH   6   9
HETATM    9  O           1     -33.397  -9.287  -9.951  0.00  0.00    -0.361 OA
HETATM   10  H           1     -32.795  -9.305  -9.188  0.00  0.00     0.217 HD
ENDBRANCH   6   9
ENDBRANCH   2   3
ENDBRANCH   1   2
BRANCH   1  11
HETATM   11  C           1     -34.630  -2.479 -12.740  0.00  0.00     0.249 C 
HETATM   12  O           1     -34.599  -2.926 -13.861  0.00  0.00    -0.271 OA
HETATM   13  N           1     -35.278  -1.299 -12.491  0.00  0.00    -0.345 N 
HETATM   14  H           1     -35.304  -0.925 -11.551  0.00  0.00     0.163 HD
BRANCH  13  15
HETATM   15  C           1     -35.929  -0.586 -13.573  0.00  0.00     0.185 C 
BRANCH  15  16
HETATM   16  C           1     -37.169   0.120 -13.043  0.00  0.00     0.036 C 
BRANCH  16  17
HETATM   17  C           1     -37.732  -0.660 -11.861  0.00  0.00     0.003 C 
BRANCH  17  18
HETATM   18 Se           1     -37.760   0.482 -10.282  0.00  0.00     0.000 Se
HETATM   19  C           1     -36.626  -0.688  -9.213  0.00  0.00     0.000 C 
ENDBRANCH  17  18
ENDBRANCH  16  17
ENDBRANCH  15  16
BRANCH  15  20
HETATM   20  C           1     -34.976   0.434 -14.146  0.00  0.00     0.196 C 
HETATM   21  O           1     -34.550   0.306 -15.314  0.00  0.00    -0.646 OA
HETATM   22  O           1     -34.613   1.408 -13.451  0.00  0.00    -0.646 OA
ENDBRANCH  15  20
ENDBRANCH  13  15
ENDBRANCH   1  11
BRANCH   1  23
HETATM   23  N           1     -33.212  -2.245 -10.748  0.00  0.00    -0.066 N 
HETATM   24  H           1     -32.278  -2.640 -10.497  0.00  0.00     0.275 HD
HETATM   25  H           1     -33.082  -1.347 -11.269  0.00  0.00     0.275 HD
HETATM   26  H           1     -33.759  -2.066  -9.876  0.00  0.00     0.275 HD
ENDBRANCH   1  23
TORSDOF 10
ENDMDL
MODEL 5
REMARK VINA RESULT:      -6.2      2.815      4.039
REMARK  10 active torsions:
REMARK  status: ('A' for Active; 'I' for Inactive)
REMARK    1  A    between atoms: C_2  and  C_21 
REMARK    2  A    between atoms: C_2  and  C_3 
REMARK    3  A    between atoms: C_3  and  C_23 
REMARK    4  A    between atoms: C_3  and  N_14 
REMARK    5  A    between atoms: C_4  and  C_15 
REMARK    6  A    between atoms: C_4  and  C_5 
REMARK       I    between atoms: N_14  and  C_22 
REMARK    7  A    between atoms: C_15  and  C_22 
REMARK    8  A    between atoms: C_15  and  N_18 
REMARK    9  A    between atoms: C_17  and  O_19 
REMARK   10  A    between atoms: C_21  and  Se_26 
ROOT
HETATM    1  C           1     -21.145  -8.645  -4.690  0.00  0.00     0.278 C 
ENDROOT
BRANCH   1   2
HETATM    2  C           1     -20.297  -8.566  -3.426  0.00  0.00     0.081 C 
BRANCH   2   3
HETATM    3  C           1     -21.188  -8.365  -2.239  0.00  0.00    -0.056 A 
HETATM    4  C           1     -21.581  -7.079  -1.873  0.00  0.00     0.010 A 
HETATM    5  C           1     -22.412  -6.891  -0.767  0.00  0.00     0.037 A 
HETATM    6  C           1     -22.848  -7.992  -0.030  0.00  0.00     0.065 A 
HETATM    7  C           1     -22.455  -9.278  -0.396  0.00  0.00     0.037 A 
HETATM    8  C           1     -21.625  -9.466  -1.502  0.00  0.00     0.010 A 
BRANCH   6   9
HETATM    9  O           1     -23.655  -7.810   1.044  0.00  0.00    -0.361 OA
HETATM   10  H           1     -23.100  -7.529   1.792  0.00  0.00     0.217 HD
ENDBRANCH   6   9
ENDBRANCH   2   3
ENDBRANCH   1   2
BRANCH   1  11
HETATM   11  C           1     -20.609  -7.676  -5.716  0.00  0.00     0.249 C 
HETATM   12  O           1     -19.508  -7.840  -6.184  0.00  0.00    -0.271 OA
HETATM   13  N           1     -21.371  -6.611  -6.115  0.00  0.00    -0.345 N 
HETATM   14  H           1     -22.294  -6.474  -5.722  0.00  0.00     0.163 HD
BRANCH  13  15
HETATM   15  C           1     -20.857  -5.679  -7.100  0.00  0.00     0.185 C 
BRANCH  15  16
HETATM   16  C           1     -22.003  -4.843  -7.655  0.00  0.00     0.036 C 
BRANCH  16  17
HETATM   17  C           1     -21.797  -4.624  -9.147  0.00  0.00     0.003 C 
BRANCH  17  18
HETATM   18 Se           1     -23.367  -3.750  -9.900  0.00  0.00     0.000 Se
HETATM   19  C           1     -22.434  -3.051 -11.462  0.00  0.00     0.000 C 
ENDBRANCH  17  18
ENDBRANCH  16  17
ENDBRANCH  15  16
BRANCH  15  20
HETATM   20  C           1     -19.841  -4.772  -6.452  0.00  0.00     0.196 C 
HETATM   21  O           1     -20.024  -4.361  -5.286  0.00  0.00    -0.646 OA
HETATM   22  O           1     -18.815  -4.434  -7.082  0.00  0.00    -0.646 OA
ENDBRANCH  15  20
ENDBRANCH  13  15
ENDBRANCH   1  11
BRANCH   1  23
HETATM   23  N           1     -21.088 -10.037  -5.242  0.00  0.00    -0.066 N 
HETATM   24  H           1     -20.395 -10.076  -6.023  0.00  0.00     0.275 HD
HETATM   25  H           1     -20.798 -10.700  -4.487  0.00  0.00     0.275 HD
HETATM   26  H           1     -22.031 -10.309  -5.601  0.00  0.00     0.275 HD
ENDBRANCH   1  23
TORSDOF 10
ENDMDL
MODEL 6
REMARK VINA RESULT:      -6.2     12.818     14.889
REMARK  10 active torsions:
REMARK  status: ('A' for Active; 'I' for Inactive)
REMARK    1  A    between atoms: C_2  and  C_21 
REMARK    2  A    between atoms: C_2  and  C_3 
REMARK    3  A    between atoms: C_3  and  C_23 
REMARK    4  A    between atoms: C_3  and  N_14 
REMARK    5  A    between atoms: C_4  and  C_15 
REMARK    6  A    between atoms: C_4  and  C_5 
REMARK       I    between atoms: N_14  and  C_22 
REMARK    7  A    between atoms: C_15  and  C_22 
REMARK    8  A    between atoms: C_15  and  N_18 
REMARK    9  A    between atoms: C_17  and  O_19 
REMARK   10  A    between atoms: C_21  and  Se_26 
ROOT
HETATM    1  C           1     -34.998  -0.570 -12.020  0.00  0.00     0.278 C 
ENDROOT
BRANCH   1   2
HETATM    2  C           1     -35.368  -1.443 -10.828  0.00  0.00     0.081 C 
BRANCH   2   3
HETATM    3  C           1     -34.706  -2.780 -10.964  0.00  0.00    -0.056 A 
HETATM    4  C           1     -35.442  -3.946 -10.757  0.00  0.00     0.010 A 
HETATM    5  C           1     -34.825  -5.191 -10.883  0.00  0.00     0.037 A 
HETATM    6  C           1     -33.473  -5.269 -11.217  0.00  0.00     0.065 A 
HETATM    7  C           1     -32.738  -4.103 -11.425  0.00  0.00     0.037 A 
HETATM    8  C           1     -33.354  -2.857 -11.298  0.00  0.00     0.010 A 
BRANCH   6   9
HETATM    9  O           1     -32.875  -6.478 -11.340  0.00  0.00    -0.361 OA
HETATM   10  H           1     -32.044  -6.353 -11.830  0.00  0.00     0.217 HD
ENDBRANCH   6   9
ENDBRANCH   2   3
ENDBRANCH   1   2
BRANCH   1  11
HETATM   11  C           1     -35.639  -1.126 -13.269  0.00  0.00     0.249 C 
HETATM   12  O           1     -36.835  -1.290 -13.312  0.00  0.00    -0.271 OA
HETATM   13  N           1     -34.864  -1.444 -14.352  0.00  0.00    -0.345 N 
HETATM   14  H           1     -33.862  -1.306 -14.315  0.00  0.00     0.163 HD
BRANCH  13  15
HETATM   15  C           1     -35.479  -1.979 -15.552  0.00  0.00     0.185 C 
BRANCH  15  16
HETATM   16  C           1     -35.845  -0.834 -16.487  0.00  0.00     0.036 C 
BRANCH  16  17
HETATM   17  C           1     -37.361  -0.700 -16.556  0.00  0.00     0.003 C 
BRANCH  17  18
HETATM   18 Se           1     -37.902   0.991 -15.753  0.00  0.00     0.000 Se
HETATM   19  C           1     -36.093   1.710 -15.650  0.00  0.00     0.000 C 
ENDBRANCH  17  18
ENDBRANCH  16  17
ENDBRANCH  15  16
BRANCH  15  20
HETATM   20  C           1     -34.507  -2.903 -16.244  0.00  0.00     0.196 C 
HETATM   21  O           1     -33.927  -2.532 -17.287  0.00  0.00    -0.646 OA
HETATM   22  O           1     -34.284  -4.039 -15.774  0.00  0.00    -0.646 OA
ENDBRANCH  15  20
ENDBRANCH  13  15
ENDBRANCH   1  11
BRANCH   1  23
HETATM   23  N           1     -35.490   0.827 -11.787  0.00  0.00    -0.066 N 
HETATM   24  H           1     -34.710   1.415 -11.416  0.00  0.00     0.275 HD
HETATM   25  H           1     -35.831   1.231 -12.689  0.00  0.00     0.275 HD
HETATM   26  H           1     -36.272   0.811 -11.094  0.00  0.00     0.275 HD
ENDBRANCH   1  23
TORSDOF 10
ENDMDL
MODEL 7
REMARK VINA RESULT:      -6.1      3.675      8.286
REMARK  10 active torsions:
REMARK  status: ('A' for Active; 'I' for Inactive)
REMARK    1  A    between atoms: C_2  and  C_21 
REMARK    2  A    between atoms: C_2  and  C_3 
REMARK    3  A    between atoms: C_3  and  C_23 
REMARK    4  A    between atoms: C_3  and  N_14 
REMARK    5  A    between atoms: C_4  and  C_15 
REMARK    6  A    between atoms: C_4  and  C_5 
REMARK       I    between atoms: N_14  and  C_22 
REMARK    7  A    between atoms: C_15  and  C_22 
REMARK    8  A    between atoms: C_15  and  N_18 
REMARK    9  A    between atoms: C_17  and  O_19 
REMARK   10  A    between atoms: C_21  and  Se_26 
ROOT
HETATM    1  C           1     -22.405  -5.237  -6.910  0.00  0.00     0.278 C 
ENDROOT
BRANCH   1   2
HETATM    2  C           1     -21.616  -4.012  -7.353  0.00  0.00     0.081 C 
BRANCH   2   3
HETATM    3  C           1     -21.627  -3.925  -8.848  0.00  0.00    -0.056 A 
HETATM    4  C           1     -22.822  -3.683  -9.524  0.00  0.00     0.010 A 
HETATM    5  C           1     -22.833  -3.602 -10.917  0.00  0.00     0.037 A 
HETATM    6  C           1     -21.646  -3.762 -11.632  0.00  0.00     0.065 A 
HETATM    7  C           1     -20.450  -4.003 -10.957  0.00  0.00     0.037 A 
HETATM    8  C           1     -20.440  -4.084  -9.564  0.00  0.00     0.010 A 
BRANCH   6   9
HETATM    9  O           1     -21.656  -3.683 -12.985  0.00  0.00    -0.361 OA
HETATM   10  H           1     -20.908  -3.123 -13.258  0.00  0.00     0.217 HD
ENDBRANCH   6   9
ENDBRANCH   2   3
ENDBRANCH   1   2
BRANCH   1  11
HETATM   11  C           1     -21.654  -5.948  -5.810  0.00  0.00     0.249 C 
HETATM   12  O           1     -20.519  -5.627  -5.549  0.00  0.00    -0.271 OA
HETATM   13  N           1     -22.258  -6.958  -5.111  0.00  0.00    -0.345 N 
HETATM   14  H           1     -23.208  -7.226  -5.330  0.00  0.00     0.163 HD
BRANCH  13  15
HETATM   15  C           1     -21.537  -7.642  -4.055  0.00  0.00     0.185 C 
BRANCH  15  16
HETATM   16  C           1     -20.082  -7.821  -4.467  0.00  0.00     0.036 C 
BRANCH  16  17
HETATM   17  C           1     -19.735  -9.304  -4.479  0.00  0.00     0.003 C 
BRANCH  17  18
HETATM   18 Se           1     -18.557  -9.709  -2.981  0.00  0.00     0.000 Se
HETATM   19  C           1     -19.967 -10.455  -1.860  0.00  0.00     0.000 C 
ENDBRANCH  17  18
ENDBRANCH  16  17
ENDBRANCH  15  16
BRANCH  15  20
HETATM   20  C           1     -21.603  -6.822  -2.789  0.00  0.00     0.196 C 
HETATM   21  O           1     -22.472  -5.933  -2.665  0.00  0.00    -0.646 OA
HETATM   22  O           1     -20.788  -7.035  -1.865  0.00  0.00    -0.646 OA
ENDBRANCH  15  20
ENDBRANCH  13  15
ENDBRANCH   1  11
BRANCH   1  23
HETATM   23  N           1     -23.748  -4.808  -6.399  0.00  0.00    -0.066 N 
HETATM   24  H           1     -24.202  -5.605  -5.897  0.00  0.00     0.275 HD
HETATM   25  H           1     -23.630  -4.005  -5.740  0.00  0.00     0.275 HD
HETATM   26  H           1     -24.350  -4.515  -7.202  0.00  0.00     0.275 HD
ENDBRANCH   1  23
TORSDOF 10
ENDMDL
MODEL 8
REMARK VINA RESULT:      -6.1      4.170      8.523
REMARK  10 active torsions:
REMARK  status: ('A' for Active; 'I' for Inactive)
REMARK    1  A    between atoms: C_2  and  C_21 
REMARK    2  A    between atoms: C_2  and  C_3 
REMARK    3  A    between atoms: C_3  and  C_23 
REMARK    4  A    between atoms: C_3  and  N_14 
REMARK    5  A    between atoms: C_4  and  C_15 
REMARK    6  A    between atoms: C_4  and  C_5 
REMARK       I    between atoms: N_14  and  C_22 
REMARK    7  A    between atoms: C_15  and  C_22 
REMARK    8  A    between atoms: C_15  and  N_18 
REMARK    9  A    between atoms: C_17  and  O_19 
REMARK   10  A    between atoms: C_21  and  Se_26 
ROOT
HETATM    1  C           1     -21.654  -6.354  -4.802  0.00  0.00     0.278 C 
ENDROOT
BRANCH   1   2
HETATM    2  C           1     -20.649  -5.274  -5.184  0.00  0.00     0.081 C 
BRANCH   2   3
HETATM    3  C           1     -20.878  -4.860  -6.605  0.00  0.00    -0.056 A 
HETATM    4  C           1     -22.176  -4.658  -7.072  0.00  0.00     0.010 A 
HETATM    5  C           1     -22.390  -4.271  -8.395  0.00  0.00     0.037 A 
HETATM    6  C           1     -21.303  -4.087  -9.250  0.00  0.00     0.065 A 
HETATM    7  C           1     -20.005  -4.288  -8.784  0.00  0.00     0.037 A 
HETATM    8  C           1     -19.791  -4.674  -7.460  0.00  0.00     0.010 A 
BRANCH   6   9
HETATM    9  O           1     -21.510  -3.711 -10.536  0.00  0.00    -0.361 OA
HETATM   10  H           1     -22.331  -3.190 -10.568  0.00  0.00     0.217 HD
ENDBRANCH   6   9
ENDBRANCH   2   3
ENDBRANCH   1   2
BRANCH   1  11
HETATM   11  C           1     -20.989  -7.707  -4.869  0.00  0.00     0.249 C 
HETATM   12  O           1     -20.993  -8.331  -5.903  0.00  0.00    -0.271 OA
HETATM   13  N           1     -20.381  -8.226  -3.758  0.00  0.00    -0.345 N 
HETATM   14  H           1     -20.378  -7.703  -2.892  0.00  0.00     0.163 HD
BRANCH  13  15
HETATM   15  C           1     -19.742  -9.527  -3.821  0.00  0.00     0.185 C 
BRANCH  15  16
HETATM   16  C           1     -18.232  -9.355  -3.722  0.00  0.00     0.036 C 
BRANCH  16  17
HETATM   17  C           1     -17.574  -9.903  -4.982  0.00  0.00     0.003 C 
BRANCH  17  18
HETATM   18 Se           1     -15.823 -10.633  -4.537  0.00  0.00     0.000 Se
HETATM   19  C           1     -15.895 -10.104  -2.663  0.00  0.00     0.000 C 
ENDBRANCH  17  18
ENDBRANCH  16  17
ENDBRANCH  15  16
BRANCH  15  20
HETATM   20  C           1     -20.227 -10.381  -2.676  0.00  0.00     0.196 C 
HETATM   21  O           1     -19.444 -11.176  -2.114  0.00  0.00    -0.646 OA
HETATM   22  O           1     -21.413 -10.292  -2.290  0.00  0.00    -0.646 OA
ENDBRANCH  15  20
ENDBRANCH  13  15
ENDBRANCH   1  11
BRANCH   1  23
HETATM   23  N           1     -22.144  -6.108  -3.406  0.00  0.00    -0.066 N 
HETATM   24  H           1     -21.677  -6.773  -2.750  0.00  0.00     0.275 HD
HETATM   25  H           1     -21.917  -5.126  -3.126  0.00  0.00     0.275 HD
HETATM   26  H           1     -23.178  -6.251  -3.369  0.00  0.00     0.275 HD
ENDBRANCH   1  23
TORSDOF 10
ENDMDL
MODEL 9
REMARK VINA RESULT:      -6.1     12.697     14.880
REMARK  10 active torsions:
REMARK  status: ('A' for Active; 'I' for Inactive)
REMARK    1  A    between atoms: C_2  and  C_21 
REMARK    2  A    between atoms: C_2  and  C_3 
REMARK    3  A    between atoms: C_3  and  C_23 
REMARK    4  A    between atoms: C_3  and  N_14 
REMARK    5  A    between atoms: C_4  and  C_15 
REMARK    6  A    between atoms: C_4  and  C_5 
REMARK       I    between atoms: N_14  and  C_22 
REMARK    7  A    between atoms: C_15  and  C_22 
REMARK    8  A    between atoms: C_15  and  N_18 
REMARK    9  A    between atoms: C_17  and  O_19 
REMARK   10  A    between atoms: C_21  and  Se_26 
ROOT
HETATM    1  C           1     -35.195  -0.601 -12.095  0.00  0.00     0.278 C 
ENDROOT
BRANCH   1   2
HETATM    2  C           1     -35.853  -1.712 -11.287  0.00  0.00     0.081 C 
BRANCH   2   3
HETATM    3  C           1     -34.979  -2.928 -11.304  0.00  0.00    -0.056 A 
HETATM    4  C           1     -33.636  -2.815 -11.660  0.00  0.00     0.010 A 
HETATM    5  C           1     -32.821  -3.947 -11.676  0.00  0.00     0.037 A 
HETATM    6  C           1     -33.351  -5.191 -11.335  0.00  0.00     0.065 A 
HETATM    7  C           1     -34.694  -5.304 -10.977  0.00  0.00     0.037 A 
HETATM    8  C           1     -35.509  -4.172 -10.962  0.00  0.00     0.010 A 
BRANCH   6   9
HETATM    9  O           1     -32.559  -6.291 -11.350  0.00  0.00    -0.361 OA
HETATM   10  H           1     -31.887  -6.187 -10.654  0.00  0.00     0.217 HD
ENDBRANCH   6   9
ENDBRANCH   2   3
ENDBRANCH   1   2
BRANCH   1  11
HETATM   11  C           1     -35.656  -0.681 -13.530  0.00  0.00     0.249 C 
HETATM   12  O           1     -36.756  -1.108 -13.787  0.00  0.00    -0.271 OA
HETATM   13  N           1     -34.827  -0.272 -14.539  0.00  0.00    -0.345 N 
HETATM   14  H           1     -33.905   0.085 -14.322  0.00  0.00     0.163 HD
BRANCH  13  15
HETATM   15  C           1     -35.269  -0.349 -15.918  0.00  0.00     0.185 C 
BRANCH  15  16
HETATM   16  C           1     -35.675  -1.781 -16.241  0.00  0.00     0.036 C 
BRANCH  16  17
HETATM   17  C           1     -34.501  -2.509 -16.882  0.00  0.00     0.003 C 
BRANCH  17  18
HETATM   18 Se           1     -34.029  -4.061 -15.801  0.00  0.00     0.000 Se
HETATM   19  C           1     -32.397  -4.458 -16.789  0.00  0.00     0.000 C 
ENDBRANCH  17  18
ENDBRANCH  16  17
ENDBRANCH  15  16
BRANCH  15  20
HETATM   20  C           1     -36.452   0.566 -16.118  0.00  0.00     0.196 C 
HETATM   21  O           1     -37.570   0.089 -16.407  0.00  0.00    -0.646 OA
HETATM   22  O           1     -36.312   1.803 -15.994  0.00  0.00    -0.646 OA
ENDBRANCH  15  20
ENDBRANCH  13  15
ENDBRANCH   1  11
BRANCH   1  23
HETATM   23  N           1     -35.581   0.729 -11.521  0.00  0.00    -0.066 N 
HETATM   24  H           1     -35.311   0.766 -10.512  0.00  0.00     0.275 HD
HETATM   25  H           1     -35.086   1.490 -12.040  0.00  0.00     0.275 HD
HETATM   26  H           1     -36.613   0.862 -11.609  0.00  0.00     0.275 HD
ENDBRANCH   1  23
TORSDOF 10
ENDMDL
