MODEL 1
REMARK VINA RESULT:      -6.2      0.000      0.000
REMARK  10 active torsions:
REMARK  status: ('A' for Active; 'I' for Inactive)
REMARK       I    between atoms: C_6  and  N_12 
REMARK    1  A    between atoms: C_6  and  C_7 
REMARK    2  A    between atoms: C_7  and  C_8 
REMARK    3  A    between atoms: C_7  and  N_13 
REMARK    4  A    between atoms: C_8  and  O_15 
REMARK    5  A    between atoms: O_10  and  P_22 
REMARK    6  A    between atoms: N_12  and  C_21 
REMARK    7  A    between atoms: C_16  and  C_21 
REMARK    8  A    between atoms: C_20  and  C_21 
REMARK    9  A    between atoms: C_20  and  O_23 
REMARK   10  A    between atoms: P_22  and  O_23 
ROOT
HETATM    1  O           1     -33.531  -2.224 -11.070  0.00  0.00    -0.271 OA
HETATM    2  C           1     -34.053  -2.636 -12.079  0.00  0.00     0.251 C 
HETATM    3  N           1     -34.777  -1.785 -12.870  0.00  0.00    -0.343 N 
HETATM    4  H           1     -35.214  -2.131 -13.715  0.00  0.00     0.163 HD
ENDROOT
BRANCH   3   5
HETATM    5  C           1     -34.919  -0.392 -12.497  0.00  0.00     0.210 C 
BRANCH   5   6
HETATM    6  C           1     -36.219  -0.200 -11.753  0.00  0.00     0.198 C 
HETATM    7  O           1     -37.277  -0.685 -12.208  0.00  0.00    -0.646 OA
HETATM    8  O           1     -36.236   0.444 -10.683  0.00  0.00    -0.646 OA
ENDBRANCH   5   6
BRANCH   5   9
HETATM    9  C           1     -34.921   0.470 -13.752  0.00  0.00     0.217 C 
BRANCH   9  10
HETATM   10  O           1     -35.014  -0.351 -14.885  0.00  0.00    -0.287 OA
BRANCH  10  11
HETATM   11  P           1     -36.321  -0.139 -15.810  0.00  0.00     0.406 P 
HETATM   12  O           1     -36.506   1.305 -16.076  0.00  0.00    -0.624 OA
HETATM   13  O           1     -36.142  -0.857 -17.090  0.00  0.00    -0.624 OA
BRANCH  11  14
HETATM   14  O           1     -37.620  -0.718 -15.045  0.00  0.00    -0.300 OA
HETATM   15  H           1     -38.309  -0.698 -15.687  0.00  0.00     0.223 HD
ENDBRANCH  11  14
ENDBRANCH  10  11
ENDBRANCH   9  10
ENDBRANCH   5   9
ENDBRANCH   3   5
BRANCH   2  16
HETATM   16  C           1     -33.905  -4.086 -12.467  0.00  0.00     0.297 C 
BRANCH  16  17
HETATM   17  C           1     -34.856  -4.935 -11.633  0.00  0.00     0.206 C 
BRANCH  17  18
HETATM   18  O           1     -35.808  -4.108 -11.023  0.00  0.00    -0.398 OA
HETATM   19  H           1     -35.611  -3.224 -11.284  0.00  0.00     0.209 HD
ENDBRANCH  17  18
ENDBRANCH  16  17
BRANCH  16  20
HETATM   20  N           1     -32.493  -4.528 -12.219  0.00  0.00    -0.064 N 
HETATM   21  H           1     -32.196  -5.182 -12.977  0.00  0.00     0.275 HD
HETATM   22  H           1     -32.438  -5.016 -11.297  0.00  0.00     0.275 HD
HETATM   23  H           1     -31.864  -3.694 -12.210  0.00  0.00     0.275 HD
ENDBRANCH  16  20
ENDBRANCH   2  16
TORSDOF 10
ENDMDL
MODEL 2
REMARK VINA RESULT:      -6.0     11.693     13.323
REMARK  10 active torsions:
REMARK  status: ('A' for Active; 'I' for Inactive)
REMARK       I    between atoms: C_6  and  N_12 
REMARK    1  A    between atoms: C_6  and  C_7 
REMARK    2  A    between atoms: C_7  and  C_8 
REMARK    3  A    between atoms: C_7  and  N_13 
REMARK    4  A    between atoms: C_8  and  O_15 
REMARK    5  A    between atoms: O_10  and  P_22 
REMARK    6  A    between atoms: N_12  and  C_21 
REMARK    7  A    between atoms: C_16  and  C_21 
REMARK    8  A    between atoms: C_20  and  C_21 
REMARK    9  A    between atoms: C_20  and  O_23 
REMARK   10  A    between atoms: P_22  and  O_23 
ROOT
HETATM    1  O           1     -21.600  -3.191  -7.750  0.00  0.00    -0.271 OA
HETATM    2  C           1     -21.481  -4.310  -8.192  0.00  0.00     0.251 C 
HETATM    3  N           1     -22.018  -4.624  -9.411  0.00  0.00    -0.343 N 
HETATM    4  H           1     -21.917  -5.562  -9.780  0.00  0.00     0.163 HD
ENDROOT
BRANCH   3   5
HETATM    5  C           1     -22.729  -3.617 -10.173  0.00  0.00     0.210 C 
BRANCH   5   6
HETATM    6  C           1     -24.214  -3.778  -9.955  0.00  0.00     0.198 C 
HETATM    7  O           1     -24.745  -4.904 -10.070  0.00  0.00    -0.646 OA
HETATM    8  O           1     -24.913  -2.785  -9.660  0.00  0.00    -0.646 OA
ENDBRANCH   5   6
BRANCH   5   9
HETATM    9  C           1     -22.412  -3.784 -11.653  0.00  0.00     0.217 C 
BRANCH   9  10
HETATM   10  O           1     -22.721  -2.599 -12.335  0.00  0.00    -0.287 OA
BRANCH  10  11
HETATM   11  P           1     -23.565  -2.767 -13.702  0.00  0.00     0.406 P 
HETATM   12  O           1     -22.632  -2.871 -14.846  0.00  0.00    -0.624 OA
HETATM   13  O           1     -24.388  -3.994 -13.626  0.00  0.00    -0.624 OA
BRANCH  11  14
HETATM   14  O           1     -24.525  -1.485 -13.902  0.00  0.00    -0.300 OA
HETATM   15  H           1     -24.448  -0.996 -13.101  0.00  0.00     0.223 HD
ENDBRANCH  11  14
ENDBRANCH  10  11
ENDBRANCH   9  10
ENDBRANCH   5   9
ENDBRANCH   3   5
BRANCH   2  16
HETATM   16  C           1     -20.741  -5.358  -7.399  0.00  0.00     0.297 C 
BRANCH  16  17
HETATM   17  C           1     -21.537  -5.707  -6.148  0.00  0.00     0.206 C 
BRANCH  17  18
HETATM   18  O           1     -22.823  -5.156  -6.244  0.00  0.00    -0.398 OA
HETATM   19  H           1     -23.377  -5.651  -5.663  0.00  0.00     0.209 HD
ENDBRANCH  17  18
ENDBRANCH  16  17
BRANCH  16  20
HETATM   20  N           1     -19.396  -4.826  -7.002  0.00  0.00    -0.064 N 
HETATM   21  H           1     -19.444  -3.786  -6.916  0.00  0.00     0.275 HD
HETATM   22  H           1     -18.692  -5.082  -7.731  0.00  0.00     0.275 HD
HETATM   23  H           1     -19.114  -5.241  -6.085  0.00  0.00     0.275 HD
ENDBRANCH  16  20
ENDBRANCH   2  16
TORSDOF 10
ENDMDL
MODEL 3
REMARK VINA RESULT:      -5.9      1.464      2.006
REMARK  10 active torsions:
REMARK  status: ('A' for Active; 'I' for Inactive)
REMARK       I    between atoms: C_6  and  N_12 
REMARK    1  A    between atoms: C_6  and  C_7 
REMARK    2  A    between atoms: C_7  and  C_8 
REMARK    3  A    between atoms: C_7  and  N_13 
REMARK    4  A    between atoms: C_8  and  O_15 
REMARK    5  A    between atoms: O_10  and  P_22 
REMARK    6  A    between atoms: N_12  and  C_21 
REMARK    7  A    between atoms: C_16  and  C_21 
REMARK    8  A    between atoms: C_20  and  C_21 
REMARK    9  A    between atoms: C_20  and  O_23 
REMARK   10  A    between atoms: P_22  and  O_23 
ROOT
HETATM    1  O           1     -33.482  -1.556 -10.786  0.00  0.00    -0.271 OA
HETATM    2  C           1     -34.103  -2.283 -11.525  0.00  0.00     0.251 C 
HETATM    3  N           1     -35.271  -1.847 -12.090  0.00  0.00    -0.343 N 
HETATM    4  H           1     -35.791  -2.457 -12.709  0.00  0.00     0.163 HD
ENDROOT
BRANCH   3   5
HETATM    5  C           1     -35.764  -0.515 -11.802  0.00  0.00     0.210 C 
BRANCH   5   6
HETATM    6  C           1     -36.778  -0.585 -10.686  0.00  0.00     0.198 C 
HETATM    7  O           1     -36.472  -0.199  -9.537  0.00  0.00    -0.646 OA
HETATM    8  O           1     -37.925  -1.029 -10.910  0.00  0.00    -0.646 OA
ENDBRANCH   5   6
BRANCH   5   9
HETATM    9  C           1     -36.420   0.063 -13.049  0.00  0.00     0.217 C 
BRANCH   9  10
HETATM   10  O           1     -36.433  -0.905 -14.063  0.00  0.00    -0.287 OA
BRANCH  10  11
HETATM   11  P           1     -35.664  -0.513 -15.428  0.00  0.00     0.406 P 
HETATM   12  O           1     -35.166  -1.743 -16.084  0.00  0.00    -0.624 OA
HETATM   13  O           1     -36.598   0.187 -16.337  0.00  0.00    -0.624 OA
BRANCH  11  14
HETATM   14  O           1     -34.420   0.457 -15.083  0.00  0.00    -0.300 OA
HETATM   15  H           1     -34.437   0.552 -14.146  0.00  0.00     0.223 HD
ENDBRANCH  11  14
ENDBRANCH  10  11
ENDBRANCH   9  10
ENDBRANCH   5   9
ENDBRANCH   3   5
BRANCH   2  16
HETATM   16  C           1     -33.590  -3.669 -11.825  0.00  0.00     0.297 C 
BRANCH  16  17
HETATM   17  C           1     -34.440  -4.300 -12.922  0.00  0.00     0.206 C 
BRANCH  17  18
HETATM   18  O           1     -34.198  -3.643 -14.136  0.00  0.00    -0.398 OA
HETATM   19  H           1     -34.063  -4.311 -14.787  0.00  0.00     0.209 HD
ENDBRANCH  17  18
ENDBRANCH  16  17
BRANCH  16  20
HETATM   20  N           1     -33.669  -4.511 -10.587  0.00  0.00    -0.064 N 
HETATM   21  H           1     -32.730  -4.921 -10.384  0.00  0.00     0.275 HD
HETATM   22  H           1     -34.360  -5.281 -10.733  0.00  0.00     0.275 HD
HETATM   23  H           1     -33.973  -3.918  -9.782  0.00  0.00     0.275 HD
ENDBRANCH  16  20
ENDBRANCH   2  16
TORSDOF 10
ENDMDL
MODEL 4
REMARK VINA RESULT:      -5.4     11.467     13.757
REMARK  10 active torsions:
REMARK  status: ('A' for Active; 'I' for Inactive)
REMARK       I    between atoms: C_6  and  N_12 
REMARK    1  A    between atoms: C_6  and  C_7 
REMARK    2  A    between atoms: C_7  and  C_8 
REMARK    3  A    between atoms: C_7  and  N_13 
REMARK    4  A    between atoms: C_8  and  O_15 
REMARK    5  A    between atoms: O_10  and  P_22 
REMARK    6  A    between atoms: N_12  and  C_21 
REMARK    7  A    between atoms: C_16  and  C_21 
REMARK    8  A    between atoms: C_20  and  C_21 
REMARK    9  A    between atoms: C_20  and  O_23 
REMARK   10  A    between atoms: P_22  and  O_23 
ROOT
HETATM    1  O           1     -24.594  -3.906 -13.422  0.00  0.00    -0.271 OA
HETATM    2  C           1     -23.707  -3.176 -13.049  0.00  0.00     0.251 C 
HETATM    3  N           1     -23.244  -3.263 -11.764  0.00  0.00    -0.343 N 
HETATM    4  H           1     -22.500  -2.651 -11.452  0.00  0.00     0.163 HD
ENDROOT
BRANCH   3   5
HETATM    5  C           1     -23.818  -4.230 -10.850  0.00  0.00     0.210 C 
BRANCH   5   6
HETATM    6  C           1     -24.714  -3.520  -9.864  0.00  0.00     0.198 C 
HETATM    7  O           1     -25.866  -3.172 -10.204  0.00  0.00    -0.646 OA
HETATM    8  O           1     -24.304  -3.281  -8.708  0.00  0.00    -0.646 OA
ENDBRANCH   5   6
BRANCH   5   9
HETATM    9  C           1     -22.701  -4.943 -10.099  0.00  0.00     0.217 C 
BRANCH   9  10
HETATM   10  O           1     -21.685  -4.028  -9.792  0.00  0.00    -0.287 OA
BRANCH  10  11
HETATM   11  P           1     -21.006  -4.185  -8.334  0.00  0.00     0.406 P 
HETATM   12  O           1     -21.089  -5.598  -7.902  0.00  0.00    -0.624 OA
HETATM   13  O           1     -19.586  -3.774  -8.405  0.00  0.00    -0.624 OA
BRANCH  11  14
HETATM   14  O           1     -21.785  -3.249  -7.275  0.00  0.00    -0.300 OA
HETATM   15  H           1     -21.328  -3.370  -6.460  0.00  0.00     0.223 HD
ENDBRANCH  11  14
ENDBRANCH  10  11
ENDBRANCH   9  10
ENDBRANCH   5   9
ENDBRANCH   3   5
BRANCH   2  16
HETATM   16  C           1     -23.108  -2.169 -14.000  0.00  0.00     0.297 C 
BRANCH  16  17
HETATM   17  C           1     -24.219  -1.326 -14.613  0.00  0.00     0.206 C 
BRANCH  17  18
HETATM   18  O           1     -23.657  -0.337 -15.432  0.00  0.00    -0.398 OA
HETATM   19  H           1     -22.951   0.054 -14.945  0.00  0.00     0.209 HD
ENDBRANCH  17  18
ENDBRANCH  16  17
BRANCH  16  20
HETATM   20  N           1     -22.369  -2.889 -15.088  0.00  0.00    -0.064 N 
HETATM   21  H           1     -21.488  -3.295 -14.701  0.00  0.00     0.275 HD
HETATM   22  H           1     -22.134  -2.216 -15.853  0.00  0.00     0.275 HD
HETATM   23  H           1     -22.969  -3.654 -15.470  0.00  0.00     0.275 HD
ENDBRANCH  16  20
ENDBRANCH   2  16
TORSDOF 10
ENDMDL
MODEL 5
REMARK VINA RESULT:      -5.2     25.294     26.400
REMARK  10 active torsions:
REMARK  status: ('A' for Active; 'I' for Inactive)
REMARK       I    between atoms: C_6  and  N_12 
REMARK    1  A    between atoms: C_6  and  C_7 
REMARK    2  A    between atoms: C_7  and  C_8 
REMARK    3  A    between atoms: C_7  and  N_13 
REMARK    4  A    between atoms: C_8  and  O_15 
REMARK    5  A    between atoms: O_10  and  P_22 
REMARK    6  A    between atoms: N_12  and  C_21 
REMARK    7  A    between atoms: C_16  and  C_21 
REMARK    8  A    between atoms: C_20  and  C_21 
REMARK    9  A    between atoms: C_20  and  O_23 
REMARK   10  A    between atoms: P_22  and  O_23 
ROOT
HETATM    1  O           1     -11.988   3.252 -21.427  0.00  0.00    -0.271 OA
HETATM    2  C           1     -12.443   4.336 -21.706  0.00  0.00     0.251 C 
HETATM    3  N           1     -11.763   5.472 -21.361  0.00  0.00    -0.343 N 
HETATM    4  H           1     -12.145   6.381 -21.595  0.00  0.00     0.163 HD
ENDROOT
BRANCH   3   5
HETATM    5  C           1     -10.498   5.377 -20.661  0.00  0.00     0.210 C 
BRANCH   5   6
HETATM    6  C           1     -10.743   5.405 -19.172  0.00  0.00     0.198 C 
HETATM    7  O           1     -11.814   4.959 -18.706  0.00  0.00    -0.646 OA
HETATM    8  O           1      -9.876   5.875 -18.405  0.00  0.00    -0.646 OA
ENDBRANCH   5   6
BRANCH   5   9
HETATM    9  C           1      -9.612   6.553 -21.053  0.00  0.00     0.217 C 
BRANCH   9  10
HETATM   10  O           1     -10.415   7.652 -21.389  0.00  0.00    -0.287 OA
BRANCH  10  11
HETATM   11  P           1     -10.047   9.047 -20.664  0.00  0.00     0.406 P 
HETATM   12  O           1      -8.760   9.552 -21.192  0.00  0.00    -0.624 OA
HETATM   13  O           1     -11.112  10.039 -20.932  0.00  0.00    -0.624 OA
BRANCH  11  14
HETATM   14  O           1      -9.922   8.809 -19.072  0.00  0.00    -0.300 OA
HETATM   15  H           1     -10.244   7.936 -18.930  0.00  0.00     0.223 HD
ENDBRANCH  11  14
ENDBRANCH  10  11
ENDBRANCH   9  10
ENDBRANCH   5   9
ENDBRANCH   3   5
BRANCH   2  16
HETATM   16  C           1     -13.761   4.436 -22.435  0.00  0.00     0.297 C 
BRANCH  16  17
HETATM   17  C           1     -14.820   5.000 -21.496  0.00  0.00     0.206 C 
BRANCH  17  18
HETATM   18  O           1     -14.368   4.907 -20.172  0.00  0.00    -0.398 OA
HETATM   19  H           1     -13.571   4.404 -20.190  0.00  0.00     0.209 HD
ENDBRANCH  17  18
ENDBRANCH  16  17
BRANCH  16  20
HETATM   20  N           1     -14.179   3.073 -22.899  0.00  0.00    -0.064 N 
HETATM   21  H           1     -13.689   2.844 -23.793  0.00  0.00     0.275 HD
HETATM   22  H           1     -15.212   3.061 -23.057  0.00  0.00     0.275 HD
HETATM   23  H           1     -13.930   2.365 -22.172  0.00  0.00     0.275 HD
ENDBRANCH  16  20
ENDBRANCH   2  16
TORSDOF 10
ENDMDL
MODEL 6
REMARK VINA RESULT:      -5.0     13.775     15.856
REMARK  10 active torsions:
REMARK  status: ('A' for Active; 'I' for Inactive)
REMARK       I    between atoms: C_6  and  N_12 
REMARK    1  A    between atoms: C_6  and  C_7 
REMARK    2  A    between atoms: C_7  and  C_8 
REMARK    3  A    between atoms: C_7  and  N_13 
REMARK    4  A    between atoms: C_8  and  O_15 
REMARK    5  A    between atoms: O_10  and  P_22 
REMARK    6  A    between atoms: N_12  and  C_21 
REMARK    7  A    between atoms: C_16  and  C_21 
REMARK    8  A    between atoms: C_20  and  C_21 
REMARK    9  A    between atoms: C_20  and  O_23 
REMARK   10  A    between atoms: P_22  and  O_23 
ROOT
HETATM    1  O           1     -22.171  -7.405  -5.015  0.00  0.00    -0.271 OA
HETATM    2  C           1     -21.614  -6.434  -4.560  0.00  0.00     0.251 C 
HETATM    3  N           1     -21.280  -5.390  -5.380  0.00  0.00    -0.343 N 
HETATM    4  H           1     -20.814  -4.577  -4.998  0.00  0.00     0.163 HD
ENDROOT
BRANCH   3   5
HETATM    5  C           1     -21.594  -5.449  -6.794  0.00  0.00     0.210 C 
BRANCH   5   6
HETATM    6  C           1     -20.328  -5.685  -7.580  0.00  0.00     0.198 C 
HETATM    7  O           1     -20.037  -4.935  -8.537  0.00  0.00    -0.646 OA
HETATM    8  O           1     -19.570  -6.631  -7.275  0.00  0.00    -0.646 OA
ENDBRANCH   5   6
BRANCH   5   9
HETATM    9  C           1     -22.223  -4.132  -7.228  0.00  0.00     0.217 C 
BRANCH   9  10
HETATM   10  O           1     -23.480  -4.378  -7.798  0.00  0.00    -0.287 OA
BRANCH  10  11
HETATM   11  P           1     -23.641  -3.985  -9.357  0.00  0.00     0.406 P 
HETATM   12  O           1     -24.024  -5.188 -10.130  0.00  0.00    -0.624 OA
HETATM   13  O           1     -24.690  -2.953  -9.500  0.00  0.00    -0.624 OA
BRANCH  11  14
HETATM   14  O           1     -22.239  -3.409  -9.913  0.00  0.00    -0.300 OA
HETATM   15  H           1     -21.654  -3.437  -9.175  0.00  0.00     0.223 HD
ENDBRANCH  11  14
ENDBRANCH  10  11
ENDBRANCH   9  10
ENDBRANCH   5   9
ENDBRANCH   3   5
BRANCH   2  16
HETATM   16  C           1     -21.287  -6.373  -3.088  0.00  0.00     0.297 C 
BRANCH  16  17
HETATM   17  C           1     -20.916  -7.765  -2.591  0.00  0.00     0.206 C 
BRANCH  17  18
HETATM   18  O           1     -19.972  -8.333  -3.457  0.00  0.00    -0.398 OA
HETATM   19  H           1     -19.509  -7.620  -3.864  0.00  0.00     0.209 HD
ENDBRANCH  17  18
ENDBRANCH  16  17
BRANCH  16  20
HETATM   20  N           1     -22.482  -5.875  -2.332  0.00  0.00    -0.064 N 
HETATM   21  H           1     -23.301  -5.812  -2.978  0.00  0.00     0.275 HD
HETATM   22  H           1     -22.276  -4.928  -1.940  0.00  0.00     0.275 HD
HETATM   23  H           1     -22.701  -6.535  -1.552  0.00  0.00     0.275 HD
ENDBRANCH  16  20
ENDBRANCH   2  16
TORSDOF 10
ENDMDL
MODEL 7
REMARK VINA RESULT:      -4.4     25.047     26.174
REMARK  10 active torsions:
REMARK  status: ('A' for Active; 'I' for Inactive)
REMARK       I    between atoms: C_6  and  N_12 
REMARK    1  A    between atoms: C_6  and  C_7 
REMARK    2  A    between atoms: C_7  and  C_8 
REMARK    3  A    between atoms: C_7  and  N_13 
REMARK    4  A    between atoms: C_8  and  O_15 
REMARK    5  A    between atoms: O_10  and  P_22 
REMARK    6  A    between atoms: N_12  and  C_21 
REMARK    7  A    between atoms: C_16  and  C_21 
REMARK    8  A    between atoms: C_20  and  C_21 
REMARK    9  A    between atoms: C_20  and  O_23 
REMARK   10  A    between atoms: P_22  and  O_23 
ROOT
HETATM    1  O           1     -11.356   3.872 -22.535  0.00  0.00    -0.271 OA
HETATM    2  C           1     -12.239   4.536 -22.045  0.00  0.00     0.251 C 
HETATM    3  N           1     -11.940   5.715 -21.417  0.00  0.00    -0.343 N 
HETATM    4  H           1     -12.681   6.270 -21.007  0.00  0.00     0.163 HD
ENDROOT
BRANCH   3   5
HETATM    5  C           1     -10.566   6.168 -21.339  0.00  0.00     0.210 C 
BRANCH   5   6
HETATM    6  C           1     -10.053   5.978 -19.933  0.00  0.00     0.198 C 
HETATM    7  O           1      -8.823   5.972 -19.711  0.00  0.00    -0.646 OA
HETATM    8  O           1     -10.858   5.825 -18.989  0.00  0.00    -0.646 OA
ENDBRANCH   5   6
BRANCH   5   9
HETATM    9  C           1     -10.498   7.644 -21.709  0.00  0.00     0.217 C 
BRANCH   9  10
HETATM   10  O           1     -10.622   8.424 -20.551  0.00  0.00    -0.287 OA
BRANCH  10  11
HETATM   11  P           1     -11.959   9.323 -20.440  0.00  0.00     0.406 P 
HETATM   12  O           1     -13.090   8.602 -21.064  0.00  0.00    -0.624 OA
HETATM   13  O           1     -12.264   9.581 -19.016  0.00  0.00    -0.624 OA
BRANCH  11  14
HETATM   14  O           1     -11.726  10.727 -21.203  0.00  0.00    -0.300 OA
HETATM   15  H           1     -12.241  10.666 -21.989  0.00  0.00     0.223 HD
ENDBRANCH  11  14
ENDBRANCH  10  11
ENDBRANCH   9  10
ENDBRANCH   5   9
ENDBRANCH   3   5
BRANCH   2  16
HETATM   16  C           1     -13.670   4.064 -22.126  0.00  0.00     0.297 C 
BRANCH  16  17
HETATM   17  C           1     -14.518   4.837 -21.124  0.00  0.00     0.206 C 
BRANCH  17  18
HETATM   18  O           1     -14.137   4.486 -19.821  0.00  0.00    -0.398 OA
HETATM   19  H           1     -13.439   3.857 -19.900  0.00  0.00     0.209 HD
ENDBRANCH  17  18
ENDBRANCH  16  17
BRANCH  16  20
HETATM   20  N           1     -13.732   2.600 -21.809  0.00  0.00    -0.064 N 
HETATM   21  H           1     -12.767   2.199 -21.824  0.00  0.00     0.275 HD
HETATM   22  H           1     -14.321   2.114 -22.522  0.00  0.00     0.275 HD
HETATM   23  H           1     -14.151   2.466 -20.861  0.00  0.00     0.275 HD
ENDBRANCH  16  20
ENDBRANCH   2  16
TORSDOF 10
ENDMDL
MODEL 8
REMARK VINA RESULT:      -4.4      2.274      2.847
REMARK  10 active torsions:
REMARK  status: ('A' for Active; 'I' for Inactive)
REMARK       I    between atoms: C_6  and  N_12 
REMARK    1  A    between atoms: C_6  and  C_7 
REMARK    2  A    between atoms: C_7  and  C_8 
REMARK    3  A    between atoms: C_7  and  N_13 
REMARK    4  A    between atoms: C_8  and  O_15 
REMARK    5  A    between atoms: O_10  and  P_22 
REMARK    6  A    between atoms: N_12  and  C_21 
REMARK    7  A    between atoms: C_16  and  C_21 
REMARK    8  A    between atoms: C_20  and  C_21 
REMARK    9  A    between atoms: C_20  and  O_23 
REMARK   10  A    between atoms: P_22  and  O_23 
ROOT
HETATM    1  O           1     -32.877  -4.701 -11.334  0.00  0.00    -0.271 OA
HETATM    2  C           1     -34.008  -5.086 -11.157  0.00  0.00     0.251 C 
HETATM    3  N           1     -35.046  -4.194 -11.180  0.00  0.00    -0.343 N 
HETATM    4  H           1     -35.994  -4.517 -11.032  0.00  0.00     0.163 HD
ENDROOT
BRANCH   3   5
HETATM    5  C           1     -34.788  -2.787 -11.416  0.00  0.00     0.210 C 
BRANCH   5   6
HETATM    6  C           1     -35.742  -1.956 -10.592  0.00  0.00     0.198 C 
HETATM    7  O           1     -35.298  -1.131  -9.764  0.00  0.00    -0.646 OA
HETATM    8  O           1     -36.975  -2.094 -10.738  0.00  0.00    -0.646 OA
ENDBRANCH   5   6
BRANCH   5   9
HETATM    9  C           1     -34.989  -2.476 -12.893  0.00  0.00     0.217 C 
BRANCH   9  10
HETATM   10  O           1     -34.349  -1.269 -13.208  0.00  0.00    -0.287 OA
BRANCH  10  11
HETATM   11  P           1     -35.294  -0.096 -13.791  0.00  0.00     0.406 P 
HETATM   12  O           1     -35.552   0.901 -12.728  0.00  0.00    -0.624 OA
HETATM   13  O           1     -34.618   0.563 -14.930  0.00  0.00    -0.624 OA
BRANCH  11  14
HETATM   14  O           1     -36.693  -0.730 -14.288  0.00  0.00    -0.300 OA
HETATM   15  H           1     -36.450  -1.469 -14.819  0.00  0.00     0.223 HD
ENDBRANCH  11  14
ENDBRANCH  10  11
ENDBRANCH   9  10
ENDBRANCH   5   9
ENDBRANCH   3   5
BRANCH   2  16
HETATM   16  C           1     -34.277  -6.551 -10.912  0.00  0.00     0.297 C 
BRANCH  16  17
HETATM   17  C           1     -35.067  -6.714  -9.620  0.00  0.00     0.206 C 
BRANCH  17  18
HETATM   18  O           1     -34.732  -7.934  -9.018  0.00  0.00    -0.398 OA
HETATM   19  H           1     -33.798  -7.932  -8.895  0.00  0.00     0.209 HD
ENDBRANCH  17  18
ENDBRANCH  16  17
BRANCH  16  20
HETATM   20  N           1     -32.975  -7.285 -10.797  0.00  0.00    -0.064 N 
HETATM   21  H           1     -33.154  -8.314 -10.807  0.00  0.00     0.275 HD
HETATM   22  H           1     -32.505  -7.022  -9.901  0.00  0.00     0.275 HD
HETATM   23  H           1     -32.358  -7.029 -11.601  0.00  0.00     0.275 HD
ENDBRANCH  16  20
ENDBRANCH   2  16
TORSDOF 10
ENDMDL
MODEL 9
REMARK VINA RESULT:      -4.3     17.352     18.745
REMARK  10 active torsions:
REMARK  status: ('A' for Active; 'I' for Inactive)
REMARK       I    between atoms: C_6  and  N_12 
REMARK    1  A    between atoms: C_6  and  C_7 
REMARK    2  A    between atoms: C_7  and  C_8 
REMARK    3  A    between atoms: C_7  and  N_13 
REMARK    4  A    between atoms: C_8  and  O_15 
REMARK    5  A    between atoms: O_10  and  P_22 
REMARK    6  A    between atoms: N_12  and  C_21 
REMARK    7  A    between atoms: C_16  and  C_21 
REMARK    8  A    between atoms: C_20  and  C_21 
REMARK    9  A    between atoms: C_20  and  O_23 
REMARK   10  A    between atoms: P_22  and  O_23 
ROOT
HETATM    1  O           1     -21.010 -10.623  -0.212  0.00  0.00    -0.271 OA
HETATM    2  C           1     -21.813 -10.613  -1.116  0.00  0.00     0.251 C 
HETATM    3  N           1     -22.064  -9.451  -1.794  0.00  0.00    -0.343 N 
HETATM    4  H           1     -22.737  -9.444  -2.551  0.00  0.00     0.163 HD
ENDROOT
BRANCH   3   5
HETATM    5  C           1     -21.370  -8.233  -1.429  0.00  0.00     0.210 C 
BRANCH   5   6
HETATM    6  C           1     -22.343  -7.270  -0.793  0.00  0.00     0.198 C 
HETATM    7  O           1     -22.433  -6.099  -1.220  0.00  0.00    -0.646 OA
HETATM    8  O           1     -23.057  -7.645   0.161  0.00  0.00    -0.646 OA
ENDBRANCH   5   6
BRANCH   5   9
HETATM    9  C           1     -20.771  -7.598  -2.678  0.00  0.00     0.217 C 
BRANCH   9  10
HETATM   10  O           1     -21.586  -7.879  -3.783  0.00  0.00    -0.287 OA
BRANCH  10  11
HETATM   11  P           1     -21.689  -6.718  -4.901  0.00  0.00     0.406 P 
HETATM   12  O           1     -23.093  -6.264  -5.012  0.00  0.00    -0.624 OA
HETATM   13  O           1     -20.832  -5.577  -4.509  0.00  0.00    -0.624 OA
BRANCH  11  14
HETATM   14  O           1     -21.194  -7.297  -6.324  0.00  0.00    -0.300 OA
HETATM   15  H           1     -20.364  -6.882  -6.482  0.00  0.00     0.223 HD
ENDBRANCH  11  14
ENDBRANCH  10  11
ENDBRANCH   9  10
ENDBRANCH   5   9
ENDBRANCH   3   5
BRANCH   2  16
HETATM   16  C           1     -22.536 -11.882  -1.496  0.00  0.00     0.297 C 
BRANCH  16  17
HETATM   17  C           1     -23.953 -11.846  -0.937  0.00  0.00     0.206 C 
BRANCH  17  18
HETATM   18  O           1     -24.103 -10.720  -0.116  0.00  0.00    -0.398 OA
HETATM   19  H           1     -23.759 -10.950   0.731  0.00  0.00     0.209 HD
ENDBRANCH  17  18
ENDBRANCH  16  17
BRANCH  16  20
HETATM   20  N           1     -21.805 -13.062  -0.929  0.00  0.00    -0.064 N 
HETATM   21  H           1     -21.497 -13.687  -1.707  0.00  0.00     0.275 HD
HETATM   22  H           1     -22.441 -13.590  -0.290  0.00  0.00     0.275 HD
HETATM   23  H           1     -20.970 -12.731  -0.395  0.00  0.00     0.275 HD
ENDBRANCH  16  20
ENDBRANCH   2  16
TORSDOF 10
ENDMDL
