MODEL 1
REMARK VINA RESULT:      -6.6      0.000      0.000
REMARK  11 active torsions:
REMARK  status: ('A' for Active; 'I' for Inactive)
REMARK    1  A    between atoms: C_1  and  C_13 
REMARK    2  A    between atoms: C_1  and  C_16 
REMARK    3  A    between atoms: C_1  and  N_6 
REMARK    4  A    between atoms: N_4  and  C_23 
REMARK       I    between atoms: N_4  and  C_13 
REMARK    5  A    between atoms: C_5  and  C_21 
REMARK    6  A    between atoms: C_5  and  N_14 
REMARK    7  A    between atoms: C_7  and  C_22 
REMARK    8  A    between atoms: C_7  and  C_23 
REMARK    9  A    between atoms: C_16  and  C_24 
REMARK   10  A    between atoms: C_18  and  C_23 
REMARK   11  A    between atoms: C_21  and  C_24 
ROOT
HETATM    1  C           1     -21.098  -5.917  -7.023  0.00  0.00     0.274 C 
ENDROOT
BRANCH   1   2
HETATM    2  C           1     -21.680  -4.688  -7.677  0.00  0.00     0.249 C 
HETATM    3  N           1     -22.202  -4.766  -8.940  0.00  0.00    -0.344 N 
HETATM    4  H           1     -22.198  -5.648  -9.436  0.00  0.00     0.163 HD
HETATM    5  O           1     -21.685  -3.635  -7.085  0.00  0.00    -0.271 OA
BRANCH   3   6
HETATM    6  C           1     -22.761  -3.585  -9.568  0.00  0.00     0.189 C 
BRANCH   6   7
HETATM    7  C           1     -22.092  -3.364 -10.918  0.00  0.00     0.014 C 
HETATM    8  C           1     -20.734  -4.054 -10.930  0.00  0.00     0.012 C 
BRANCH   7   9
HETATM    9  C           1     -22.968  -3.945 -12.019  0.00  0.00     0.002 C 
HETATM   10  C           1     -23.099  -2.935 -13.151  0.00  0.00     0.005 C 
ENDBRANCH   7   9
ENDBRANCH   6   7
BRANCH   6  11
HETATM   11  C           1     -24.245  -3.776  -9.767  0.00  0.00     0.197 C 
HETATM   12  O           1     -25.007  -2.786  -9.778  0.00  0.00    -0.646 OA
HETATM   13  O           1     -24.712  -4.925  -9.921  0.00  0.00    -0.646 OA
ENDBRANCH   6  11
ENDBRANCH   3   6
ENDBRANCH   1   2
BRANCH   1  14
HETATM   14  C           1     -21.073  -5.727  -5.513  0.00  0.00     0.042 C 
BRANCH  14  15
HETATM   15  C           1     -22.217  -6.513  -4.883  0.00  0.00     0.004 C 
BRANCH  15  16
HETATM   16  C           1     -21.656  -7.499  -3.868  0.00  0.00     0.027 C 
BRANCH  16  17
HETATM   17  C           1     -21.257  -6.753  -2.601  0.00  0.00     0.229 C 
BRANCH  17  18
HETATM   18  N           1     -22.422  -5.951  -2.104  0.00  0.00    -0.079 N 
HETATM   19  H           1     -22.091  -5.258  -1.397  0.00  0.00     0.274 HD
HETATM   20  H           1     -22.865  -5.447  -2.905  0.00  0.00     0.274 HD
HETATM   21  H           1     -23.124  -6.590  -1.666  0.00  0.00     0.274 HD
ENDBRANCH  17  18
ENDBRANCH  16  17
ENDBRANCH  15  16
ENDBRANCH  14  15
ENDBRANCH   1  14
BRANCH   1  22
HETATM   22  N           1     -19.700  -6.134  -7.523  0.00  0.00    -0.067 N 
HETATM   23  H           1     -19.234  -5.210  -7.665  0.00  0.00     0.275 HD
HETATM   24  H           1     -19.162  -6.692  -6.822  0.00  0.00     0.275 HD
HETATM   25  H           1     -19.732  -6.652  -8.431  0.00  0.00     0.275 HD
ENDBRANCH   1  22
TORSDOF 11
ENDMDL
MODEL 2
REMARK VINA RESULT:      -6.5      1.488      2.028
REMARK  11 active torsions:
REMARK  status: ('A' for Active; 'I' for Inactive)
REMARK    1  A    between atoms: C_1  and  C_13 
REMARK    2  A    between atoms: C_1  and  C_16 
REMARK    3  A    between atoms: C_1  and  N_6 
REMARK    4  A    between atoms: N_4  and  C_23 
REMARK       I    between atoms: N_4  and  C_13 
REMARK    5  A    between atoms: C_5  and  C_21 
REMARK    6  A    between atoms: C_5  and  N_14 
REMARK    7  A    between atoms: C_7  and  C_22 
REMARK    8  A    between atoms: C_7  and  C_23 
REMARK    9  A    between atoms: C_16  and  C_24 
REMARK   10  A    between atoms: C_18  and  C_23 
REMARK   11  A    between atoms: C_21  and  C_24 
ROOT
HETATM    1  C           1     -21.126  -5.619  -7.017  0.00  0.00     0.274 C 
ENDROOT
BRANCH   1   2
HETATM    2  C           1     -21.746  -4.522  -7.847  0.00  0.00     0.249 C 
HETATM    3  N           1     -22.338  -4.821  -9.045  0.00  0.00    -0.344 N 
HETATM    4  H           1     -22.359  -5.778  -9.373  0.00  0.00     0.163 HD
HETATM    5  O           1     -21.722  -3.380  -7.455  0.00  0.00    -0.271 OA
BRANCH   3   6
HETATM    6  C           1     -22.934  -3.768  -9.842  0.00  0.00     0.189 C 
BRANCH   6   7
HETATM    7  C           1     -22.566  -3.971 -11.306  0.00  0.00     0.014 C 
HETATM    8  C           1     -22.876  -2.700 -12.087  0.00  0.00     0.012 C 
BRANCH   7   9
HETATM    9  C           1     -21.081  -4.286 -11.417  0.00  0.00     0.002 C 
HETATM   10  C           1     -20.273  -3.022 -11.153  0.00  0.00     0.005 C 
ENDBRANCH   7   9
ENDBRANCH   6   7
BRANCH   6  11
HETATM   11  C           1     -24.435  -3.810  -9.690  0.00  0.00     0.197 C 
HETATM   12  O           1     -25.043  -4.897  -9.792  0.00  0.00    -0.646 OA
HETATM   13  O           1     -25.070  -2.759  -9.461  0.00  0.00    -0.646 OA
ENDBRANCH   6  11
ENDBRANCH   3   6
ENDBRANCH   1   2
BRANCH   1  14
HETATM   14  C           1     -20.746  -5.068  -5.648  0.00  0.00     0.042 C 
BRANCH  14  15
HETATM   15  C           1     -21.291  -5.988  -4.562  0.00  0.00     0.004 C 
BRANCH  15  16
HETATM   16  C           1     -21.747  -7.299  -5.189  0.00  0.00     0.027 C 
BRANCH  16  17
HETATM   17  C           1     -20.821  -8.424  -4.746  0.00  0.00     0.229 C 
BRANCH  17  18
HETATM   18  N           1     -20.951  -9.581  -5.691  0.00  0.00    -0.079 N 
HETATM   19  H           1     -21.936  -9.930  -5.678  0.00  0.00     0.274 HD
HETATM   20  H           1     -20.704  -9.271  -6.657  0.00  0.00     0.274 HD
HETATM   21  H           1     -20.304 -10.347  -5.396  0.00  0.00     0.274 HD
ENDBRANCH  17  18
ENDBRANCH  16  17
ENDBRANCH  15  16
ENDBRANCH  14  15
ENDBRANCH   1  14
BRANCH   1  22
HETATM   22  N           1     -19.897  -6.133  -7.707  0.00  0.00    -0.067 N 
HETATM   23  H           1     -19.156  -5.396  -7.694  0.00  0.00     0.275 HD
HETATM   24  H           1     -19.550  -6.985  -7.212  0.00  0.00     0.275 HD
HETATM   25  H           1     -20.130  -6.375  -8.697  0.00  0.00     0.275 HD
ENDBRANCH   1  22
TORSDOF 11
ENDMDL
MODEL 3
REMARK VINA RESULT:      -6.3      2.165      6.535
REMARK  11 active torsions:
REMARK  status: ('A' for Active; 'I' for Inactive)
REMARK    1  A    between atoms: C_1  and  C_13 
REMARK    2  A    between atoms: C_1  and  C_16 
REMARK    3  A    between atoms: C_1  and  N_6 
REMARK    4  A    between atoms: N_4  and  C_23 
REMARK       I    between atoms: N_4  and  C_13 
REMARK    5  A    between atoms: C_5  and  C_21 
REMARK    6  A    between atoms: C_5  and  N_14 
REMARK    7  A    between atoms: C_7  and  C_22 
REMARK    8  A    between atoms: C_7  and  C_23 
REMARK    9  A    between atoms: C_16  and  C_24 
REMARK   10  A    between atoms: C_18  and  C_23 
REMARK   11  A    between atoms: C_21  and  C_24 
ROOT
HETATM    1  C           1     -24.180  -4.649  -9.796  0.00  0.00     0.274 C 
ENDROOT
BRANCH   1   2
HETATM    2  C           1     -23.016  -4.151  -8.975  0.00  0.00     0.249 C 
HETATM    3  N           1     -22.199  -5.043  -8.333  0.00  0.00    -0.344 N 
HETATM    4  H           1     -22.377  -6.036  -8.409  0.00  0.00     0.163 HD
HETATM    5  O           1     -22.804  -2.965  -8.885  0.00  0.00    -0.271 OA
BRANCH   3   6
HETATM    6  C           1     -21.081  -4.565  -7.545  0.00  0.00     0.189 C 
BRANCH   6   7
HETATM    7  C           1     -20.876  -5.483  -6.347  0.00  0.00     0.014 C 
HETATM    8  C           1     -20.173  -4.715  -5.234  0.00  0.00     0.012 C 
BRANCH   7   9
HETATM    9  C           1     -22.227  -5.977  -5.850  0.00  0.00     0.002 C 
HETATM   10  C           1     -22.050  -6.675  -4.508  0.00  0.00     0.005 C 
ENDBRANCH   7   9
ENDBRANCH   6   7
BRANCH   6  11
HETATM   11  C           1     -19.834  -4.559  -8.394  0.00  0.00     0.197 C 
HETATM   12  O           1     -18.768  -4.093  -7.937  0.00  0.00    -0.646 OA
HETATM   13  O           1     -19.866  -5.020  -9.556  0.00  0.00    -0.646 OA
ENDBRANCH   6  11
ENDBRANCH   3   6
ENDBRANCH   1   2
BRANCH   1  14
HETATM   14  C           1     -23.772  -4.731 -11.261  0.00  0.00     0.042 C 
BRANCH  14  15
HETATM   15  C           1     -24.227  -3.471 -11.986  0.00  0.00     0.004 C 
BRANCH  15  16
HETATM   16  C           1     -23.011  -2.633 -12.360  0.00  0.00     0.027 C 
BRANCH  16  17
HETATM   17  C           1     -21.763  -3.506 -12.330  0.00  0.00     0.229 C 
BRANCH  17  18
HETATM   18  N           1     -20.716  -2.852 -11.478  0.00  0.00    -0.079 N 
HETATM   19  H           1     -21.171  -2.405 -10.650  0.00  0.00     0.274 HD
HETATM   20  H           1     -20.033  -3.572 -11.153  0.00  0.00     0.274 HD
HETATM   21  H           1     -20.216  -2.125 -12.038  0.00  0.00     0.274 HD
ENDBRANCH  17  18
ENDBRANCH  16  17
ENDBRANCH  15  16
ENDBRANCH  14  15
ENDBRANCH   1  14
BRANCH   1  22
HETATM   22  N           1     -25.334  -3.701  -9.651  0.00  0.00    -0.067 N 
HETATM   23  H           1     -24.985  -2.777  -9.310  0.00  0.00     0.275 HD
HETATM   24  H           1     -25.801  -3.577 -10.577  0.00  0.00     0.275 HD
HETATM   25  H           1     -26.019  -4.090  -8.964  0.00  0.00     0.275 HD
ENDBRANCH   1  22
TORSDOF 11
ENDMDL
MODEL 4
REMARK VINA RESULT:      -6.2      2.857      7.442
REMARK  11 active torsions:
REMARK  status: ('A' for Active; 'I' for Inactive)
REMARK    1  A    between atoms: C_1  and  C_13 
REMARK    2  A    between atoms: C_1  and  C_16 
REMARK    3  A    between atoms: C_1  and  N_6 
REMARK    4  A    between atoms: N_4  and  C_23 
REMARK       I    between atoms: N_4  and  C_13 
REMARK    5  A    between atoms: C_5  and  C_21 
REMARK    6  A    between atoms: C_5  and  N_14 
REMARK    7  A    between atoms: C_7  and  C_22 
REMARK    8  A    between atoms: C_7  and  C_23 
REMARK    9  A    between atoms: C_16  and  C_24 
REMARK   10  A    between atoms: C_18  and  C_23 
REMARK   11  A    between atoms: C_21  and  C_24 
ROOT
HETATM    1  C           1     -21.601  -5.039  -7.673  0.00  0.00     0.274 C 
ENDROOT
BRANCH   1   2
HETATM    2  C           1     -20.811  -5.643  -6.538  0.00  0.00     0.249 C 
HETATM    3  N           1     -21.218  -6.821  -5.971  0.00  0.00    -0.344 N 
HETATM    4  H           1     -22.049  -7.286  -6.314  0.00  0.00     0.163 HD
HETATM    5  O           1     -19.819  -5.087  -6.130  0.00  0.00    -0.271 OA
BRANCH   3   6
HETATM    6  C           1     -20.459  -7.401  -4.881  0.00  0.00     0.189 C 
BRANCH   6   7
HETATM    7  C           1     -21.364  -7.571  -3.668  0.00  0.00     0.014 C 
HETATM    8  C           1     -20.581  -8.232  -2.541  0.00  0.00     0.012 C 
BRANCH   7   9
HETATM    9  C           1     -21.860  -6.207  -3.210  0.00  0.00     0.002 C 
HETATM   10  C           1     -22.224  -6.268  -1.732  0.00  0.00     0.005 C 
ENDBRANCH   7   9
ENDBRANCH   6   7
BRANCH   6  11
HETATM   11  C           1     -19.923  -8.747  -5.303  0.00  0.00     0.197 C 
HETATM   12  O           1     -18.701  -8.990  -5.212  0.00  0.00    -0.646 OA
HETATM   13  O           1     -20.702  -9.620  -5.741  0.00  0.00    -0.646 OA
ENDBRANCH   6  11
ENDBRANCH   3   6
ENDBRANCH   1   2
BRANCH   1  14
HETATM   14  C           1     -20.720  -4.065  -8.445  0.00  0.00     0.042 C 
BRANCH  14  15
HETATM   15  C           1     -20.180  -4.750  -9.694  0.00  0.00     0.004 C 
BRANCH  15  16
HETATM   16  C           1     -20.456  -3.876 -10.911  0.00  0.00     0.027 C 
BRANCH  16  17
HETATM   17  C           1     -21.770  -4.300 -11.555  0.00  0.00     0.229 C 
BRANCH  17  18
HETATM   18  N           1     -21.930  -3.599 -12.871  0.00  0.00    -0.079 N 
HETATM   19  H           1     -21.338  -2.739 -12.881  0.00  0.00     0.274 HD
HETATM   20  H           1     -21.631  -4.237 -13.643  0.00  0.00     0.274 HD
HETATM   21  H           1     -22.933  -3.336 -13.006  0.00  0.00     0.274 HD
ENDBRANCH  17  18
ENDBRANCH  16  17
ENDBRANCH  15  16
ENDBRANCH  14  15
ENDBRANCH   1  14
BRANCH   1  22
HETATM   22  N           1     -22.789  -4.308  -7.121  0.00  0.00    -0.067 N 
HETATM   23  H           1     -23.154  -4.818  -6.285  0.00  0.00     0.275 HD
HETATM   24  H           1     -22.506  -3.342  -6.843  0.00  0.00     0.275 HD
HETATM   25  H           1     -23.536  -4.257  -7.851  0.00  0.00     0.275 HD
ENDBRANCH   1  22
TORSDOF 11
ENDMDL
MODEL 5
REMARK VINA RESULT:      -6.1      2.796      7.299
REMARK  11 active torsions:
REMARK  status: ('A' for Active; 'I' for Inactive)
REMARK    1  A    between atoms: C_1  and  C_13 
REMARK    2  A    between atoms: C_1  and  C_16 
REMARK    3  A    between atoms: C_1  and  N_6 
REMARK    4  A    between atoms: N_4  and  C_23 
REMARK       I    between atoms: N_4  and  C_13 
REMARK    5  A    between atoms: C_5  and  C_21 
REMARK    6  A    between atoms: C_5  and  N_14 
REMARK    7  A    between atoms: C_7  and  C_22 
REMARK    8  A    between atoms: C_7  and  C_23 
REMARK    9  A    between atoms: C_16  and  C_24 
REMARK   10  A    between atoms: C_18  and  C_23 
REMARK   11  A    between atoms: C_21  and  C_24 
ROOT
HETATM    1  C           1     -20.484  -5.149  -6.309  0.00  0.00     0.274 C 
ENDROOT
BRANCH   1   2
HETATM    2  C           1     -21.344  -5.976  -5.385  0.00  0.00     0.249 C 
HETATM    3  N           1     -20.761  -6.807  -4.466  0.00  0.00    -0.344 N 
HETATM    4  H           1     -19.753  -6.867  -4.408  0.00  0.00     0.163 HD
HETATM    5  O           1     -22.548  -5.903  -5.455  0.00  0.00    -0.271 OA
BRANCH   3   6
HETATM    6  C           1     -21.588  -7.600  -3.579  0.00  0.00     0.189 C 
BRANCH   6   7
HETATM    7  C           1     -20.963  -8.978  -3.402  0.00  0.00     0.014 C 
HETATM    8  C           1     -21.829 -10.021  -4.098  0.00  0.00     0.012 C 
BRANCH   7   9
HETATM    9  C           1     -19.569  -8.985  -4.013  0.00  0.00     0.002 C 
HETATM   10  C           1     -18.547  -9.353  -2.945  0.00  0.00     0.005 C 
ENDBRANCH   7   9
ENDBRANCH   6   7
BRANCH   6  11
HETATM   11  C           1     -21.686  -6.916  -2.238  0.00  0.00     0.197 C 
HETATM   12  O           1     -21.174  -7.444  -1.227  0.00  0.00    -0.646 OA
HETATM   13  O           1     -22.278  -5.820  -2.137  0.00  0.00    -0.646 OA
ENDBRANCH   6  11
ENDBRANCH   3   6
ENDBRANCH   1   2
BRANCH   1  14
HETATM   14  C           1     -21.355  -4.143  -7.050  0.00  0.00     0.042 C 
BRANCH  14  15
HETATM   15  C           1     -20.974  -4.132  -8.526  0.00  0.00     0.004 C 
BRANCH  15  16
HETATM   16  C           1     -22.235  -4.202  -9.376  0.00  0.00     0.027 C 
BRANCH  16  17
HETATM   17  C           1     -23.460  -4.200  -8.471  0.00  0.00     0.229 C 
BRANCH  17  18
HETATM   18  N           1     -24.497  -3.275  -9.036  0.00  0.00    -0.079 N 
HETATM   19  H           1     -25.448  -3.611  -8.762  0.00  0.00     0.274 HD
HETATM   20  H           1     -24.347  -2.312  -8.661  0.00  0.00     0.274 HD
HETATM   21  H           1     -24.418  -3.259 -10.078  0.00  0.00     0.274 HD
ENDBRANCH  17  18
ENDBRANCH  16  17
ENDBRANCH  15  16
ENDBRANCH  14  15
ENDBRANCH   1  14
BRANCH   1  22
HETATM   22  N           1     -19.808  -6.050  -7.299  0.00  0.00    -0.067 N 
HETATM   23  H           1     -20.512  -6.696  -7.721  0.00  0.00     0.275 HD
HETATM   24  H           1     -19.370  -5.473  -8.052  0.00  0.00     0.275 HD
HETATM   25  H           1     -19.069  -6.608  -6.814  0.00  0.00     0.275 HD
ENDBRANCH   1  22
TORSDOF 11
ENDMDL
MODEL 6
REMARK VINA RESULT:      -6.1     13.080     15.905
REMARK  11 active torsions:
REMARK  status: ('A' for Active; 'I' for Inactive)
REMARK    1  A    between atoms: C_1  and  C_13 
REMARK    2  A    between atoms: C_1  and  C_16 
REMARK    3  A    between atoms: C_1  and  N_6 
REMARK    4  A    between atoms: N_4  and  C_23 
REMARK       I    between atoms: N_4  and  C_13 
REMARK    5  A    between atoms: C_5  and  C_21 
REMARK    6  A    between atoms: C_5  and  N_14 
REMARK    7  A    between atoms: C_7  and  C_22 
REMARK    8  A    between atoms: C_7  and  C_23 
REMARK    9  A    between atoms: C_16  and  C_24 
REMARK   10  A    between atoms: C_18  and  C_23 
REMARK   11  A    between atoms: C_21  and  C_24 
ROOT
HETATM    1  C           1     -36.142   0.374 -14.637  0.00  0.00     0.274 C 
ENDROOT
BRANCH   1   2
HETATM    2  C           1     -36.665  -0.333 -13.411  0.00  0.00     0.249 C 
HETATM    3  N           1     -35.866  -0.474 -12.308  0.00  0.00    -0.344 N 
HETATM    4  H           1     -34.925  -0.104 -12.315  0.00  0.00     0.163 HD
HETATM    5  O           1     -37.790  -0.774 -13.401  0.00  0.00    -0.271 OA
BRANCH   3   6
HETATM    6  C           1     -36.370  -1.152 -11.130  0.00  0.00     0.189 C 
BRANCH   6   7
HETATM    7  C           1     -35.301  -2.096 -10.594  0.00  0.00     0.014 C 
HETATM    8  C           1     -35.754  -3.538 -10.789  0.00  0.00     0.012 C 
BRANCH   7   9
HETATM    9  C           1     -33.998  -1.866 -11.346  0.00  0.00     0.002 C 
HETATM   10  C           1     -33.178  -3.150 -11.347  0.00  0.00     0.005 C 
ENDBRANCH   7   9
ENDBRANCH   6   7
BRANCH   6  11
HETATM   11  C           1     -36.717  -0.133 -10.073  0.00  0.00     0.197 C 
HETATM   12  O           1     -37.571   0.748 -10.310  0.00  0.00    -0.646 OA
HETATM   13  O           1     -36.150  -0.169  -8.959  0.00  0.00    -0.646 OA
ENDBRANCH   6  11
ENDBRANCH   3   6
ENDBRANCH   1   2
BRANCH   1  14
HETATM   14  C           1     -36.485  -0.439 -15.878  0.00  0.00     0.042 C 
BRANCH  14  15
HETATM   15  C           1     -35.200  -0.917 -16.543  0.00  0.00     0.004 C 
BRANCH  15  16
HETATM   16  C           1     -35.119  -2.435 -16.458  0.00  0.00     0.027 C 
BRANCH  16  17
HETATM   17  C           1     -33.892  -2.922 -17.219  0.00  0.00     0.229 C 
BRANCH  17  18
HETATM   18  N           1     -33.295  -4.098 -16.504  0.00  0.00    -0.079 N 
HETATM   19  H           1     -33.667  -4.982 -16.918  0.00  0.00     0.274 HD
HETATM   20  H           1     -32.255  -4.075 -16.606  0.00  0.00     0.274 HD
HETATM   21  H           1     -33.546  -4.053 -15.490  0.00  0.00     0.274 HD
ENDBRANCH  17  18
ENDBRANCH  16  17
ENDBRANCH  15  16
ENDBRANCH  14  15
ENDBRANCH   1  14
BRANCH   1  22
HETATM   22  N           1     -34.653   0.520 -14.531  0.00  0.00    -0.067 N 
HETATM   23  H           1     -34.348   0.282 -13.560  0.00  0.00     0.275 HD
HETATM   24  H           1     -34.190  -0.126 -15.209  0.00  0.00     0.275 HD
HETATM   25  H           1     -34.384   1.507 -14.749  0.00  0.00     0.275 HD
ENDBRANCH   1  22
TORSDOF 11
ENDMDL
MODEL 7
REMARK VINA RESULT:      -6.0      2.162      7.376
REMARK  11 active torsions:
REMARK  status: ('A' for Active; 'I' for Inactive)
REMARK    1  A    between atoms: C_1  and  C_13 
REMARK    2  A    between atoms: C_1  and  C_16 
REMARK    3  A    between atoms: C_1  and  N_6 
REMARK    4  A    between atoms: N_4  and  C_23 
REMARK       I    between atoms: N_4  and  C_13 
REMARK    5  A    between atoms: C_5  and  C_21 
REMARK    6  A    between atoms: C_5  and  N_14 
REMARK    7  A    between atoms: C_7  and  C_22 
REMARK    8  A    between atoms: C_7  and  C_23 
REMARK    9  A    between atoms: C_16  and  C_24 
REMARK   10  A    between atoms: C_18  and  C_23 
REMARK   11  A    between atoms: C_21  and  C_24 
ROOT
HETATM    1  C           1     -23.549  -4.392  -9.044  0.00  0.00     0.274 C 
ENDROOT
BRANCH   1   2
HETATM    2  C           1     -22.593  -4.283  -7.881  0.00  0.00     0.249 C 
HETATM    3  N           1     -22.430  -5.341  -7.027  0.00  0.00    -0.344 N 
HETATM    4  H           1     -22.952  -6.195  -7.175  0.00  0.00     0.163 HD
HETATM    5  O           1     -21.971  -3.263  -7.705  0.00  0.00    -0.271 OA
BRANCH   3   6
HETATM    6  C           1     -21.512  -5.236  -5.911  0.00  0.00     0.189 C 
BRANCH   6   7
HETATM    7  C           1     -21.877  -6.271  -4.855  0.00  0.00     0.014 C 
HETATM    8  C           1     -21.542  -7.664  -5.373  0.00  0.00     0.012 C 
BRANCH   7   9
HETATM    9  C           1     -21.087  -5.998  -3.583  0.00  0.00     0.002 C 
HETATM   10  C           1     -21.974  -6.244  -2.370  0.00  0.00     0.005 C 
ENDBRANCH   7   9
ENDBRANCH   6   7
BRANCH   6  11
HETATM   11  C           1     -20.104  -5.485  -6.393  0.00  0.00     0.197 C 
HETATM   12  O           1     -19.865  -6.447  -7.155  0.00  0.00    -0.646 OA
HETATM   13  O           1     -19.176  -4.729  -6.032  0.00  0.00    -0.646 OA
ENDBRANCH   6  11
ENDBRANCH   3   6
ENDBRANCH   1   2
BRANCH   1  14
HETATM   14  C           1     -22.772  -4.318 -10.351  0.00  0.00     0.042 C 
BRANCH  14  15
HETATM   15  C           1     -23.281  -3.144 -11.179  0.00  0.00     0.004 C 
BRANCH  15  16
HETATM   16  C           1     -22.419  -2.989 -12.424  0.00  0.00     0.027 C 
BRANCH  16  17
HETATM   17  C           1     -23.313  -2.877 -13.652  0.00  0.00     0.229 C 
BRANCH  17  18
HETATM   18  N           1     -22.469  -2.921 -14.891  0.00  0.00    -0.079 N 
HETATM   19  H           1     -22.651  -3.814 -15.403  0.00  0.00     0.274 HD
HETATM   20  H           1     -22.709  -2.111 -15.505  0.00  0.00     0.274 HD
HETATM   21  H           1     -21.459  -2.870 -14.626  0.00  0.00     0.274 HD
ENDBRANCH  17  18
ENDBRANCH  16  17
ENDBRANCH  15  16
ENDBRANCH  14  15
ENDBRANCH   1  14
BRANCH   1  22
HETATM   22  N           1     -24.537  -3.265  -8.984  0.00  0.00    -0.067 N 
HETATM   23  H           1     -24.137  -2.481  -8.420  0.00  0.00     0.275 HD
HETATM   24  H           1     -24.740  -2.929  -9.953  0.00  0.00     0.275 HD
HETATM   25  H           1     -25.421  -3.600  -8.538  0.00  0.00     0.275 HD
ENDBRANCH   1  22
TORSDOF 11
ENDMDL
MODEL 8
REMARK VINA RESULT:      -5.8      3.759      7.955
REMARK  11 active torsions:
REMARK  status: ('A' for Active; 'I' for Inactive)
REMARK    1  A    between atoms: C_1  and  C_13 
REMARK    2  A    between atoms: C_1  and  C_16 
REMARK    3  A    between atoms: C_1  and  N_6 
REMARK    4  A    between atoms: N_4  and  C_23 
REMARK       I    between atoms: N_4  and  C_13 
REMARK    5  A    between atoms: C_5  and  C_21 
REMARK    6  A    between atoms: C_5  and  N_14 
REMARK    7  A    between atoms: C_7  and  C_22 
REMARK    8  A    between atoms: C_7  and  C_23 
REMARK    9  A    between atoms: C_16  and  C_24 
REMARK   10  A    between atoms: C_18  and  C_23 
REMARK   11  A    between atoms: C_21  and  C_24 
ROOT
HETATM    1  C           1     -21.470  -6.466  -5.757  0.00  0.00     0.274 C 
ENDROOT
BRANCH   1   2
HETATM    2  C           1     -20.937  -7.695  -5.064  0.00  0.00     0.249 C 
HETATM    3  N           1     -21.588  -8.203  -3.972  0.00  0.00    -0.344 N 
HETATM    4  H           1     -22.427  -7.753  -3.629  0.00  0.00     0.163 HD
HETATM    5  O           1     -19.936  -8.233  -5.474  0.00  0.00    -0.271 OA
BRANCH   3   6
HETATM    6  C           1     -21.076  -9.384  -3.306  0.00  0.00     0.189 C 
BRANCH   6   7
HETATM    7  C           1     -21.333  -9.274  -1.809  0.00  0.00     0.014 C 
HETATM    8  C           1     -20.360 -10.176  -1.060  0.00  0.00     0.012 C 
BRANCH   7   9
HETATM    9  C           1     -21.132  -7.832  -1.365  0.00  0.00     0.002 C 
HETATM   10  C           1     -22.339  -7.377  -0.555  0.00  0.00     0.005 C 
ENDBRANCH   7   9
ENDBRANCH   6   7
BRANCH   6  11
HETATM   11  C           1     -21.773 -10.608  -3.848  0.00  0.00     0.197 C 
HETATM   12  O           1     -21.205 -11.327  -4.697  0.00  0.00    -0.646 OA
HETATM   13  O           1     -22.920 -10.903  -3.446  0.00  0.00    -0.646 OA
ENDBRANCH   6  11
ENDBRANCH   3   6
ENDBRANCH   1   2
BRANCH   1  14
HETATM   14  C           1     -20.474  -5.324  -5.607  0.00  0.00     0.042 C 
BRANCH  14  15
HETATM   15  C           1     -20.276  -4.642  -6.955  0.00  0.00     0.004 C 
BRANCH  15  16
HETATM   16  C           1     -21.374  -3.608  -7.167  0.00  0.00     0.027 C 
BRANCH  16  17
HETATM   17  C           1     -22.217  -4.002  -8.372  0.00  0.00     0.229 C 
BRANCH  17  18
HETATM   18  N           1     -23.663  -4.049  -7.977  0.00  0.00    -0.079 N 
HETATM   19  H           1     -24.217  -3.426  -8.607  0.00  0.00     0.274 HD
HETATM   20  H           1     -24.015  -5.029  -8.060  0.00  0.00     0.274 HD
HETATM   21  H           1     -23.765  -3.725  -6.988  0.00  0.00     0.274 HD
ENDBRANCH  17  18
ENDBRANCH  16  17
ENDBRANCH  15  16
ENDBRANCH  14  15
ENDBRANCH   1  14
BRANCH   1  22
HETATM   22  N           1     -22.779  -6.072  -5.138  0.00  0.00    -0.067 N 
HETATM   23  H           1     -23.160  -6.875  -4.589  0.00  0.00     0.275 HD
HETATM   24  H           1     -22.633  -5.255  -4.505  0.00  0.00     0.275 HD
HETATM   25  H           1     -23.456  -5.813  -5.892  0.00  0.00     0.275 HD
ENDBRANCH   1  22
TORSDOF 11
ENDMDL
MODEL 9
REMARK VINA RESULT:      -5.7      3.815      8.433
REMARK  11 active torsions:
REMARK  status: ('A' for Active; 'I' for Inactive)
REMARK    1  A    between atoms: C_1  and  C_13 
REMARK    2  A    between atoms: C_1  and  C_16 
REMARK    3  A    between atoms: C_1  and  N_6 
REMARK    4  A    between atoms: N_4  and  C_23 
REMARK       I    between atoms: N_4  and  C_13 
REMARK    5  A    between atoms: C_5  and  C_21 
REMARK    6  A    between atoms: C_5  and  N_14 
REMARK    7  A    between atoms: C_7  and  C_22 
REMARK    8  A    between atoms: C_7  and  C_23 
REMARK    9  A    between atoms: C_16  and  C_24 
REMARK   10  A    between atoms: C_18  and  C_23 
REMARK   11  A    between atoms: C_21  and  C_24 
ROOT
HETATM    1  C           1     -21.561  -7.041  -5.575  0.00  0.00     0.274 C 
ENDROOT
BRANCH   1   2
HETATM    2  C           1     -20.864  -7.693  -4.406  0.00  0.00     0.249 C 
HETATM    3  N           1     -21.534  -7.882  -3.227  0.00  0.00    -0.344 N 
HETATM    4  H           1     -22.497  -7.584  -3.140  0.00  0.00     0.163 HD
HETATM    5  O           1     -19.715  -8.050  -4.511  0.00  0.00    -0.271 OA
BRANCH   3   6
HETATM    6  C           1     -20.865  -8.509  -2.105  0.00  0.00     0.189 C 
BRANCH   6   7
HETATM    7  C           1     -21.272  -7.808  -0.816  0.00  0.00     0.014 C 
HETATM    8  C           1     -22.255  -6.689  -1.136  0.00  0.00     0.012 C 
BRANCH   7   9
HETATM    9  C           1     -21.930  -8.811   0.121  0.00  0.00     0.002 C 
HETATM   10  C           1     -23.260  -8.252   0.610  0.00  0.00     0.005 C 
ENDBRANCH   7   9
ENDBRANCH   6   7
BRANCH   6  11
HETATM   11  C           1     -21.261  -9.964  -2.033  0.00  0.00     0.197 C 
HETATM   12  O           1     -20.458 -10.809  -1.582  0.00  0.00    -0.646 OA
HETATM   13  O           1     -22.392 -10.324  -2.423  0.00  0.00    -0.646 OA
ENDBRANCH   6  11
ENDBRANCH   3   6
ENDBRANCH   1   2
BRANCH   1  14
HETATM   14  C           1     -20.577  -6.148  -6.320  0.00  0.00     0.042 C 
BRANCH  14  15
HETATM   15  C           1     -21.263  -4.840  -6.694  0.00  0.00     0.004 C 
BRANCH  15  16
HETATM   16  C           1     -21.240  -4.670  -8.207  0.00  0.00     0.027 C 
BRANCH  16  17
HETATM   17  C           1     -22.467  -3.883  -8.649  0.00  0.00     0.229 C 
BRANCH  17  18
HETATM   18  N           1     -23.601  -4.151  -7.705  0.00  0.00    -0.079 N 
HETATM   19  H           1     -23.223  -4.306  -6.743  0.00  0.00     0.274 HD
HETATM   20  H           1     -24.249  -3.332  -7.696  0.00  0.00     0.274 HD
HETATM   21  H           1     -24.120  -5.003  -8.017  0.00  0.00     0.274 HD
ENDBRANCH  17  18
ENDBRANCH  16  17
ENDBRANCH  15  16
ENDBRANCH  14  15
ENDBRANCH   1  14
BRANCH   1  22
HETATM   22  N           1     -22.707  -6.213  -5.073  0.00  0.00    -0.067 N 
HETATM   23  H           1     -23.602  -6.582  -5.467  0.00  0.00     0.275 HD
HETATM   24  H           1     -22.740  -6.259  -4.030  0.00  0.00     0.275 HD
HETATM   25  H           1     -22.576  -5.220  -5.375  0.00  0.00     0.275 HD
ENDBRANCH   1  22
TORSDOF 11
ENDMDL
