MODEL 1
REMARK VINA RESULT:      -5.7      0.000      0.000
REMARK  9 active torsions:
REMARK  status: ('A' for Active; 'I' for Inactive)
REMARK    1  A    between atoms: N_5  and  C_11 
REMARK    2  A    between atoms: C_8  and  C_21 
REMARK    3  A    between atoms: C_8  and  C_19 
REMARK    4  A    between atoms: C_10  and  C_19 
REMARK    5  A    between atoms: C_11  and  C_12 
REMARK    6  A    between atoms: C_11  and  C_16 
REMARK       I    between atoms: C_12  and  N_13 
REMARK    7  A    between atoms: N_13  and  C_19 
REMARK    8  A    between atoms: C_15  and  C_16 
REMARK    9  A    between atoms: Se_17  and  C_21 
ROOT
HETATM    1  O           1     -33.669  -1.273 -10.971  0.00  0.00    -0.271 OA
HETATM    2  H           1     -36.593  -2.383 -11.229  0.00  0.00     0.163 HD
HETATM    3  C           1     -34.556  -2.093 -10.994  0.00  0.00     0.249 C 
HETATM    4  N           1     -35.849  -1.697 -11.208  0.00  0.00    -0.345 N 
ENDROOT
BRANCH   3   5
HETATM    5  C           1     -34.239  -3.554 -10.787  0.00  0.00     0.284 C 
BRANCH   5   6
HETATM    6  N           1     -35.518  -4.334 -10.696  0.00  0.00    -0.066 N 
HETATM    7  H           1     -35.845  -4.351  -9.703  0.00  0.00     0.275 HD
HETATM    8  H           1     -36.245  -3.881 -11.293  0.00  0.00     0.275 HD
HETATM    9  H           1     -35.353  -5.311 -11.026  0.00  0.00     0.275 HD
ENDBRANCH   5   6
BRANCH   5  10
HETATM   10  C           1     -33.415  -4.066 -11.960  0.00  0.00     0.155 C 
BRANCH  10  11
HETATM   11  C           1     -34.305  -4.232 -13.167  0.00  0.00     0.175 C 
HETATM   12  O           1     -35.006  -5.261 -13.290  0.00  0.00    -0.648 OA
HETATM   13  O           1     -34.343  -3.342 -14.044  0.00  0.00    -0.648 OA
ENDBRANCH  10  11
ENDBRANCH   5  10
ENDBRANCH   3   5
BRANCH   4  14
HETATM   14  C           1     -36.154  -0.293 -11.407  0.00  0.00     0.185 C 
BRANCH  14  15
HETATM   15  C           1     -37.036  -0.135 -12.640  0.00  0.00     0.036 C 
BRANCH  15  16
HETATM   16  C           1     -36.159   0.002 -13.877  0.00  0.00     0.003 C 
BRANCH  16  17
HETATM   17 Se           1     -37.282   0.050 -15.469  0.00  0.00     0.000 Se
HETATM   18  C           1     -36.028  -0.943 -16.583  0.00  0.00     0.000 C 
ENDBRANCH  16  17
ENDBRANCH  15  16
ENDBRANCH  14  15
BRANCH  14  19
HETATM   19  C           1     -36.881   0.239 -10.197  0.00  0.00     0.196 C 
HETATM   20  O           1     -37.988   0.804 -10.331  0.00  0.00    -0.646 OA
HETATM   21  O           1     -36.376   0.116  -9.061  0.00  0.00    -0.646 OA
ENDBRANCH  14  19
ENDBRANCH   4  14
TORSDOF 9
ENDMDL
MODEL 2
REMARK VINA RESULT:      -5.6     10.558     12.613
REMARK  9 active torsions:
REMARK  status: ('A' for Active; 'I' for Inactive)
REMARK    1  A    between atoms: N_5  and  C_11 
REMARK    2  A    between atoms: C_8  and  C_21 
REMARK    3  A    between atoms: C_8  and  C_19 
REMARK    4  A    between atoms: C_10  and  C_19 
REMARK    5  A    between atoms: C_11  and  C_12 
REMARK    6  A    between atoms: C_11  and  C_16 
REMARK       I    between atoms: C_12  and  N_13 
REMARK    7  A    between atoms: N_13  and  C_19 
REMARK    8  A    between atoms: C_15  and  C_16 
REMARK    9  A    between atoms: Se_17  and  C_21 
ROOT
HETATM    1  O           1     -27.996  -5.348 -19.164  0.00  0.00    -0.271 OA
HETATM    2  H           1     -25.644  -7.265 -18.365  0.00  0.00     0.163 HD
HETATM    3  C           1     -27.067  -6.105 -19.321  0.00  0.00     0.249 C 
HETATM    4  N           1     -26.422  -6.631 -18.234  0.00  0.00    -0.345 N 
ENDROOT
BRANCH   3   5
HETATM    5  C           1     -26.617  -6.468 -20.715  0.00  0.00     0.284 C 
BRANCH   5   6
HETATM    6  N           1     -25.434  -5.624 -21.092  0.00  0.00    -0.066 N 
HETATM    7  H           1     -24.935  -6.064 -21.898  0.00  0.00     0.275 HD
HETATM    8  H           1     -25.760  -4.670 -21.365  0.00  0.00     0.275 HD
HETATM    9  H           1     -24.784  -5.552 -20.278  0.00  0.00     0.275 HD
ENDBRANCH   5   6
BRANCH   5  10
HETATM   10  C           1     -26.225  -7.938 -20.756  0.00  0.00     0.155 C 
BRANCH  10  11
HETATM   11  C           1     -24.815  -8.070 -21.276  0.00  0.00     0.175 C 
HETATM   12  O           1     -24.608  -8.155 -22.506  0.00  0.00    -0.648 OA
HETATM   13  O           1     -23.853  -8.093 -20.477  0.00  0.00    -0.648 OA
ENDBRANCH  10  11
ENDBRANCH   5  10
ENDBRANCH   3   5
BRANCH   4  14
HETATM   14  C           1     -26.855  -6.282 -16.894  0.00  0.00     0.185 C 
BRANCH  14  15
HETATM   15  C           1     -28.015  -7.181 -16.487  0.00  0.00     0.036 C 
BRANCH  15  16
HETATM   16  C           1     -29.089  -6.344 -15.803  0.00  0.00     0.003 C 
BRANCH  16  17
HETATM   17 Se           1     -30.606  -6.122 -17.006  0.00  0.00     0.000 Se
HETATM   18  C           1     -30.177  -7.678 -18.098  0.00  0.00     0.000 C 
ENDBRANCH  16  17
ENDBRANCH  15  16
ENDBRANCH  14  15
BRANCH  14  19
HETATM   19  C           1     -25.709  -6.473 -15.931  0.00  0.00     0.196 C 
HETATM   20  O           1     -25.054  -5.484 -15.535  0.00  0.00    -0.646 OA
HETATM   21  O           1     -25.413  -7.619 -15.532  0.00  0.00    -0.646 OA
ENDBRANCH  14  19
ENDBRANCH   4  14
TORSDOF 9
ENDMDL
MODEL 3
REMARK VINA RESULT:      -5.5      1.966      2.354
REMARK  9 active torsions:
REMARK  status: ('A' for Active; 'I' for Inactive)
REMARK    1  A    between atoms: N_5  and  C_11 
REMARK    2  A    between atoms: C_8  and  C_21 
REMARK    3  A    between atoms: C_8  and  C_19 
REMARK    4  A    between atoms: C_10  and  C_19 
REMARK    5  A    between atoms: C_11  and  C_12 
REMARK    6  A    between atoms: C_11  and  C_16 
REMARK       I    between atoms: C_12  and  N_13 
REMARK    7  A    between atoms: N_13  and  C_19 
REMARK    8  A    between atoms: C_15  and  C_16 
REMARK    9  A    between atoms: Se_17  and  C_21 
ROOT
HETATM    1  O           1     -33.296  -2.294 -11.003  0.00  0.00    -0.271 OA
HETATM    2  H           1     -36.027  -3.021 -12.367  0.00  0.00     0.163 HD
HETATM    3  C           1     -34.137  -2.989 -11.522  0.00  0.00     0.249 C 
HETATM    4  N           1     -35.323  -2.439 -11.931  0.00  0.00    -0.345 N 
ENDROOT
BRANCH   3   5
HETATM    5  C           1     -33.880  -4.463 -11.719  0.00  0.00     0.284 C 
BRANCH   5   6
HETATM    6  N           1     -32.492  -4.660 -12.253  0.00  0.00    -0.066 N 
HETATM    7  H           1     -32.199  -5.652 -12.104  0.00  0.00     0.275 HD
HETATM    8  H           1     -32.478  -4.444 -13.275  0.00  0.00     0.275 HD
HETATM    9  H           1     -31.833  -4.023 -11.752  0.00  0.00     0.275 HD
ENDBRANCH   5   6
BRANCH   5  10
HETATM   10  C           1     -34.018  -5.185 -10.386  0.00  0.00     0.155 C 
BRANCH  10  11
HETATM   11  C           1     -34.657  -6.534 -10.607  0.00  0.00     0.175 C 
HETATM   12  O           1     -34.885  -7.285  -9.634  0.00  0.00    -0.648 OA
HETATM   13  O           1     -34.959  -6.901 -11.764  0.00  0.00    -0.648 OA
ENDBRANCH  10  11
ENDBRANCH   5  10
ENDBRANCH   3   5
BRANCH   4  14
HETATM   14  C           1     -35.569  -1.023 -11.742  0.00  0.00     0.185 C 
BRANCH  14  15
HETATM   15  C           1     -36.138  -0.432 -13.026  0.00  0.00     0.036 C 
BRANCH  15  16
HETATM   16  C           1     -35.116   0.512 -13.646  0.00  0.00     0.003 C 
BRANCH  16  17
HETATM   17 Se           1     -35.693   1.008 -15.440  0.00  0.00     0.000 Se
HETATM   18  C           1     -37.429   0.131 -15.301  0.00  0.00     0.000 C 
ENDBRANCH  16  17
ENDBRANCH  15  16
ENDBRANCH  14  15
BRANCH  14  19
HETATM   19  C           1     -36.558  -0.831 -10.618  0.00  0.00     0.196 C 
HETATM   20  O           1     -36.159  -0.474  -9.489  0.00  0.00    -0.646 OA
HETATM   21  O           1     -37.776  -1.032 -10.817  0.00  0.00    -0.646 OA
ENDBRANCH  14  19
ENDBRANCH   4  14
TORSDOF 9
ENDMDL
MODEL 4
REMARK VINA RESULT:      -5.4      2.565      3.724
REMARK  9 active torsions:
REMARK  status: ('A' for Active; 'I' for Inactive)
REMARK    1  A    between atoms: N_5  and  C_11 
REMARK    2  A    between atoms: C_8  and  C_21 
REMARK    3  A    between atoms: C_8  and  C_19 
REMARK    4  A    between atoms: C_10  and  C_19 
REMARK    5  A    between atoms: C_11  and  C_12 
REMARK    6  A    between atoms: C_11  and  C_16 
REMARK       I    between atoms: C_12  and  N_13 
REMARK    7  A    between atoms: N_13  and  C_19 
REMARK    8  A    between atoms: C_15  and  C_16 
REMARK    9  A    between atoms: Se_17  and  C_21 
ROOT
HETATM    1  O           1     -36.439  -3.295 -10.764  0.00  0.00    -0.271 OA
HETATM    2  H           1     -34.203  -1.374 -11.838  0.00  0.00     0.163 HD
HETATM    3  C           1     -35.323  -2.874 -10.955  0.00  0.00     0.249 C 
HETATM    4  N           1     -35.138  -1.726 -11.678  0.00  0.00    -0.345 N 
ENDROOT
BRANCH   3   5
HETATM    5  C           1     -34.133  -3.615 -10.396  0.00  0.00     0.284 C 
BRANCH   5   6
HETATM    6  N           1     -34.342  -5.092 -10.560  0.00  0.00    -0.066 N 
HETATM    7  H           1     -34.072  -5.376 -11.529  0.00  0.00     0.275 HD
HETATM    8  H           1     -33.752  -5.606  -9.869  0.00  0.00     0.275 HD
HETATM    9  H           1     -35.349  -5.320 -10.398  0.00  0.00     0.275 HD
ENDBRANCH   5   6
BRANCH   5  10
HETATM   10  C           1     -32.876  -3.195 -11.145  0.00  0.00     0.155 C 
BRANCH  10  11
HETATM   11  C           1     -32.670  -4.101 -12.333  0.00  0.00     0.175 C 
HETATM   12  O           1     -31.781  -4.979 -12.303  0.00  0.00    -0.648 OA
HETATM   13  O           1     -33.389  -3.974 -13.348  0.00  0.00    -0.648 OA
ENDBRANCH  10  11
ENDBRANCH   5  10
ENDBRANCH   3   5
BRANCH   4  14
HETATM   14  C           1     -36.282  -1.015 -12.215  0.00  0.00     0.185 C 
BRANCH  14  15
HETATM   15  C           1     -36.549   0.225 -11.372  0.00  0.00     0.036 C 
BRANCH  15  16
HETATM   16  C           1     -37.821   0.022 -10.559  0.00  0.00     0.003 C 
BRANCH  16  17
HETATM   17 Se           1     -37.876   1.315  -9.102  0.00  0.00     0.000 Se
HETATM   18  C           1     -36.531   0.404  -8.025  0.00  0.00     0.000 C 
ENDBRANCH  16  17
ENDBRANCH  15  16
ENDBRANCH  14  15
BRANCH  14  19
HETATM   19  C           1     -35.995  -0.604 -13.638  0.00  0.00     0.196 C 
HETATM   20  O           1     -35.319  -1.349 -14.380  0.00  0.00    -0.646 OA
HETATM   21  O           1     -36.432   0.483 -14.074  0.00  0.00    -0.646 OA
ENDBRANCH  14  19
ENDBRANCH   4  14
TORSDOF 9
ENDMDL
MODEL 5
REMARK VINA RESULT:      -5.4      3.200      5.082
REMARK  9 active torsions:
REMARK  status: ('A' for Active; 'I' for Inactive)
REMARK    1  A    between atoms: N_5  and  C_11 
REMARK    2  A    between atoms: C_8  and  C_21 
REMARK    3  A    between atoms: C_8  and  C_19 
REMARK    4  A    between atoms: C_10  and  C_19 
REMARK    5  A    between atoms: C_11  and  C_12 
REMARK    6  A    between atoms: C_11  and  C_16 
REMARK       I    between atoms: C_12  and  N_13 
REMARK    7  A    between atoms: N_13  and  C_19 
REMARK    8  A    between atoms: C_15  and  C_16 
REMARK    9  A    between atoms: Se_17  and  C_21 
ROOT
HETATM    1  O           1     -34.948  -2.471 -14.339  0.00  0.00    -0.271 OA
HETATM    2  H           1     -35.314   0.047 -12.504  0.00  0.00     0.163 HD
HETATM    3  C           1     -35.062  -1.303 -14.053  0.00  0.00     0.249 C 
HETATM    4  N           1     -35.218  -0.931 -12.745  0.00  0.00    -0.345 N 
ENDROOT
BRANCH   3   5
HETATM    5  C           1     -35.034  -0.254 -15.138  0.00  0.00     0.284 C 
BRANCH   5   6
HETATM    6  N           1     -35.275  -0.906 -16.468  0.00  0.00    -0.066 N 
HETATM    7  H           1     -36.090  -1.555 -16.395  0.00  0.00     0.275 HD
HETATM    8  H           1     -35.478  -0.172 -17.183  0.00  0.00     0.275 HD
HETATM    9  H           1     -34.425  -1.444 -16.750  0.00  0.00     0.275 HD
ENDBRANCH   5   6
BRANCH   5  10
HETATM   10  C           1     -36.120   0.779 -14.874  0.00  0.00     0.155 C 
BRANCH  10  11
HETATM   11  C           1     -37.466   0.198 -15.229  0.00  0.00     0.175 C 
HETATM   12  O           1     -38.074   0.604 -16.243  0.00  0.00    -0.648 OA
HETATM   13  O           1     -37.973  -0.691 -14.511  0.00  0.00    -0.648 OA
ENDBRANCH  10  11
ENDBRANCH   5  10
ENDBRANCH   3   5
BRANCH   4  14
HETATM   14  C           1     -35.246  -1.939 -11.702  0.00  0.00     0.185 C 
BRANCH  14  15
HETATM   15  C           1     -33.848  -2.105 -11.121  0.00  0.00     0.036 C 
BRANCH  15  16
HETATM   16  C           1     -33.756  -3.438 -10.391  0.00  0.00     0.003 C 
BRANCH  16  17
HETATM   17 Se           1     -33.079  -4.801 -11.607  0.00  0.00     0.000 Se
HETATM   18  C           1     -34.090  -6.258 -10.799  0.00  0.00     0.000 C 
ENDBRANCH  16  17
ENDBRANCH  15  16
ENDBRANCH  14  15
BRANCH  14  19
HETATM   19  C           1     -36.197  -1.508 -10.613  0.00  0.00     0.196 C 
HETATM   20  O           1     -35.880  -0.580  -9.838  0.00  0.00    -0.646 OA
HETATM   21  O           1     -37.300  -2.081 -10.485  0.00  0.00    -0.646 OA
ENDBRANCH  14  19
ENDBRANCH   4  14
TORSDOF 9
ENDMDL
MODEL 6
REMARK VINA RESULT:      -5.3     14.121     16.270
REMARK  9 active torsions:
REMARK  status: ('A' for Active; 'I' for Inactive)
REMARK    1  A    between atoms: N_5  and  C_11 
REMARK    2  A    between atoms: C_8  and  C_21 
REMARK    3  A    between atoms: C_8  and  C_19 
REMARK    4  A    between atoms: C_10  and  C_19 
REMARK    5  A    between atoms: C_11  and  C_12 
REMARK    6  A    between atoms: C_11  and  C_16 
REMARK       I    between atoms: C_12  and  N_13 
REMARK    7  A    between atoms: N_13  and  C_19 
REMARK    8  A    between atoms: C_15  and  C_16 
REMARK    9  A    between atoms: Se_17  and  C_21 
ROOT
HETATM    1  O           1     -20.216  -4.054  -6.944  0.00  0.00    -0.271 OA
HETATM    2  H           1     -22.901  -5.653  -6.666  0.00  0.00     0.163 HD
HETATM    3  C           1     -21.353  -4.381  -7.187  0.00  0.00     0.249 C 
HETATM    4  N           1     -21.948  -5.379  -6.463  0.00  0.00    -0.345 N 
ENDROOT
BRANCH   3   5
HETATM    5  C           1     -22.117  -3.690  -8.290  0.00  0.00     0.284 C 
BRANCH   5   6
HETATM    6  N           1     -21.466  -3.985  -9.609  0.00  0.00    -0.066 N 
HETATM    7  H           1     -20.528  -3.525  -9.645  0.00  0.00     0.275 HD
HETATM    8  H           1     -21.351  -5.017  -9.717  0.00  0.00     0.275 HD
HETATM    9  H           1     -22.065  -3.617 -10.382  0.00  0.00     0.275 HD
ENDBRANCH   5   6
BRANCH   5  10
HETATM   10  C           1     -23.553  -4.196  -8.308  0.00  0.00     0.155 C 
BRANCH  10  11
HETATM   11  C           1     -24.096  -4.121  -9.713  0.00  0.00     0.175 C 
HETATM   12  O           1     -24.057  -5.128 -10.453  0.00  0.00    -0.648 OA
HETATM   13  O           1     -24.585  -3.052 -10.138  0.00  0.00    -0.648 OA
ENDBRANCH  10  11
ENDBRANCH   5  10
ENDBRANCH   3   5
BRANCH   4  14
HETATM   14  C           1     -21.214  -6.043  -5.403  0.00  0.00     0.185 C 
BRANCH  14  15
HETATM   15  C           1     -22.164  -6.377  -4.261  0.00  0.00     0.036 C 
BRANCH  15  16
HETATM   16  C           1     -21.460  -6.141  -2.930  0.00  0.00     0.003 C 
BRANCH  16  17
HETATM   17 Se           1     -21.258  -7.837  -1.991  0.00  0.00     0.000 Se
HETATM   18  C           1     -22.424  -7.343  -0.510  0.00  0.00     0.000 C 
ENDBRANCH  16  17
ENDBRANCH  15  16
ENDBRANCH  14  15
BRANCH  14  19
HETATM   19  C           1     -20.602  -7.315  -5.938  0.00  0.00     0.196 C 
HETATM   20  O           1     -21.225  -8.395  -5.844  0.00  0.00    -0.646 OA
HETATM   21  O           1     -19.473  -7.288  -6.473  0.00  0.00    -0.646 OA
ENDBRANCH  14  19
ENDBRANCH   4  14
TORSDOF 9
ENDMDL
MODEL 7
REMARK VINA RESULT:      -5.0      9.986     11.913
REMARK  9 active torsions:
REMARK  status: ('A' for Active; 'I' for Inactive)
REMARK    1  A    between atoms: N_5  and  C_11 
REMARK    2  A    between atoms: C_8  and  C_21 
REMARK    3  A    between atoms: C_8  and  C_19 
REMARK    4  A    between atoms: C_10  and  C_19 
REMARK    5  A    between atoms: C_11  and  C_12 
REMARK    6  A    between atoms: C_11  and  C_16 
REMARK       I    between atoms: C_12  and  N_13 
REMARK    7  A    between atoms: N_13  and  C_19 
REMARK    8  A    between atoms: C_15  and  C_16 
REMARK    9  A    between atoms: Se_17  and  C_21 
ROOT
HETATM    1  O           1     -27.747  -5.794 -19.635  0.00  0.00    -0.271 OA
HETATM    2  H           1     -26.465  -7.293 -17.195  0.00  0.00     0.163 HD
HETATM    3  C           1     -26.909  -6.396 -19.007  0.00  0.00     0.249 C 
HETATM    4  N           1     -27.167  -6.789 -17.721  0.00  0.00    -0.345 N 
ENDROOT
BRANCH   3   5
HETATM    5  C           1     -25.576  -6.714 -19.641  0.00  0.00     0.284 C 
BRANCH   5   6
HETATM    6  N           1     -24.647  -7.263 -18.598  0.00  0.00    -0.066 N 
HETATM    7  H           1     -24.949  -6.933 -17.654  0.00  0.00     0.275 HD
HETATM    8  H           1     -24.671  -8.307 -18.626  0.00  0.00     0.275 HD
HETATM    9  H           1     -23.675  -6.931 -18.789  0.00  0.00     0.275 HD
ENDBRANCH   5   6
BRANCH   5  10
HETATM   10  C           1     -25.771  -7.747 -20.742  0.00  0.00     0.155 C 
BRANCH  10  11
HETATM   11  C           1     -24.473  -7.942 -21.486  0.00  0.00     0.175 C 
HETATM   12  O           1     -23.462  -8.359 -20.880  0.00  0.00    -0.648 OA
HETATM   13  O           1     -24.407  -7.686 -22.708  0.00  0.00    -0.648 OA
ENDBRANCH  10  11
ENDBRANCH   5  10
ENDBRANCH   3   5
BRANCH   4  14
HETATM   14  C           1     -28.447  -6.483 -17.113  0.00  0.00     0.185 C 
BRANCH  14  15
HETATM   15  C           1     -29.474  -7.521 -17.545  0.00  0.00     0.036 C 
BRANCH  15  16
HETATM   16  C           1     -30.873  -6.928 -17.434  0.00  0.00     0.003 C 
BRANCH  16  17
HETATM   17 Se           1     -30.785  -5.000 -17.700  0.00  0.00     0.000 Se
HETATM   18  C           1     -32.423  -4.624 -16.713  0.00  0.00     0.000 C 
ENDBRANCH  16  17
ENDBRANCH  15  16
ENDBRANCH  14  15
BRANCH  14  19
HETATM   19  C           1     -28.307  -6.508 -15.610  0.00  0.00     0.196 C 
HETATM   20  O           1     -27.859  -7.527 -15.041  0.00  0.00    -0.646 OA
HETATM   21  O           1     -28.640  -5.510 -14.936  0.00  0.00    -0.646 OA
ENDBRANCH  14  19
ENDBRANCH   4  14
TORSDOF 9
ENDMDL
MODEL 8
REMARK VINA RESULT:      -4.9     15.444     17.391
REMARK  9 active torsions:
REMARK  status: ('A' for Active; 'I' for Inactive)
REMARK    1  A    between atoms: N_5  and  C_11 
REMARK    2  A    between atoms: C_8  and  C_21 
REMARK    3  A    between atoms: C_8  and  C_19 
REMARK    4  A    between atoms: C_10  and  C_19 
REMARK    5  A    between atoms: C_11  and  C_12 
REMARK    6  A    between atoms: C_11  and  C_16 
REMARK       I    between atoms: C_12  and  N_13 
REMARK    7  A    between atoms: N_13  and  C_19 
REMARK    8  A    between atoms: C_15  and  C_16 
REMARK    9  A    between atoms: Se_17  and  C_21 
ROOT
HETATM    1  O           1     -22.630  -5.802  -5.566  0.00  0.00    -0.271 OA
HETATM    2  H           1     -19.787  -6.863  -4.768  0.00  0.00     0.163 HD
HETATM    3  C           1     -21.426  -5.902  -5.589  0.00  0.00     0.249 C 
HETATM    4  N           1     -20.795  -6.779  -4.749  0.00  0.00    -0.345 N 
ENDROOT
BRANCH   3   5
HETATM    5  C           1     -20.618  -5.058  -6.545  0.00  0.00     0.284 C 
BRANCH   5   6
HETATM    6  N           1     -19.986  -5.944  -7.579  0.00  0.00    -0.066 N 
HETATM    7  H           1     -20.729  -6.347  -8.194  0.00  0.00     0.275 HD
HETATM    8  H           1     -19.322  -5.384  -8.158  0.00  0.00     0.275 HD
HETATM    9  H           1     -19.469  -6.717  -7.104  0.00  0.00     0.275 HD
ENDBRANCH   5   6
BRANCH   5  10
HETATM   10  C           1     -21.531  -4.050  -7.230  0.00  0.00     0.155 C 
BRANCH  10  11
HETATM   11  C           1     -21.537  -4.305  -8.717  0.00  0.00     0.175 C 
HETATM   12  O           1     -20.596  -3.889  -9.426  0.00  0.00    -0.648 OA
HETATM   13  O           1     -22.484  -4.932  -9.240  0.00  0.00    -0.648 OA
ENDBRANCH  10  11
ENDBRANCH   5  10
ENDBRANCH   3   5
BRANCH   4  14
HETATM   14  C           1     -21.572  -7.589  -3.830  0.00  0.00     0.185 C 
BRANCH  14  15
HETATM   15  C           1     -20.948  -8.975  -3.724  0.00  0.00     0.036 C 
BRANCH  15  16
HETATM   16  C           1     -22.038 -10.004  -3.454  0.00  0.00     0.003 C 
BRANCH  16  17
HETATM   17 Se           1     -21.608 -10.997  -1.833  0.00  0.00     0.000 Se
HETATM   18  C           1     -22.944 -10.101  -0.734  0.00  0.00     0.000 C 
ENDBRANCH  16  17
ENDBRANCH  15  16
ENDBRANCH  14  15
BRANCH  14  19
HETATM   19  C           1     -21.582  -6.936  -2.470  0.00  0.00     0.196 C 
HETATM   20  O           1     -22.361  -5.987  -2.238  0.00  0.00    -0.646 OA
HETATM   21  O           1     -20.809  -7.345  -1.576  0.00  0.00    -0.646 OA
ENDBRANCH  14  19
ENDBRANCH   4  14
TORSDOF 9
ENDMDL
MODEL 9
REMARK VINA RESULT:      -4.9     16.079     17.855
REMARK  9 active torsions:
REMARK  status: ('A' for Active; 'I' for Inactive)
REMARK    1  A    between atoms: N_5  and  C_11 
REMARK    2  A    between atoms: C_8  and  C_21 
REMARK    3  A    between atoms: C_8  and  C_19 
REMARK    4  A    between atoms: C_10  and  C_19 
REMARK    5  A    between atoms: C_11  and  C_12 
REMARK    6  A    between atoms: C_11  and  C_16 
REMARK       I    between atoms: C_12  and  N_13 
REMARK    7  A    between atoms: N_13  and  C_19 
REMARK    8  A    between atoms: C_15  and  C_16 
REMARK    9  A    between atoms: Se_17  and  C_21 
ROOT
HETATM    1  O           1     -21.514  -8.151  -5.099  0.00  0.00    -0.271 OA
HETATM    2  H           1     -20.317  -5.961  -3.198  0.00  0.00     0.163 HD
HETATM    3  C           1     -20.900  -7.161  -4.781  0.00  0.00     0.249 C 
HETATM    4  N           1     -20.832  -6.790  -3.464  0.00  0.00    -0.345 N 
ENDROOT
BRANCH   3   5
HETATM    5  C           1     -20.208  -6.332  -5.835  0.00  0.00     0.284 C 
BRANCH   5   6
HETATM    6  N           1     -20.771  -6.670  -7.184  0.00  0.00    -0.066 N 
HETATM    7  H           1     -21.345  -5.870  -7.533  0.00  0.00     0.275 HD
HETATM    8  H           1     -19.989  -6.853  -7.852  0.00  0.00     0.275 HD
HETATM    9  H           1     -21.370  -7.522  -7.107  0.00  0.00     0.275 HD
ENDBRANCH   5   6
BRANCH   5  10
HETATM   10  C           1     -20.432  -4.854  -5.548  0.00  0.00     0.155 C 
BRANCH  10  11
HETATM   11  C           1     -20.965  -4.175  -6.785  0.00  0.00     0.175 C 
HETATM   12  O           1     -20.172  -3.686  -7.620  0.00  0.00    -0.648 OA
HETATM   13  O           1     -22.198  -4.101  -6.977  0.00  0.00    -0.648 OA
ENDBRANCH  10  11
ENDBRANCH   5  10
ENDBRANCH   3   5
BRANCH   4  14
HETATM   14  C           1     -21.497  -7.587  -2.451  0.00  0.00     0.185 C 
BRANCH  14  15
HETATM   15  C           1     -20.456  -8.354  -1.646  0.00  0.00     0.036 C 
BRANCH  15  16
HETATM   16  C           1     -20.473  -9.820  -2.059  0.00  0.00     0.003 C 
BRANCH  16  17
HETATM   17 Se           1     -22.204 -10.600  -1.619  0.00  0.00     0.000 Se
HETATM   18  C           1     -22.644 -11.068  -3.459  0.00  0.00     0.000 C 
ENDBRANCH  16  17
ENDBRANCH  15  16
ENDBRANCH  14  15
BRANCH  14  19
HETATM   19  C           1     -22.277  -6.680  -1.532  0.00  0.00     0.196 C 
HETATM   20  O           1     -22.346  -5.456  -1.773  0.00  0.00    -0.646 OA
HETATM   21  O           1     -22.853  -7.154  -0.529  0.00  0.00    -0.646 OA
ENDBRANCH  14  19
ENDBRANCH   4  14
TORSDOF 9
ENDMDL
