MODEL 1
REMARK VINA RESULT:      -6.4      0.000      0.000
REMARK  10 active torsions:
REMARK  status: ('A' for Active; 'I' for Inactive)
REMARK    1  A    between atoms: C_6  and  C_25 
REMARK    2  A    between atoms: C_6  and  C_7 
REMARK    3  A    between atoms: C_7  and  C_8 
REMARK    4  A    between atoms: C_7  and  N_11 
REMARK       I    between atoms: N_11  and  C_12 
REMARK    5  A    between atoms: C_12  and  C_13 
REMARK    6  A    between atoms: C_13  and  C_14 
REMARK    7  A    between atoms: C_13  and  N_18 
REMARK    8  A    between atoms: C_14  and  C_15 
REMARK       I    between atoms: C_15  and  N_16 
REMARK    9  A    between atoms: N_23  and  C_24 
REMARK   10  A    between atoms: C_24  and  C_25 
ROOT
HETATM    1  N           1     -34.900  -1.663 -12.964  0.00  0.00    -0.345 N 
HETATM    2  C           1     -34.225  -2.565 -12.188  0.00  0.00     0.249 C 
HETATM    3  O           1     -33.710  -2.208 -11.155  0.00  0.00    -0.271 OA
HETATM    4  H           1     -35.332  -1.963 -13.829  0.00  0.00     0.163 HD
ENDROOT
BRANCH   1   5
HETATM    5  C           1     -34.998  -0.278 -12.547  0.00  0.00     0.185 C 
BRANCH   5   6
HETATM    6  C           1     -35.000   0.623 -13.774  0.00  0.00     0.038 C 
BRANCH   6   7
HETATM    7  C           1     -35.368  -0.195 -15.006  0.00  0.00     0.030 C 
BRANCH   7   8
HETATM    8  C           1     -36.664   0.338 -15.601  0.00  0.00     0.230 C 
BRANCH   8   9
HETATM    9  N           1     -36.472   1.765 -16.024  0.00  0.00    -0.079 N 
HETATM   10  H           1     -35.509   1.887 -16.410  0.00  0.00     0.274 HD
HETATM   11  H           1     -37.175   2.007 -16.758  0.00  0.00     0.274 HD
HETATM   12  H           1     -36.598   2.392 -15.198  0.00  0.00     0.274 HD
ENDBRANCH   8   9
ENDBRANCH   7   8
ENDBRANCH   6   7
ENDBRANCH   5   6
BRANCH   5  13
HETATM   13  C           1     -36.276  -0.075 -11.771  0.00  0.00     0.196 C 
HETATM   14  O           1     -36.256   0.540 -10.682  0.00  0.00    -0.646 OA
HETATM   15  O           1     -37.355  -0.522 -12.216  0.00  0.00    -0.646 OA
ENDBRANCH   5  13
ENDBRANCH   1   5
BRANCH   2  16
HETATM   16  C           1     -34.123  -4.007 -12.621  0.00  0.00     0.283 C 
BRANCH  16  17
HETATM   17  C           1     -33.161  -4.748 -11.702  0.00  0.00     0.145 C 
BRANCH  17  18
HETATM   18  C           1     -33.921  -5.776 -10.900  0.00  0.00     0.217 C 
HETATM   19  N           1     -33.449  -7.058 -10.805  0.00  0.00    -0.370 N 
HETATM   20  H           1     -32.589  -7.315 -11.273  0.00  0.00     0.159 HD
HETATM   21  H           1     -33.958  -7.746 -10.268  0.00  0.00     0.159 HD
HETATM   22  O           1     -34.948  -5.468 -10.341  0.00  0.00    -0.274 OA
ENDBRANCH  17  18
ENDBRANCH  16  17
BRANCH  16  23
HETATM   23  N           1     -33.615  -4.070 -14.031  0.00  0.00    -0.066 N 
HETATM   24  H           1     -32.994  -4.904 -14.140  0.00  0.00     0.275 HD
HETATM   25  H           1     -33.074  -3.202 -14.245  0.00  0.00     0.275 HD
HETATM   26  H           1     -34.424  -4.147 -14.689  0.00  0.00     0.275 HD
ENDBRANCH  16  23
ENDBRANCH   2  16
TORSDOF 10
ENDMDL
MODEL 2
REMARK VINA RESULT:      -6.3     12.049     13.874
REMARK  10 active torsions:
REMARK  status: ('A' for Active; 'I' for Inactive)
REMARK    1  A    between atoms: C_6  and  C_25 
REMARK    2  A    between atoms: C_6  and  C_7 
REMARK    3  A    between atoms: C_7  and  C_8 
REMARK    4  A    between atoms: C_7  and  N_11 
REMARK       I    between atoms: N_11  and  C_12 
REMARK    5  A    between atoms: C_12  and  C_13 
REMARK    6  A    between atoms: C_13  and  C_14 
REMARK    7  A    between atoms: C_13  and  N_18 
REMARK    8  A    between atoms: C_14  and  C_15 
REMARK       I    between atoms: C_15  and  N_16 
REMARK    9  A    between atoms: N_23  and  C_24 
REMARK   10  A    between atoms: C_24  and  C_25 
ROOT
HETATM    1  N           1     -22.193  -4.837  -8.800  0.00  0.00    -0.345 N 
HETATM    2  C           1     -21.590  -4.587  -7.597  0.00  0.00     0.249 C 
HETATM    3  O           1     -21.448  -3.449  -7.216  0.00  0.00    -0.271 OA
HETATM    4  H           1     -22.312  -5.790  -9.118  0.00  0.00     0.163 HD
ENDROOT
BRANCH   1   5
HETATM    5  C           1     -22.662  -3.735  -9.617  0.00  0.00     0.185 C 
BRANCH   5   6
HETATM    6  C           1     -22.027  -3.822 -10.998  0.00  0.00     0.038 C 
BRANCH   6   7
HETATM    7  C           1     -22.438  -2.609 -11.824  0.00  0.00     0.030 C 
BRANCH   7   8
HETATM    8  C           1     -22.797  -3.055 -13.236  0.00  0.00     0.230 C 
BRANCH   8   9
HETATM    9  N           1     -23.846  -4.126 -13.172  0.00  0.00    -0.079 N 
HETATM   10  H           1     -23.901  -4.614 -14.094  0.00  0.00     0.274 HD
HETATM   11  H           1     -23.594  -4.814 -12.427  0.00  0.00     0.274 HD
HETATM   12  H           1     -24.771  -3.694 -12.951  0.00  0.00     0.274 HD
ENDBRANCH   8   9
ENDBRANCH   7   8
ENDBRANCH   6   7
ENDBRANCH   5   6
BRANCH   5  13
HETATM   13  C           1     -24.164  -3.809  -9.747  0.00  0.00     0.196 C 
HETATM   14  O           1     -24.706  -4.862 -10.149  0.00  0.00    -0.646 OA
HETATM   15  O           1     -24.866  -2.817  -9.455  0.00  0.00    -0.646 OA
ENDBRANCH   5  13
ENDBRANCH   1   5
BRANCH   2  16
HETATM   16  C           1     -21.101  -5.733  -6.745  0.00  0.00     0.283 C 
BRANCH  16  17
HETATM   17  C           1     -20.867  -5.246  -5.322  0.00  0.00     0.145 C 
BRANCH  17  18
HETATM   18  C           1     -21.213  -6.346  -4.349  0.00  0.00     0.217 C 
HETATM   19  N           1     -21.896  -6.054  -3.198  0.00  0.00    -0.370 N 
HETATM   20  H           1     -22.168  -5.099  -3.001  0.00  0.00     0.159 HD
HETATM   21  H           1     -22.127  -6.791  -2.546  0.00  0.00     0.159 HD
HETATM   22  O           1     -20.888  -7.486  -4.584  0.00  0.00    -0.274 OA
ENDBRANCH  17  18
ENDBRANCH  16  17
BRANCH  16  23
HETATM   23  N           1     -19.816  -6.262  -7.310  0.00  0.00    -0.066 N 
HETATM   24  H           1     -19.519  -5.667  -8.117  0.00  0.00     0.275 HD
HETATM   25  H           1     -19.957  -7.245  -7.636  0.00  0.00     0.275 HD
HETATM   26  H           1     -19.077  -6.243  -6.571  0.00  0.00     0.275 HD
ENDBRANCH  16  23
ENDBRANCH   2  16
TORSDOF 10
ENDMDL
MODEL 3
REMARK VINA RESULT:      -5.9      1.462      2.020
REMARK  10 active torsions:
REMARK  status: ('A' for Active; 'I' for Inactive)
REMARK    1  A    between atoms: C_6  and  C_25 
REMARK    2  A    between atoms: C_6  and  C_7 
REMARK    3  A    between atoms: C_7  and  C_8 
REMARK    4  A    between atoms: C_7  and  N_11 
REMARK       I    between atoms: N_11  and  C_12 
REMARK    5  A    between atoms: C_12  and  C_13 
REMARK    6  A    between atoms: C_13  and  C_14 
REMARK    7  A    between atoms: C_13  and  N_18 
REMARK    8  A    between atoms: C_14  and  C_15 
REMARK       I    between atoms: C_15  and  N_16 
REMARK    9  A    between atoms: N_23  and  C_24 
REMARK   10  A    between atoms: C_24  and  C_25 
ROOT
HETATM    1  N           1     -35.658  -1.754 -11.568  0.00  0.00    -0.345 N 
HETATM    2  C           1     -34.475  -2.193 -11.037  0.00  0.00     0.249 C 
HETATM    3  O           1     -33.576  -1.412 -10.835  0.00  0.00    -0.271 OA
HETATM    4  H           1     -36.411  -2.409 -11.737  0.00  0.00     0.163 HD
ENDROOT
BRANCH   1   5
HETATM    5  C           1     -35.833  -0.350 -11.886  0.00  0.00     0.185 C 
BRANCH   5   6
HETATM    6  C           1     -36.369  -0.214 -13.304  0.00  0.00     0.038 C 
BRANCH   6   7
HETATM    7  C           1     -35.462   0.712 -14.105  0.00  0.00     0.030 C 
BRANCH   7   8
HETATM    8  C           1     -35.906   0.724 -15.561  0.00  0.00     0.230 C 
BRANCH   8   9
HETATM    9  N           1     -36.169   2.136 -15.994  0.00  0.00    -0.079 N 
HETATM   10  H           1     -36.799   2.600 -15.302  0.00  0.00     0.274 HD
HETATM   11  H           1     -35.265   2.657 -16.045  0.00  0.00     0.274 HD
HETATM   12  H           1     -36.625   2.132 -16.933  0.00  0.00     0.274 HD
ENDBRANCH   8   9
ENDBRANCH   7   8
ENDBRANCH   6   7
ENDBRANCH   5   6
BRANCH   5  13
HETATM   13  C           1     -36.810   0.268 -10.916  0.00  0.00     0.196 C 
HETATM   14  O           1     -36.399   0.758  -9.841  0.00  0.00    -0.646 OA
HETATM   15  O           1     -38.030   0.289 -11.186  0.00  0.00    -0.646 OA
ENDBRANCH   5  13
ENDBRANCH   1   5
BRANCH   2  16
HETATM   16  C           1     -34.293  -3.654 -10.706  0.00  0.00     0.283 C 
BRANCH  16  17
HETATM   17  C           1     -33.404  -4.308 -11.755  0.00  0.00     0.145 C 
BRANCH  17  18
HETATM   18  C           1     -34.207  -4.561 -13.008  0.00  0.00     0.217 C 
HETATM   19  N           1     -33.908  -3.886 -14.162  0.00  0.00    -0.370 N 
HETATM   20  H           1     -33.148  -3.218 -14.173  0.00  0.00     0.159 HD
HETATM   21  H           1     -34.446  -4.056 -15.000  0.00  0.00     0.159 HD
HETATM   22  O           1     -35.114  -5.359 -12.994  0.00  0.00    -0.274 OA
ENDBRANCH  17  18
ENDBRANCH  16  17
BRANCH  16  23
HETATM   23  N           1     -35.631  -4.333 -10.691  0.00  0.00    -0.066 N 
HETATM   24  H           1     -35.495  -5.369 -10.637  0.00  0.00     0.275 HD
HETATM   25  H           1     -36.151  -4.096 -11.566  0.00  0.00     0.275 HD
HETATM   26  H           1     -36.177  -4.008  -9.862  0.00  0.00     0.275 HD
ENDBRANCH  16  23
ENDBRANCH   2  16
TORSDOF 10
ENDMDL
MODEL 4
REMARK VINA RESULT:      -5.9     12.280     15.238
REMARK  10 active torsions:
REMARK  status: ('A' for Active; 'I' for Inactive)
REMARK    1  A    between atoms: C_6  and  C_25 
REMARK    2  A    between atoms: C_6  and  C_7 
REMARK    3  A    between atoms: C_7  and  C_8 
REMARK    4  A    between atoms: C_7  and  N_11 
REMARK       I    between atoms: N_11  and  C_12 
REMARK    5  A    between atoms: C_12  and  C_13 
REMARK    6  A    between atoms: C_13  and  C_14 
REMARK    7  A    between atoms: C_13  and  N_18 
REMARK    8  A    between atoms: C_14  and  C_15 
REMARK       I    between atoms: C_15  and  N_16 
REMARK    9  A    between atoms: N_23  and  C_24 
REMARK   10  A    between atoms: C_24  and  C_25 
ROOT
HETATM    1  N           1     -22.127  -5.479  -7.929  0.00  0.00    -0.345 N 
HETATM    2  C           1     -22.517  -4.391  -8.662  0.00  0.00     0.249 C 
HETATM    3  O           1     -22.193  -3.280  -8.315  0.00  0.00    -0.271 OA
HETATM    4  H           1     -22.397  -6.409  -8.221  0.00  0.00     0.163 HD
ENDROOT
BRANCH   1   5
HETATM    5  C           1     -21.324  -5.298  -6.735  0.00  0.00     0.185 C 
BRANCH   5   6
HETATM    6  C           1     -21.790  -6.269  -5.659  0.00  0.00     0.038 C 
BRANCH   6   7
HETATM    7  C           1     -21.207  -5.856  -4.313  0.00  0.00     0.030 C 
BRANCH   7   8
HETATM    8  C           1     -21.804  -6.723  -3.213  0.00  0.00     0.230 C 
BRANCH   8   9
HETATM    9  N           1     -22.236  -5.855  -2.069  0.00  0.00    -0.079 N 
HETATM   10  H           1     -22.228  -6.413  -1.186  0.00  0.00     0.274 HD
HETATM   11  H           1     -21.578  -5.048  -1.978  0.00  0.00     0.274 HD
HETATM   12  H           1     -23.202  -5.499  -2.247  0.00  0.00     0.274 HD
ENDBRANCH   8   9
ENDBRANCH   7   8
ENDBRANCH   6   7
ENDBRANCH   5   6
BRANCH   5  13
HETATM   13  C           1     -19.874  -5.562  -7.059  0.00  0.00     0.196 C 
HETATM   14  O           1     -19.451  -6.738  -7.120  0.00  0.00    -0.646 OA
HETATM   15  O           1     -19.095  -4.606  -7.265  0.00  0.00    -0.646 OA
ENDBRANCH   5  13
ENDBRANCH   1   5
BRANCH   2  16
HETATM   16  C           1     -23.351  -4.578  -9.905  0.00  0.00     0.283 C 
BRANCH  16  17
HETATM   17  C           1     -23.051  -3.460 -10.894  0.00  0.00     0.145 C 
BRANCH  17  18
HETATM   18  C           1     -24.024  -3.530 -12.045  0.00  0.00     0.217 C 
HETATM   19  N           1     -23.693  -4.219 -13.182  0.00  0.00    -0.370 N 
HETATM   20  H           1     -22.795  -4.681 -13.248  0.00  0.00     0.159 HD
HETATM   21  H           1     -24.345  -4.265 -13.953  0.00  0.00     0.159 HD
HETATM   22  O           1     -25.096  -2.978 -11.966  0.00  0.00    -0.274 OA
ENDBRANCH  17  18
ENDBRANCH  16  17
BRANCH  16  23
HETATM   23  N           1     -24.806  -4.544  -9.539  0.00  0.00    -0.066 N 
HETATM   24  H           1     -24.949  -3.882  -8.743  0.00  0.00     0.275 HD
HETATM   25  H           1     -25.117  -5.500  -9.257  0.00  0.00     0.275 HD
HETATM   26  H           1     -25.365  -4.225 -10.363  0.00  0.00     0.275 HD
ENDBRANCH  16  23
ENDBRANCH   2  16
TORSDOF 10
ENDMDL
MODEL 5
REMARK VINA RESULT:      -5.6     14.197     16.861
REMARK  10 active torsions:
REMARK  status: ('A' for Active; 'I' for Inactive)
REMARK    1  A    between atoms: C_6  and  C_25 
REMARK    2  A    between atoms: C_6  and  C_7 
REMARK    3  A    between atoms: C_7  and  C_8 
REMARK    4  A    between atoms: C_7  and  N_11 
REMARK       I    between atoms: N_11  and  C_12 
REMARK    5  A    between atoms: C_12  and  C_13 
REMARK    6  A    between atoms: C_13  and  C_14 
REMARK    7  A    between atoms: C_13  and  N_18 
REMARK    8  A    between atoms: C_14  and  C_15 
REMARK       I    between atoms: C_15  and  N_16 
REMARK    9  A    between atoms: N_23  and  C_24 
REMARK   10  A    between atoms: C_24  and  C_25 
ROOT
HETATM    1  N           1     -21.406  -6.232  -6.288  0.00  0.00    -0.345 N 
HETATM    2  C           1     -21.030  -5.076  -6.917  0.00  0.00     0.249 C 
HETATM    3  O           1     -20.239  -4.331  -6.389  0.00  0.00    -0.271 OA
HETATM    4  H           1     -22.068  -6.857  -6.731  0.00  0.00     0.163 HD
ENDROOT
BRANCH   1   5
HETATM    5  C           1     -20.854  -6.564  -4.990  0.00  0.00     0.185 C 
BRANCH   5   6
HETATM    6  C           1     -21.979  -6.653  -3.968  0.00  0.00     0.038 C 
BRANCH   6   7
HETATM    7  C           1     -21.535  -6.002  -2.664  0.00  0.00     0.030 C 
BRANCH   7   8
HETATM    8  C           1     -22.178  -6.726  -1.489  0.00  0.00     0.230 C 
BRANCH   8   9
HETATM    9  N           1     -21.771  -8.170  -1.507  0.00  0.00    -0.079 N 
HETATM   10  H           1     -21.932  -8.565  -2.460  0.00  0.00     0.274 HD
HETATM   11  H           1     -20.758  -8.248  -1.264  0.00  0.00     0.274 HD
HETATM   12  H           1     -22.340  -8.700  -0.810  0.00  0.00     0.274 HD
ENDBRANCH   8   9
ENDBRANCH   7   8
ENDBRANCH   6   7
ENDBRANCH   5   6
BRANCH   5  13
HETATM   13  C           1     -20.140  -7.891  -5.070  0.00  0.00     0.196 C 
HETATM   14  O           1     -20.323  -8.754  -4.184  0.00  0.00    -0.646 OA
HETATM   15  O           1     -19.364  -8.127  -6.022  0.00  0.00    -0.646 OA
ENDBRANCH   5  13
ENDBRANCH   1   5
BRANCH   2  16
HETATM   16  C           1     -21.604  -4.731  -8.269  0.00  0.00     0.283 C 
BRANCH  16  17
HETATM   17  C           1     -20.473  -4.398  -9.232  0.00  0.00     0.145 C 
BRANCH  17  18
HETATM   18  C           1     -21.045  -4.089 -10.594  0.00  0.00     0.217 C 
HETATM   19  N           1     -20.395  -3.221 -11.430  0.00  0.00    -0.370 N 
HETATM   20  H           1     -19.530  -2.787 -11.134  0.00  0.00     0.159 HD
HETATM   21  H           1     -20.778  -3.015 -12.343  0.00  0.00     0.159 HD
HETATM   22  O           1     -22.078  -4.608 -10.947  0.00  0.00    -0.274 OA
ENDBRANCH  17  18
ENDBRANCH  16  17
BRANCH  16  23
HETATM   23  N           1     -22.513  -3.544  -8.137  0.00  0.00    -0.066 N 
HETATM   24  H           1     -23.381  -3.707  -8.697  0.00  0.00     0.275 HD
HETATM   25  H           1     -22.025  -2.691  -8.491  0.00  0.00     0.275 HD
HETATM   26  H           1     -22.765  -3.409  -7.132  0.00  0.00     0.275 HD
ENDBRANCH  16  23
ENDBRANCH   2  16
TORSDOF 10
ENDMDL
MODEL 6
REMARK VINA RESULT:      -5.5     13.742     16.768
REMARK  10 active torsions:
REMARK  status: ('A' for Active; 'I' for Inactive)
REMARK    1  A    between atoms: C_6  and  C_25 
REMARK    2  A    between atoms: C_6  and  C_7 
REMARK    3  A    between atoms: C_7  and  C_8 
REMARK    4  A    between atoms: C_7  and  N_11 
REMARK       I    between atoms: N_11  and  C_12 
REMARK    5  A    between atoms: C_12  and  C_13 
REMARK    6  A    between atoms: C_13  and  C_14 
REMARK    7  A    between atoms: C_13  and  N_18 
REMARK    8  A    between atoms: C_14  and  C_15 
REMARK       I    between atoms: C_15  and  N_16 
REMARK    9  A    between atoms: N_23  and  C_24 
REMARK   10  A    between atoms: C_24  and  C_25 
ROOT
HETATM    1  N           1     -21.381  -5.994  -5.754  0.00  0.00    -0.345 N 
HETATM    2  C           1     -20.733  -4.825  -6.047  0.00  0.00     0.249 C 
HETATM    3  O           1     -19.889  -4.398  -5.295  0.00  0.00    -0.271 OA
HETATM    4  H           1     -22.087  -6.353  -6.384  0.00  0.00     0.163 HD
ENDROOT
BRANCH   1   5
HETATM    5  C           1     -21.055  -6.720  -4.542  0.00  0.00     0.185 C 
BRANCH   5   6
HETATM    6  C           1     -22.235  -6.662  -3.582  0.00  0.00     0.038 C 
BRANCH   6   7
HETATM    7  C           1     -21.784  -6.063  -2.256  0.00  0.00     0.030 C 
BRANCH   7   8
HETATM    8  C           1     -22.293  -6.926  -1.109  0.00  0.00     0.230 C 
BRANCH   8   9
HETATM    9  N           1     -21.921  -8.358  -1.357  0.00  0.00    -0.079 N 
HETATM   10  H           1     -22.561  -8.982  -0.817  0.00  0.00     0.274 HD
HETATM   11  H           1     -22.008  -8.568  -2.377  0.00  0.00     0.274 HD
HETATM   12  H           1     -20.936  -8.520  -1.050  0.00  0.00     0.274 HD
ENDBRANCH   8   9
ENDBRANCH   7   8
ENDBRANCH   6   7
ENDBRANCH   5   6
BRANCH   5  13
HETATM   13  C           1     -20.753  -8.159  -4.882  0.00  0.00     0.196 C 
HETATM   14  O           1     -21.414  -9.079  -4.354  0.00  0.00    -0.646 OA
HETATM   15  O           1     -19.840  -8.431  -5.692  0.00  0.00    -0.646 OA
ENDBRANCH   5  13
ENDBRANCH   1   5
BRANCH   2  16
HETATM   16  C           1     -21.071  -4.070  -7.308  0.00  0.00     0.283 C 
BRANCH  16  17
HETATM   17  C           1     -22.110  -4.848  -8.104  0.00  0.00     0.145 C 
BRANCH  17  18
HETATM   18  C           1     -22.882  -3.899  -8.988  0.00  0.00     0.217 C 
HETATM   19  N           1     -24.188  -3.604  -8.702  0.00  0.00    -0.370 N 
HETATM   20  H           1     -24.635  -4.022  -7.896  0.00  0.00     0.159 HD
HETATM   21  H           1     -24.704  -2.968  -9.294  0.00  0.00     0.159 HD
HETATM   22  O           1     -22.348  -3.400  -9.951  0.00  0.00    -0.274 OA
ENDBRANCH  17  18
ENDBRANCH  16  17
BRANCH  16  23
HETATM   23  N           1     -19.831  -3.901  -8.136  0.00  0.00    -0.066 N 
HETATM   24  H           1     -19.474  -2.923  -8.032  0.00  0.00     0.275 HD
HETATM   25  H           1     -20.055  -4.083  -9.140  0.00  0.00     0.275 HD
HETATM   26  H           1     -19.103  -4.576  -7.813  0.00  0.00     0.275 HD
ENDBRANCH  16  23
ENDBRANCH   2  16
TORSDOF 10
ENDMDL
MODEL 7
REMARK VINA RESULT:      -5.4     12.715     14.203
REMARK  10 active torsions:
REMARK  status: ('A' for Active; 'I' for Inactive)
REMARK    1  A    between atoms: C_6  and  C_25 
REMARK    2  A    between atoms: C_6  and  C_7 
REMARK    3  A    between atoms: C_7  and  C_8 
REMARK    4  A    between atoms: C_7  and  N_11 
REMARK       I    between atoms: N_11  and  C_12 
REMARK    5  A    between atoms: C_12  and  C_13 
REMARK    6  A    between atoms: C_13  and  C_14 
REMARK    7  A    between atoms: C_13  and  N_18 
REMARK    8  A    between atoms: C_14  and  C_15 
REMARK       I    between atoms: C_15  and  N_16 
REMARK    9  A    between atoms: N_23  and  C_24 
REMARK   10  A    between atoms: C_24  and  C_25 
ROOT
HETATM    1  N           1     -22.289  -3.684  -9.104  0.00  0.00    -0.345 N 
HETATM    2  C           1     -21.828  -4.616  -8.214  0.00  0.00     0.249 C 
HETATM    3  O           1     -21.400  -5.673  -8.615  0.00  0.00    -0.271 OA
HETATM    4  H           1     -22.647  -2.798  -8.768  0.00  0.00     0.163 HD
ENDROOT
BRANCH   1   5
HETATM    5  C           1     -22.263  -3.963 -10.526  0.00  0.00     0.185 C 
BRANCH   5   6
HETATM    6  C           1     -23.384  -3.195 -11.214  0.00  0.00     0.038 C 
BRANCH   6   7
HETATM    7  C           1     -23.616  -3.771 -12.606  0.00  0.00     0.030 C 
BRANCH   7   8
HETATM    8  C           1     -23.510  -2.659 -13.640  0.00  0.00     0.230 C 
BRANCH   8   9
HETATM    9  N           1     -22.468  -3.017 -14.657  0.00  0.00    -0.079 N 
HETATM   10  H           1     -22.242  -4.034 -14.581  0.00  0.00     0.274 HD
HETATM   11  H           1     -22.832  -2.812 -15.615  0.00  0.00     0.274 HD
HETATM   12  H           1     -21.604  -2.455 -14.484  0.00  0.00     0.274 HD
ENDBRANCH   8   9
ENDBRANCH   7   8
ENDBRANCH   6   7
ENDBRANCH   5   6
BRANCH   5  13
HETATM   13  C           1     -20.934  -3.537 -11.099  0.00  0.00     0.196 C 
HETATM   14  O           1     -20.041  -4.388 -11.305  0.00  0.00    -0.646 OA
HETATM   15  O           1     -20.725  -2.334 -11.366  0.00  0.00    -0.646 OA
ENDBRANCH   5  13
ENDBRANCH   1   5
BRANCH   2  16
HETATM   16  C           1     -21.854  -4.325  -6.734  0.00  0.00     0.283 C 
BRANCH  16  17
HETATM   17  C           1     -20.501  -4.668  -6.125  0.00  0.00     0.145 C 
BRANCH  17  18
HETATM   18  C           1     -20.583  -6.009  -5.438  0.00  0.00     0.217 C 
HETATM   19  N           1     -20.221  -7.146  -6.109  0.00  0.00    -0.370 N 
HETATM   20  H           1     -19.898  -7.087  -7.066  0.00  0.00     0.159 HD
HETATM   21  H           1     -20.276  -8.045  -5.648  0.00  0.00     0.159 HD
HETATM   22  O           1     -20.969  -6.080  -4.295  0.00  0.00    -0.274 OA
ENDBRANCH  17  18
ENDBRANCH  16  17
BRANCH  16  23
HETATM   23  N           1     -22.920  -5.155  -6.081  0.00  0.00    -0.066 N 
HETATM   24  H           1     -22.505  -6.055  -5.747  0.00  0.00     0.275 HD
HETATM   25  H           1     -23.677  -5.357  -6.772  0.00  0.00     0.275 HD
HETATM   26  H           1     -23.320  -4.632  -5.270  0.00  0.00     0.275 HD
ENDBRANCH  16  23
ENDBRANCH   2  16
TORSDOF 10
ENDMDL
MODEL 8
REMARK VINA RESULT:      -5.2     13.868     17.041
REMARK  10 active torsions:
REMARK  status: ('A' for Active; 'I' for Inactive)
REMARK    1  A    between atoms: C_6  and  C_25 
REMARK    2  A    between atoms: C_6  and  C_7 
REMARK    3  A    between atoms: C_7  and  C_8 
REMARK    4  A    between atoms: C_7  and  N_11 
REMARK       I    between atoms: N_11  and  C_12 
REMARK    5  A    between atoms: C_12  and  C_13 
REMARK    6  A    between atoms: C_13  and  C_14 
REMARK    7  A    between atoms: C_13  and  N_18 
REMARK    8  A    between atoms: C_14  and  C_15 
REMARK       I    between atoms: C_15  and  N_16 
REMARK    9  A    between atoms: N_23  and  C_24 
REMARK   10  A    between atoms: C_24  and  C_25 
ROOT
HETATM    1  N           1     -20.984  -6.470  -4.727  0.00  0.00    -0.345 N 
HETATM    2  C           1     -21.781  -5.732  -5.560  0.00  0.00     0.249 C 
HETATM    3  O           1     -22.981  -5.868  -5.525  0.00  0.00    -0.271 OA
HETATM    4  H           1     -19.979  -6.354  -4.756  0.00  0.00     0.163 HD
ENDROOT
BRANCH   1   5
HETATM    5  C           1     -21.579  -7.414  -3.802  0.00  0.00     0.185 C 
BRANCH   5   6
HETATM    6  C           1     -20.793  -8.717  -3.832  0.00  0.00     0.038 C 
BRANCH   6   7
HETATM    7  C           1     -21.756  -9.890  -3.970  0.00  0.00     0.030 C 
BRANCH   7   8
HETATM    8  C           1     -21.615 -10.808  -2.763  0.00  0.00     0.230 C 
BRANCH   8   9
HETATM    9  N           1     -22.386 -10.240  -1.609  0.00  0.00    -0.079 N 
HETATM   10  H           1     -22.257  -9.204  -1.580  0.00  0.00     0.274 HD
HETATM   11  H           1     -23.401 -10.462  -1.727  0.00  0.00     0.274 HD
HETATM   12  H           1     -22.038 -10.659  -0.718  0.00  0.00     0.274 HD
ENDBRANCH   8   9
ENDBRANCH   7   8
ENDBRANCH   6   7
ENDBRANCH   5   6
BRANCH   5  13
HETATM   13  C           1     -21.550  -6.839  -2.407  0.00  0.00     0.196 C 
HETATM   14  O           1     -20.951  -7.447  -1.493  0.00  0.00    -0.646 OA
HETATM   15  O           1     -22.126  -5.756  -2.165  0.00  0.00    -0.646 OA
ENDBRANCH   5  13
ENDBRANCH   1   5
BRANCH   2  16
HETATM   16  C           1     -21.162  -4.748  -6.522  0.00  0.00     0.283 C 
BRANCH  16  17
HETATM   17  C           1     -21.484  -5.162  -7.951  0.00  0.00     0.145 C 
BRANCH  17  18
HETATM   18  C           1     -22.485  -4.199  -8.541  0.00  0.00     0.217 C 
HETATM   19  N           1     -23.726  -4.068  -7.977  0.00  0.00    -0.370 N 
HETATM   20  H           1     -23.971  -4.618  -7.162  0.00  0.00     0.159 HD
HETATM   21  H           1     -24.396  -3.424  -8.372  0.00  0.00     0.159 HD
HETATM   22  O           1     -22.193  -3.544  -9.514  0.00  0.00    -0.274 OA
ENDBRANCH  17  18
ENDBRANCH  16  17
BRANCH  16  23
HETATM   23  N           1     -19.673  -4.731  -6.330  0.00  0.00    -0.066 N 
HETATM   24  H           1     -19.436  -5.174  -5.412  0.00  0.00     0.275 HD
HETATM   25  H           1     -19.332  -3.744  -6.339  0.00  0.00     0.275 HD
HETATM   26  H           1     -19.217  -5.265  -7.104  0.00  0.00     0.275 HD
ENDBRANCH  16  23
ENDBRANCH   2  16
TORSDOF 10
ENDMDL
MODEL 9
REMARK VINA RESULT:      -5.1     14.668     16.201
REMARK  10 active torsions:
REMARK  status: ('A' for Active; 'I' for Inactive)
REMARK    1  A    between atoms: C_6  and  C_25 
REMARK    2  A    between atoms: C_6  and  C_7 
REMARK    3  A    between atoms: C_7  and  C_8 
REMARK    4  A    between atoms: C_7  and  N_11 
REMARK       I    between atoms: N_11  and  C_12 
REMARK    5  A    between atoms: C_12  and  C_13 
REMARK    6  A    between atoms: C_13  and  C_14 
REMARK    7  A    between atoms: C_13  and  N_18 
REMARK    8  A    between atoms: C_14  and  C_15 
REMARK       I    between atoms: C_15  and  N_16 
REMARK    9  A    between atoms: N_23  and  C_24 
REMARK   10  A    between atoms: C_24  and  C_25 
ROOT
HETATM    1  N           1     -21.701  -6.212  -5.614  0.00  0.00    -0.345 N 
HETATM    2  C           1     -21.288  -7.482  -5.315  0.00  0.00     0.249 C 
HETATM    3  O           1     -20.517  -8.055  -6.048  0.00  0.00    -0.271 OA
HETATM    4  H           1     -22.346  -5.733  -4.999  0.00  0.00     0.163 HD
ENDROOT
BRANCH   1   5
HETATM    5  C           1     -21.213  -5.553  -6.809  0.00  0.00     0.185 C 
BRANCH   5   6
HETATM    6  C           1     -22.269  -4.583  -7.321  0.00  0.00     0.038 C 
BRANCH   6   7
HETATM    7  C           1     -22.508  -4.829  -8.806  0.00  0.00     0.030 C 
BRANCH   7   8
HETATM    8  C           1     -21.784  -3.765  -9.619  0.00  0.00     0.230 C 
BRANCH   8   9
HETATM    9  N           1     -20.504  -4.331 -10.159  0.00  0.00    -0.079 N 
HETATM   10  H           1     -20.595  -4.477 -11.189  0.00  0.00     0.274 HD
HETATM   11  H           1     -19.722  -3.665  -9.969  0.00  0.00     0.274 HD
HETATM   12  H           1     -20.305  -5.245  -9.694  0.00  0.00     0.274 HD
ENDBRANCH   8   9
ENDBRANCH   7   8
ENDBRANCH   6   7
ENDBRANCH   5   6
BRANCH   5  13
HETATM   13  C           1     -19.948  -4.796  -6.485  0.00  0.00     0.196 C 
HETATM   14  O           1     -19.724  -4.426  -5.312  0.00  0.00    -0.646 OA
HETATM   15  O           1     -19.125  -4.538  -7.390  0.00  0.00    -0.646 OA
ENDBRANCH   5  13
ENDBRANCH   1   5
BRANCH   2  16
HETATM   16  C           1     -21.796  -8.169  -4.071  0.00  0.00     0.283 C 
BRANCH  16  17
HETATM   17  C           1     -21.037  -7.649  -2.858  0.00  0.00     0.145 C 
BRANCH  17  18
HETATM   18  C           1     -21.955  -6.796  -2.017  0.00  0.00     0.217 C 
HETATM   19  N           1     -22.212  -7.141  -0.717  0.00  0.00    -0.370 N 
HETATM   20  H           1     -21.785  -7.969  -0.320  0.00  0.00     0.159 HD
HETATM   21  H           1     -22.827  -6.569  -0.154  0.00  0.00     0.159 HD
HETATM   22  O           1     -22.465  -5.808  -2.490  0.00  0.00    -0.274 OA
ENDBRANCH  17  18
ENDBRANCH  16  17
BRANCH  16  23
HETATM   23  N           1     -21.583  -9.649  -4.196  0.00  0.00    -0.066 N 
HETATM   24  H           1     -22.136 -10.143  -3.459  0.00  0.00     0.275 HD
HETATM   25  H           1     -20.569  -9.867  -4.075  0.00  0.00     0.275 HD
HETATM   26  H           1     -21.898  -9.967  -5.140  0.00  0.00     0.275 HD
ENDBRANCH  16  23
ENDBRANCH   2  16
TORSDOF 10
ENDMDL
