MODEL 1
REMARK VINA RESULT:      -6.6      0.000      0.000
REMARK  7 active torsions:
REMARK  status: ('A' for Active; 'I' for Inactive)
REMARK    1  A    between atoms: N_3  and  C_12 
REMARK       I    between atoms: N_3  and  C_20 
REMARK    2  A    between atoms: C_8  and  C_12 
REMARK    3  A    between atoms: C_10  and  O_11 
REMARK    4  A    between atoms: C_10  and  C_12 
REMARK    5  A    between atoms: C_13  and  C_14 
REMARK    6  A    between atoms: C_14  and  C_20 
REMARK    7  A    between atoms: C_14  and  N_17 
ROOT
HETATM    1  O           1     -36.420  -1.497 -12.289  0.00  0.00    -0.271 OA
HETATM    2  N           1     -35.002  -1.135 -13.975  0.00  0.00    -0.343 N 
HETATM    3  H           1     -34.057  -1.205 -14.331  0.00  0.00     0.163 HD
HETATM    4  C           1     -35.292  -1.581 -12.713  0.00  0.00     0.249 C 
ENDROOT
BRANCH   2   5
HETATM    5  C           1     -36.047  -0.564 -14.801  0.00  0.00     0.214 C 
BRANCH   5   6
HETATM    6  C           1     -35.839  -0.984 -16.236  0.00  0.00     0.199 C 
HETATM    7  O           1     -34.730  -1.427 -16.603  0.00  0.00    -0.646 OA
HETATM    8  O           1     -36.777  -0.887 -17.057  0.00  0.00    -0.646 OA
ENDBRANCH   5   6
BRANCH   5   9
HETATM    9  C           1     -35.997   0.955 -14.703  0.00  0.00     0.147 C 
HETATM   10  C           1     -34.672   1.379 -14.082  0.00  0.00     0.042 C 
BRANCH   9  11
HETATM   11  O           1     -36.111   1.510 -15.985  0.00  0.00    -0.393 OA
HETATM   12  H           1     -35.284   1.914 -16.185  0.00  0.00     0.210 HD
ENDBRANCH   9  11
ENDBRANCH   5   9
ENDBRANCH   2   5
BRANCH   4  13
HETATM   13  C           1     -34.204  -2.175 -11.853  0.00  0.00     0.278 C 
BRANCH  13  14
HETATM   14  C           1     -34.196  -3.689 -12.018  0.00  0.00     0.017 C 
HETATM   15  C           1     -32.761  -4.197 -11.981  0.00  0.00     0.012 C 
HETATM   16  C           1     -34.988  -4.326 -10.883  0.00  0.00     0.012 C 
ENDBRANCH  13  14
BRANCH  13  17
HETATM   17  N           1     -34.459  -1.830 -10.417  0.00  0.00    -0.066 N 
HETATM   18  H           1     -35.483  -1.895 -10.219  0.00  0.00     0.275 HD
HETATM   19  H           1     -33.942  -2.499  -9.801  0.00  0.00     0.275 HD
HETATM   20  H           1     -34.129  -0.857 -10.228  0.00  0.00     0.275 HD
ENDBRANCH  13  17
ENDBRANCH   4  13
TORSDOF 7
ENDMDL
MODEL 2
REMARK VINA RESULT:      -6.3     12.519     14.392
REMARK  7 active torsions:
REMARK  status: ('A' for Active; 'I' for Inactive)
REMARK    1  A    between atoms: N_3  and  C_12 
REMARK       I    between atoms: N_3  and  C_20 
REMARK    2  A    between atoms: C_8  and  C_12 
REMARK    3  A    between atoms: C_10  and  O_11 
REMARK    4  A    between atoms: C_10  and  C_12 
REMARK    5  A    between atoms: C_13  and  C_14 
REMARK    6  A    between atoms: C_14  and  C_20 
REMARK    7  A    between atoms: C_14  and  N_17 
ROOT
HETATM    1  O           1     -21.929  -3.454  -7.644  0.00  0.00    -0.271 OA
HETATM    2  N           1     -22.303  -4.750  -9.423  0.00  0.00    -0.343 N 
HETATM    3  H           1     -22.269  -5.676  -9.832  0.00  0.00     0.163 HD
HETATM    4  C           1     -21.889  -4.558  -8.132  0.00  0.00     0.249 C 
ENDROOT
BRANCH   2   5
HETATM    5  C           1     -22.788  -3.629 -10.204  0.00  0.00     0.214 C 
BRANCH   5   6
HETATM    6  C           1     -24.260  -3.812 -10.483  0.00  0.00     0.199 C 
HETATM    7  O           1     -24.827  -3.100 -11.340  0.00  0.00    -0.646 OA
HETATM    8  O           1     -24.912  -4.675  -9.857  0.00  0.00    -0.646 OA
ENDBRANCH   5   6
BRANCH   5   9
HETATM    9  C           1     -22.025  -3.561 -11.520  0.00  0.00     0.147 C 
HETATM   10  C           1     -20.539  -3.769 -11.256  0.00  0.00     0.042 C 
BRANCH   9  11
HETATM   11  O           1     -22.492  -4.561 -12.383  0.00  0.00    -0.393 OA
HETATM   12  H           1     -23.432  -4.510 -12.380  0.00  0.00     0.210 HD
ENDBRANCH   9  11
ENDBRANCH   5   9
ENDBRANCH   2   5
BRANCH   4  13
HETATM   13  C           1     -21.383  -5.725  -7.320  0.00  0.00     0.278 C 
BRANCH  13  14
HETATM   14  C           1     -21.540  -5.417  -5.836  0.00  0.00     0.017 C 
HETATM   15  C           1     -21.979  -6.676  -5.100  0.00  0.00     0.012 C 
HETATM   16  C           1     -20.207  -4.940  -5.274  0.00  0.00     0.012 C 
ENDBRANCH  13  14
BRANCH  13  17
HETATM   17  N           1     -19.936  -5.960  -7.630  0.00  0.00    -0.066 N 
HETATM   18  H           1     -19.850  -6.744  -8.316  0.00  0.00     0.275 HD
HETATM   19  H           1     -19.521  -5.091  -8.039  0.00  0.00     0.275 HD
HETATM   20  H           1     -19.427  -6.209  -6.753  0.00  0.00     0.275 HD
ENDBRANCH  13  17
ENDBRANCH   4  13
TORSDOF 7
ENDMDL
MODEL 3
REMARK VINA RESULT:      -5.8      2.244      5.420
REMARK  7 active torsions:
REMARK  status: ('A' for Active; 'I' for Inactive)
REMARK    1  A    between atoms: N_3  and  C_12 
REMARK       I    between atoms: N_3  and  C_20 
REMARK    2  A    between atoms: C_8  and  C_12 
REMARK    3  A    between atoms: C_10  and  O_11 
REMARK    4  A    between atoms: C_10  and  C_12 
REMARK    5  A    between atoms: C_13  and  C_14 
REMARK    6  A    between atoms: C_14  and  C_20 
REMARK    7  A    between atoms: C_14  and  N_17 
ROOT
HETATM    1  O           1     -36.863  -1.136 -12.530  0.00  0.00    -0.271 OA
HETATM    2  N           1     -34.834  -1.755 -13.225  0.00  0.00    -0.343 N 
HETATM    3  H           1     -34.070  -1.616 -13.876  0.00  0.00     0.163 HD
HETATM    4  C           1     -35.953  -0.970 -13.307  0.00  0.00     0.249 C 
ENDROOT
BRANCH   2   5
HETATM    5  C           1     -34.741  -2.784 -12.208  0.00  0.00     0.214 C 
BRANCH   5   6
HETATM    6  C           1     -33.903  -2.280 -11.059  0.00  0.00     0.199 C 
HETATM    7  O           1     -32.699  -2.605 -10.974  0.00  0.00    -0.646 OA
HETATM    8  O           1     -34.413  -1.539 -10.191  0.00  0.00    -0.646 OA
ENDBRANCH   5   6
BRANCH   5   9
HETATM    9  C           1     -34.094  -4.028 -12.804  0.00  0.00     0.147 C 
HETATM   10  C           1     -34.804  -5.269 -12.280  0.00  0.00     0.042 C 
BRANCH   9  11
HETATM   11  O           1     -34.197  -3.984 -14.201  0.00  0.00    -0.393 OA
HETATM   12  H           1     -34.845  -3.333 -14.408  0.00  0.00     0.210 HD
ENDBRANCH   9  11
ENDBRANCH   5   9
ENDBRANCH   2   5
BRANCH   4  13
HETATM   13  C           1     -36.049   0.101 -14.365  0.00  0.00     0.278 C 
BRANCH  13  14
HETATM   14  C           1     -37.006  -0.352 -15.461  0.00  0.00     0.017 C 
HETATM   15  C           1     -37.942   0.793 -15.823  0.00  0.00     0.012 C 
HETATM   16  C           1     -36.208  -0.762 -16.692  0.00  0.00     0.012 C 
ENDBRANCH  13  14
BRANCH  13  17
HETATM   17  N           1     -34.692   0.342 -14.956  0.00  0.00    -0.066 N 
HETATM   18  H           1     -34.027  -0.385 -14.609  0.00  0.00     0.275 HD
HETATM   19  H           1     -34.752   0.292 -15.999  0.00  0.00     0.275 HD
HETATM   20  H           1     -34.352   1.288 -14.672  0.00  0.00     0.275 HD
ENDBRANCH  13  17
ENDBRANCH   4  13
TORSDOF 7
ENDMDL
MODEL 4
REMARK VINA RESULT:      -5.5     13.411     15.826
REMARK  7 active torsions:
REMARK  status: ('A' for Active; 'I' for Inactive)
REMARK    1  A    between atoms: N_3  and  C_12 
REMARK       I    between atoms: N_3  and  C_20 
REMARK    2  A    between atoms: C_8  and  C_12 
REMARK    3  A    between atoms: C_10  and  O_11 
REMARK    4  A    between atoms: C_10  and  C_12 
REMARK    5  A    between atoms: C_13  and  C_14 
REMARK    6  A    between atoms: C_14  and  C_20 
REMARK    7  A    between atoms: C_14  and  N_17 
ROOT
HETATM    1  O           1     -21.887  -3.083  -7.759  0.00  0.00    -0.271 OA
HETATM    2  N           1     -22.173  -5.282  -7.500  0.00  0.00    -0.343 N 
HETATM    3  H           1     -22.608  -6.135  -7.829  0.00  0.00     0.163 HD
HETATM    4  C           1     -22.406  -4.101  -8.152  0.00  0.00     0.249 C 
ENDROOT
BRANCH   2   5
HETATM    5  C           1     -21.303  -5.312  -6.341  0.00  0.00     0.214 C 
BRANCH   5   6
HETATM    6  C           1     -19.926  -5.769  -6.758  0.00  0.00     0.199 C 
HETATM    7  O           1     -19.651  -6.988  -6.776  0.00  0.00    -0.646 OA
HETATM    8  O           1     -19.061  -4.928  -7.084  0.00  0.00    -0.646 OA
ENDBRANCH   5   6
BRANCH   5   9
HETATM    9  C           1     -21.869  -6.279  -5.308  0.00  0.00     0.147 C 
HETATM   10  C           1     -21.220  -6.013  -3.956  0.00  0.00     0.042 C 
BRANCH   9  11
HETATM   11  O           1     -23.254  -6.095  -5.207  0.00  0.00    -0.393 OA
HETATM   12  H           1     -23.655  -6.931  -5.376  0.00  0.00     0.210 HD
ENDBRANCH   9  11
ENDBRANCH   5   9
ENDBRANCH   2   5
BRANCH   4  13
HETATM   13  C           1     -23.311  -4.069  -9.358  0.00  0.00     0.278 C 
BRANCH  13  14
HETATM   14  C           1     -22.583  -3.412 -10.523  0.00  0.00     0.017 C 
HETATM   15  C           1     -21.558  -4.383 -11.094  0.00  0.00     0.012 C 
HETATM   16  C           1     -23.589  -3.044 -11.606  0.00  0.00     0.012 C 
ENDBRANCH  13  14
BRANCH  13  17
HETATM   17  N           1     -24.547  -3.284  -9.035  0.00  0.00    -0.066 N 
HETATM   18  H           1     -24.597  -3.122  -8.004  0.00  0.00     0.275 HD
HETATM   19  H           1     -24.516  -2.365  -9.532  0.00  0.00     0.275 HD
HETATM   20  H           1     -25.390  -3.818  -9.344  0.00  0.00     0.275 HD
ENDBRANCH  13  17
ENDBRANCH   4  13
TORSDOF 7
ENDMDL
MODEL 5
REMARK VINA RESULT:      -5.2      2.724      4.919
REMARK  7 active torsions:
REMARK  status: ('A' for Active; 'I' for Inactive)
REMARK    1  A    between atoms: N_3  and  C_12 
REMARK       I    between atoms: N_3  and  C_20 
REMARK    2  A    between atoms: C_8  and  C_12 
REMARK    3  A    between atoms: C_10  and  O_11 
REMARK    4  A    between atoms: C_10  and  C_12 
REMARK    5  A    between atoms: C_13  and  C_14 
REMARK    6  A    between atoms: C_14  and  C_20 
REMARK    7  A    between atoms: C_14  and  N_17 
ROOT
HETATM    1  O           1     -33.951  -1.474 -10.551  0.00  0.00    -0.271 OA
HETATM    2  N           1     -35.224  -3.036 -11.514  0.00  0.00    -0.343 N 
HETATM    3  H           1     -36.146  -3.436 -11.635  0.00  0.00     0.163 HD
HETATM    4  C           1     -35.052  -1.952 -10.695  0.00  0.00     0.249 C 
ENDROOT
BRANCH   2   5
HETATM    5  C           1     -34.087  -3.610 -12.206  0.00  0.00     0.214 C 
BRANCH   5   6
HETATM    6  C           1     -34.214  -3.343 -13.686  0.00  0.00     0.199 C 
HETATM    7  O           1     -33.653  -4.099 -14.508  0.00  0.00    -0.646 OA
HETATM    8  O           1     -34.878  -2.364 -14.090  0.00  0.00    -0.646 OA
ENDBRANCH   5   6
BRANCH   5   9
HETATM    9  C           1     -34.052  -5.113 -11.962  0.00  0.00     0.147 C 
HETATM   10  C           1     -34.333  -5.394 -10.491  0.00  0.00     0.042 C 
BRANCH   9  11
HETATM   11  O           1     -35.027  -5.738 -12.752  0.00  0.00    -0.393 OA
HETATM   12  H           1     -34.881  -5.458 -13.640  0.00  0.00     0.210 HD
ENDBRANCH   9  11
ENDBRANCH   5   9
ENDBRANCH   2   5
BRANCH   4  13
HETATM   13  C           1     -36.235  -1.354  -9.975  0.00  0.00     0.278 C 
BRANCH  13  14
HETATM   14  C           1     -37.162  -0.690 -10.983  0.00  0.00     0.017 C 
HETATM   15  C           1     -38.074   0.295 -10.263  0.00  0.00     0.012 C 
HETATM   16  C           1     -36.332   0.055 -12.021  0.00  0.00     0.012 C 
ENDBRANCH  13  14
BRANCH  13  17
HETATM   17  N           1     -35.755  -0.332  -8.989  0.00  0.00    -0.066 N 
HETATM   18  H           1     -35.076  -0.775  -8.329  0.00  0.00     0.275 HD
HETATM   19  H           1     -35.285   0.451  -9.499  0.00  0.00     0.275 HD
HETATM   20  H           1     -36.568   0.043  -8.451  0.00  0.00     0.275 HD
ENDBRANCH  13  17
ENDBRANCH   4  13
TORSDOF 7
ENDMDL
MODEL 6
REMARK VINA RESULT:      -5.1     17.351     19.193
REMARK  7 active torsions:
REMARK  status: ('A' for Active; 'I' for Inactive)
REMARK    1  A    between atoms: N_3  and  C_12 
REMARK       I    between atoms: N_3  and  C_20 
REMARK    2  A    between atoms: C_8  and  C_12 
REMARK    3  A    between atoms: C_10  and  O_11 
REMARK    4  A    between atoms: C_10  and  C_12 
REMARK    5  A    between atoms: C_13  and  C_14 
REMARK    6  A    between atoms: C_14  and  C_20 
REMARK    7  A    between atoms: C_14  and  N_17 
ROOT
HETATM    1  O           1     -21.950  -9.604  -2.320  0.00  0.00    -0.271 OA
HETATM    2  N           1     -20.944  -7.898  -3.352  0.00  0.00    -0.343 N 
HETATM    3  H           1     -20.540  -6.973  -3.284  0.00  0.00     0.163 HD
HETATM    4  C           1     -21.467  -8.499  -2.239  0.00  0.00     0.249 C 
ENDROOT
BRANCH   2   5
HETATM    5  C           1     -20.969  -8.587  -4.628  0.00  0.00     0.214 C 
BRANCH   5   6
HETATM    6  C           1     -19.627  -9.231  -4.878  0.00  0.00     0.199 C 
HETATM    7  O           1     -18.647  -8.928  -4.165  0.00  0.00    -0.646 OA
HETATM    8  O           1     -19.497 -10.066  -5.798  0.00  0.00    -0.646 OA
ENDBRANCH   5   6
BRANCH   5   9
HETATM    9  C           1     -21.268  -7.586  -5.737  0.00  0.00     0.147 C 
HETATM   10  C           1     -22.012  -6.392  -5.156  0.00  0.00     0.042 C 
BRANCH   9  11
HETATM   11  O           1     -20.065  -7.154  -6.312  0.00  0.00    -0.393 OA
HETATM   12  H           1     -19.551  -7.924  -6.485  0.00  0.00     0.210 HD
ENDBRANCH   9  11
ENDBRANCH   5   9
ENDBRANCH   2   5
BRANCH   4  13
HETATM   13  C           1     -21.442  -7.783  -0.912  0.00  0.00     0.278 C 
BRANCH  13  14
HETATM   14  C           1     -21.995  -8.699   0.172  0.00  0.00     0.017 C 
HETATM   15  C           1     -21.028  -8.739   1.347  0.00  0.00     0.012 C 
HETATM   16  C           1     -23.344  -8.170   0.643  0.00  0.00     0.012 C 
ENDBRANCH  13  14
BRANCH  13  17
HETATM   17  N           1     -22.283  -6.545  -0.996  0.00  0.00    -0.066 N 
HETATM   18  H           1     -21.692  -5.742  -1.309  0.00  0.00     0.275 HD
HETATM   19  H           1     -23.058  -6.696  -1.681  0.00  0.00     0.275 HD
HETATM   20  H           1     -22.687  -6.333  -0.056  0.00  0.00     0.275 HD
ENDBRANCH  13  17
ENDBRANCH   4  13
TORSDOF 7
ENDMDL
MODEL 7
REMARK VINA RESULT:      -5.1      2.896      5.458
REMARK  7 active torsions:
REMARK  status: ('A' for Active; 'I' for Inactive)
REMARK    1  A    between atoms: N_3  and  C_12 
REMARK       I    between atoms: N_3  and  C_20 
REMARK    2  A    between atoms: C_8  and  C_12 
REMARK    3  A    between atoms: C_10  and  O_11 
REMARK    4  A    between atoms: C_10  and  C_12 
REMARK    5  A    between atoms: C_13  and  C_14 
REMARK    6  A    between atoms: C_14  and  C_20 
REMARK    7  A    between atoms: C_14  and  N_17 
ROOT
HETATM    1  O           1     -33.894  -1.236 -10.976  0.00  0.00    -0.271 OA
HETATM    2  N           1     -34.945  -3.065 -11.709  0.00  0.00    -0.343 N 
HETATM    3  H           1     -35.762  -3.464 -12.154  0.00  0.00     0.163 HD
HETATM    4  C           1     -34.869  -1.713 -11.508  0.00  0.00     0.249 C 
ENDROOT
BRANCH   2   5
HETATM    5  C           1     -33.857  -3.924 -11.284  0.00  0.00     0.214 C 
BRANCH   5   6
HETATM    6  C           1     -32.965  -4.224 -12.464  0.00  0.00     0.199 C 
HETATM    7  O           1     -31.805  -4.651 -12.278  0.00  0.00    -0.646 OA
HETATM    8  O           1     -33.386  -4.045 -13.627  0.00  0.00    -0.646 OA
ENDBRANCH   5   6
BRANCH   5   9
HETATM    9  C           1     -34.426  -5.225 -10.732  0.00  0.00     0.147 C 
HETATM   10  C           1     -35.913  -5.051 -10.454  0.00  0.00     0.042 C 
BRANCH   9  11
HETATM   11  O           1     -34.242  -6.250 -11.670  0.00  0.00    -0.393 OA
HETATM   12  H           1     -34.823  -6.071 -12.390  0.00  0.00     0.210 HD
ENDBRANCH   9  11
ENDBRANCH   5   9
ENDBRANCH   2   5
BRANCH   4  13
HETATM   13  C           1     -36.001  -0.819 -11.949  0.00  0.00     0.278 C 
BRANCH  13  14
HETATM   14  C           1     -35.833  -0.476 -13.424  0.00  0.00     0.017 C 
HETATM   15  C           1     -37.196  -0.187 -14.037  0.00  0.00     0.012 C 
HETATM   16  C           1     -34.945   0.755 -13.560  0.00  0.00     0.012 C 
ENDBRANCH  13  14
BRANCH  13  17
HETATM   17  N           1     -35.986   0.443 -11.139  0.00  0.00    -0.066 N 
HETATM   18  H           1     -36.734   1.086 -11.483  0.00  0.00     0.275 HD
HETATM   19  H           1     -36.158   0.213 -10.134  0.00  0.00     0.275 HD
HETATM   20  H           1     -35.056   0.909 -11.236  0.00  0.00     0.275 HD
ENDBRANCH  13  17
ENDBRANCH   4  13
TORSDOF 7
ENDMDL
MODEL 8
REMARK VINA RESULT:      -5.1      9.509     11.285
REMARK  7 active torsions:
REMARK  status: ('A' for Active; 'I' for Inactive)
REMARK    1  A    between atoms: N_3  and  C_12 
REMARK       I    between atoms: N_3  and  C_20 
REMARK    2  A    between atoms: C_8  and  C_12 
REMARK    3  A    between atoms: C_10  and  O_11 
REMARK    4  A    between atoms: C_10  and  C_12 
REMARK    5  A    between atoms: C_13  and  C_14 
REMARK    6  A    between atoms: C_14  and  C_20 
REMARK    7  A    between atoms: C_14  and  N_17 
ROOT
HETATM    1  O           1     -28.467  -5.201 -19.113  0.00  0.00    -0.271 OA
HETATM    2  N           1     -27.254  -7.040 -18.751  0.00  0.00    -0.343 N 
HETATM    3  H           1     -27.225  -7.998 -18.425  0.00  0.00     0.163 HD
HETATM    4  C           1     -28.433  -6.344 -18.724  0.00  0.00     0.249 C 
ENDROOT
BRANCH   2   5
HETATM    5  C           1     -26.047  -6.406 -19.245  0.00  0.00     0.214 C 
BRANCH   5   6
HETATM    6  C           1     -25.674  -7.007 -20.578  0.00  0.00     0.199 C 
HETATM    7  O           1     -26.137  -8.118 -20.914  0.00  0.00    -0.646 OA
HETATM    8  O           1     -24.900  -6.394 -21.346  0.00  0.00    -0.646 OA
ENDBRANCH   5   6
BRANCH   5   9
HETATM    9  C           1     -24.915  -6.628 -18.251  0.00  0.00     0.147 C 
HETATM   10  C           1     -25.497  -6.852 -16.862  0.00  0.00     0.042 C 
BRANCH   9  11
HETATM   11  O           1     -24.171  -7.752 -18.634  0.00  0.00    -0.393 OA
HETATM   12  H           1     -24.516  -8.040 -19.462  0.00  0.00     0.210 HD
ENDBRANCH   9  11
ENDBRANCH   5   9
ENDBRANCH   2   5
BRANCH   4  13
HETATM   13  C           1     -29.688  -7.004 -18.210  0.00  0.00     0.278 C 
BRANCH  13  14
HETATM   14  C           1     -30.467  -6.016 -17.352  0.00  0.00     0.017 C 
HETATM   15  C           1     -31.919  -6.463 -17.254  0.00  0.00     0.012 C 
HETATM   16  C           1     -29.857  -5.965 -15.957  0.00  0.00     0.012 C 
ENDBRANCH  13  14
BRANCH  13  17
HETATM   17  N           1     -29.320  -8.200 -17.384  0.00  0.00    -0.066 N 
HETATM   18  H           1     -29.684  -8.077 -16.411  0.00  0.00     0.275 HD
HETATM   19  H           1     -29.740  -9.059 -17.807  0.00  0.00     0.275 HD
HETATM   20  H           1     -28.280  -8.299 -17.356  0.00  0.00     0.275 HD
ENDBRANCH  13  17
ENDBRANCH   4  13
TORSDOF 7
ENDMDL
MODEL 9
REMARK VINA RESULT:      -5.1      2.113      5.638
REMARK  7 active torsions:
REMARK  status: ('A' for Active; 'I' for Inactive)
REMARK    1  A    between atoms: N_3  and  C_12 
REMARK       I    between atoms: N_3  and  C_20 
REMARK    2  A    between atoms: C_8  and  C_12 
REMARK    3  A    between atoms: C_10  and  O_11 
REMARK    4  A    between atoms: C_10  and  C_12 
REMARK    5  A    between atoms: C_13  and  C_14 
REMARK    6  A    between atoms: C_14  and  C_20 
REMARK    7  A    between atoms: C_14  and  N_17 
ROOT
HETATM    1  O           1     -36.878  -1.036 -13.011  0.00  0.00    -0.271 OA
HETATM    2  N           1     -34.837  -1.940 -12.968  0.00  0.00    -0.343 N 
HETATM    3  H           1     -33.933  -2.039 -13.413  0.00  0.00     0.163 HD
HETATM    4  C           1     -35.799  -1.153 -13.542  0.00  0.00     0.249 C 
ENDROOT
BRANCH   2   5
HETATM    5  C           1     -35.113  -2.632 -11.724  0.00  0.00     0.214 C 
BRANCH   5   6
HETATM    6  C           1     -34.526  -1.850 -10.574  0.00  0.00     0.199 C 
HETATM    7  O           1     -35.278  -1.360  -9.704  0.00  0.00    -0.646 OA
HETATM    8  O           1     -33.289  -1.691 -10.493  0.00  0.00    -0.646 OA
ENDBRANCH   5   6
BRANCH   5   9
HETATM    9  C           1     -34.486  -4.020 -11.767  0.00  0.00     0.147 C 
HETATM   10  C           1     -33.398  -4.052 -12.832  0.00  0.00     0.042 C 
BRANCH   9  11
HETATM   11  O           1     -33.928  -4.319 -10.517  0.00  0.00    -0.393 OA
HETATM   12  H           1     -33.055  -4.635 -10.675  0.00  0.00     0.210 HD
ENDBRANCH   9  11
ENDBRANCH   5   9
ENDBRANCH   2   5
BRANCH   4  13
HETATM   13  C           1     -35.513  -0.434 -14.837  0.00  0.00     0.278 C 
BRANCH  13  14
HETATM   14  C           1     -35.636   1.069 -14.622  0.00  0.00     0.017 C 
HETATM   15  C           1     -34.438   1.568 -13.825  0.00  0.00     0.012 C 
HETATM   16  C           1     -35.674   1.773 -15.972  0.00  0.00     0.012 C 
ENDBRANCH  13  14
BRANCH  13  17
HETATM   17  N           1     -36.498  -0.871 -15.879  0.00  0.00    -0.066 N 
HETATM   18  H           1     -36.009  -1.450 -16.599  0.00  0.00     0.275 HD
HETATM   19  H           1     -37.254  -1.436 -15.430  0.00  0.00     0.275 HD
HETATM   20  H           1     -36.918  -0.030 -16.337  0.00  0.00     0.275 HD
ENDBRANCH  13  17
ENDBRANCH   4  13
TORSDOF 7
ENDMDL
