MODEL 1
REMARK VINA RESULT:      -6.0      0.000      0.000
REMARK  8 active torsions:
REMARK  status: ('A' for Active; 'I' for Inactive)
REMARK    1  A    between atoms: C_1  and  C_17 
REMARK    2  A    between atoms: C_1  and  C_2 
REMARK    3  A    between atoms: N_8  and  C_17 
REMARK       I    between atoms: N_8  and  C_9 
REMARK    4  A    between atoms: C_9  and  C_18 
REMARK    5  A    between atoms: C_15  and  C_17 
REMARK    6  A    between atoms: C_18  and  C_19 
REMARK    7  A    between atoms: C_18  and  N_20 
REMARK    8  A    between atoms: C_19  and  S_23 
ROOT
HETATM    1  N           1     -37.157  -1.137  -9.963  0.00  0.00    -0.344 N 
HETATM    2  C           1     -37.244   0.153  -9.512  0.00  0.00     0.249 C 
HETATM    3  O           1     -37.623   1.028 -10.253  0.00  0.00    -0.271 OA
HETATM    4  H           1     -37.952  -1.757  -9.875  0.00  0.00     0.163 HD
ENDROOT
BRANCH   1   5
HETATM    5  C           1     -35.928  -1.614 -10.568  0.00  0.00     0.191 C 
BRANCH   5   6
HETATM    6  C           1     -35.997  -3.127 -10.727  0.00  0.00     0.094 C 
BRANCH   6   7
HETATM    7  C           1     -34.719  -3.623 -11.328  0.00  0.00     0.028 A 
HETATM    8  C           1     -34.636  -4.588 -12.304  0.00  0.00     0.114 A 
HETATM    9  N           1     -33.299  -4.728 -12.552  0.00  0.00    -0.360 N 
HETATM   10  C           1     -32.637  -3.859 -11.732  0.00  0.00     0.180 A 
HETATM   11  H           1     -32.861  -5.382 -13.246  0.00  0.00     0.166 HD
HETATM   12  N           1     -33.469  -3.177 -10.981  0.00  0.00    -0.354 N 
ATOM     13  HN          1     -33.236  -2.467 -10.287  1.00  0.00     0.166 HD
ENDBRANCH   6   7
ENDBRANCH   5   6
BRANCH   5  14
HETATM   14  C           1     -35.754  -0.972 -11.922  0.00  0.00     0.197 C 
HETATM   15  O           1     -34.747  -0.270 -12.157  0.00  0.00    -0.646 OA
HETATM   16  O           1     -36.618  -1.142 -12.810  0.00  0.00    -0.646 OA
ENDBRANCH   5  14
ENDBRANCH   1   5
BRANCH   2  17
HETATM   17  C           1     -36.861   0.482  -8.090  0.00  0.00     0.283 C 
BRANCH  17  18
HETATM   18  C           1     -37.851  -0.171  -7.134  0.00  0.00     0.113 C 
BRANCH  18  19
HETATM   19  S           1     -37.613   0.499  -5.464  0.00  0.00    -0.180 SA
HETATM   20  H           1     -38.804   0.101  -4.983  0.00  0.00     0.101 HD
ENDBRANCH  18  19
ENDBRANCH  17  18
BRANCH  17  21
HETATM   21  N           1     -36.886   1.968  -7.897  0.00  0.00    -0.066 N 
HETATM   22  H           1     -37.227   2.428  -8.772  0.00  0.00     0.275 HD
HETATM   23  H           1     -37.526   2.206  -7.107  0.00  0.00     0.275 HD
HETATM   24  H           1     -35.921   2.308  -7.680  0.00  0.00     0.275 HD
ENDBRANCH  17  21
ENDBRANCH   2  17
TORSDOF 8
ENDMDL
MODEL 2
REMARK VINA RESULT:      -5.8      2.592      3.481
REMARK  8 active torsions:
REMARK  status: ('A' for Active; 'I' for Inactive)
REMARK    1  A    between atoms: C_1  and  C_17 
REMARK    2  A    between atoms: C_1  and  C_2 
REMARK    3  A    between atoms: N_8  and  C_17 
REMARK       I    between atoms: N_8  and  C_9 
REMARK    4  A    between atoms: C_9  and  C_18 
REMARK    5  A    between atoms: C_15  and  C_17 
REMARK    6  A    between atoms: C_18  and  C_19 
REMARK    7  A    between atoms: C_18  and  N_20 
REMARK    8  A    between atoms: C_19  and  S_23 
ROOT
HETATM    1  N           1     -36.295  -2.113 -10.691  0.00  0.00    -0.344 N 
HETATM    2  C           1     -37.041  -1.046 -10.265  0.00  0.00     0.249 C 
HETATM    3  O           1     -38.074  -0.768 -10.827  0.00  0.00    -0.271 OA
HETATM    4  H           1     -36.458  -3.031 -10.300  0.00  0.00     0.163 HD
ENDROOT
BRANCH   1   5
HETATM    5  C           1     -35.273  -1.925 -11.703  0.00  0.00     0.191 C 
BRANCH   5   6
HETATM    6  C           1     -35.301  -0.482 -12.190  0.00  0.00     0.094 C 
BRANCH   6   7
HETATM    7  C           1     -35.734  -0.448 -13.622  0.00  0.00     0.028 A 
HETATM    8  C           1     -36.963  -0.012 -14.058  0.00  0.00     0.114 A 
HETATM    9  N           1     -36.927  -0.152 -15.417  0.00  0.00    -0.360 N 
HETATM   10  C           1     -35.701  -0.657 -15.745  0.00  0.00     0.180 A 
HETATM   11  H           1     -37.700   0.086 -16.087  0.00  0.00     0.166 HD
HETATM   12  N           1     -34.958  -0.845 -14.681  0.00  0.00    -0.354 N 
ATOM     13  HN          1     -34.006  -1.210 -14.648  1.00  0.00     0.166 HD
ENDBRANCH   6   7
ENDBRANCH   5   6
BRANCH   5  14
HETATM   14  C           1     -33.920  -2.231 -11.111  0.00  0.00     0.197 C 
HETATM   15  O           1     -33.193  -3.105 -11.629  0.00  0.00    -0.646 OA
HETATM   16  O           1     -33.525  -1.609 -10.099  0.00  0.00    -0.646 OA
ENDBRANCH   5  14
ENDBRANCH   1   5
BRANCH   2  17
HETATM   17  C           1     -36.570  -0.215  -9.097  0.00  0.00     0.283 C 
BRANCH  17  18
HETATM   18  C           1     -37.575  -0.326  -7.957  0.00  0.00     0.113 C 
BRANCH  18  19
HETATM   19  S           1     -37.317   1.036  -6.786  0.00  0.00    -0.180 SA
HETATM   20  H           1     -37.563   2.024  -7.665  0.00  0.00     0.101 HD
ENDBRANCH  18  19
ENDBRANCH  17  18
BRANCH  17  21
HETATM   21  N           1     -36.449   1.218  -9.519  0.00  0.00    -0.066 N 
HETATM   22  H           1     -37.211   1.447 -10.198  0.00  0.00     0.275 HD
HETATM   23  H           1     -36.533   1.837  -8.681  0.00  0.00     0.275 HD
HETATM   24  H           1     -35.520   1.370  -9.974  0.00  0.00     0.275 HD
ENDBRANCH  17  21
ENDBRANCH   2  17
TORSDOF 8
ENDMDL
MODEL 3
REMARK VINA RESULT:      -5.7      3.280      5.302
REMARK  8 active torsions:
REMARK  status: ('A' for Active; 'I' for Inactive)
REMARK    1  A    between atoms: C_1  and  C_17 
REMARK    2  A    between atoms: C_1  and  C_2 
REMARK    3  A    between atoms: N_8  and  C_17 
REMARK       I    between atoms: N_8  and  C_9 
REMARK    4  A    between atoms: C_9  and  C_18 
REMARK    5  A    between atoms: C_15  and  C_17 
REMARK    6  A    between atoms: C_18  and  C_19 
REMARK    7  A    between atoms: C_18  and  N_20 
REMARK    8  A    between atoms: C_19  and  S_23 
ROOT
HETATM    1  N           1     -35.748  -1.632 -10.488  0.00  0.00    -0.344 N 
HETATM    2  C           1     -34.474  -2.096 -10.674  0.00  0.00     0.249 C 
HETATM    3  O           1     -33.594  -1.769  -9.913  0.00  0.00    -0.271 OA
HETATM    4  H           1     -36.398  -2.154  -9.915  0.00  0.00     0.163 HD
ENDROOT
BRANCH   1   5
HETATM    5  C           1     -36.166  -0.391 -11.113  0.00  0.00     0.191 C 
BRANCH   5   6
HETATM    6  C           1     -37.084  -0.700 -12.288  0.00  0.00     0.094 C 
BRANCH   6   7
HETATM    7  C           1     -36.554  -0.040 -13.522  0.00  0.00     0.028 A 
HETATM    8  C           1     -37.243   0.075 -14.706  0.00  0.00     0.114 A 
HETATM    9  N           1     -36.394   0.736 -15.548  0.00  0.00    -0.360 N 
HETATM   10  C           1     -35.245   0.992 -14.855  0.00  0.00     0.180 A 
HETATM   11  H           1     -36.588   1.001 -16.545  0.00  0.00     0.166 HD
HETATM   12  N           1     -35.313   0.534 -13.626  0.00  0.00    -0.354 N 
ATOM     13  HN          1     -34.595   0.594 -12.904  1.00  0.00     0.166 HD
ENDBRANCH   6   7
ENDBRANCH   5   6
BRANCH   5  14
HETATM   14  C           1     -36.906   0.453 -10.104  0.00  0.00     0.197 C 
HETATM   15  O           1     -38.073   0.831 -10.341  0.00  0.00    -0.646 OA
HETATM   16  O           1     -36.350   0.776  -9.031  0.00  0.00    -0.646 OA
ENDBRANCH   5  14
ENDBRANCH   1   5
BRANCH   2  17
HETATM   17  C           1     -34.167  -3.016 -11.831  0.00  0.00     0.283 C 
BRANCH  17  18
HETATM   18  C           1     -35.076  -4.236 -11.765  0.00  0.00     0.113 C 
BRANCH  18  19
HETATM   19  S           1     -34.252  -5.556 -10.832  0.00  0.00    -0.180 SA
HETATM   20  H           1     -35.332  -5.915 -10.115  0.00  0.00     0.101 HD
ENDBRANCH  18  19
ENDBRANCH  17  18
BRANCH  17  21
HETATM   21  N           1     -32.735  -3.454 -11.754  0.00  0.00    -0.066 N 
HETATM   22  H           1     -32.620  -4.362 -12.262  0.00  0.00     0.275 HD
HETATM   23  H           1     -32.125  -2.730 -12.195  0.00  0.00     0.275 HD
HETATM   24  H           1     -32.462  -3.579 -10.753  0.00  0.00     0.275 HD
ENDBRANCH  17  21
ENDBRANCH   2  17
TORSDOF 8
ENDMDL
MODEL 4
REMARK VINA RESULT:      -5.7     12.213     14.182
REMARK  8 active torsions:
REMARK  status: ('A' for Active; 'I' for Inactive)
REMARK    1  A    between atoms: C_1  and  C_17 
REMARK    2  A    between atoms: C_1  and  C_2 
REMARK    3  A    between atoms: N_8  and  C_17 
REMARK       I    between atoms: N_8  and  C_9 
REMARK    4  A    between atoms: C_9  and  C_18 
REMARK    5  A    between atoms: C_15  and  C_17 
REMARK    6  A    between atoms: C_18  and  C_19 
REMARK    7  A    between atoms: C_18  and  N_20 
REMARK    8  A    between atoms: C_19  and  S_23 
ROOT
HETATM    1  N           1     -22.942  -4.166  -7.885  0.00  0.00    -0.344 N 
HETATM    2  C           1     -21.667  -4.128  -7.386  0.00  0.00     0.249 C 
HETATM    3  O           1     -21.272  -3.141  -6.812  0.00  0.00    -0.271 OA
HETATM    4  H           1     -23.700  -4.508  -7.309  0.00  0.00     0.163 HD
ENDROOT
BRANCH   1   5
HETATM    5  C           1     -23.205  -3.714  -9.238  0.00  0.00     0.191 C 
BRANCH   5   6
HETATM    6  C           1     -22.501  -4.637 -10.225  0.00  0.00     0.094 C 
BRANCH   6   7
HETATM    7  C           1     -22.695  -4.120 -11.616  0.00  0.00     0.028 A 
HETATM    8  C           1     -21.852  -3.237 -12.247  0.00  0.00     0.114 A 
HETATM    9  N           1     -22.403  -3.042 -13.483  0.00  0.00    -0.360 N 
HETATM   10  C           1     -23.537  -3.800 -13.550  0.00  0.00     0.180 A 
HETATM   11  H           1     -22.025  -2.423 -14.241  0.00  0.00     0.166 HD
HETATM   12  N           1     -23.740  -4.464 -12.436  0.00  0.00    -0.354 N 
ATOM     13  HN          1     -24.509  -5.099 -12.226  1.00  0.00     0.166 HD
ENDBRANCH   6   7
ENDBRANCH   5   6
BRANCH   5  14
HETATM   14  C           1     -24.691  -3.742  -9.495  0.00  0.00     0.197 C 
HETATM   15  O           1     -25.344  -2.676  -9.505  0.00  0.00    -0.646 OA
HETATM   16  O           1     -25.271  -4.831  -9.697  0.00  0.00    -0.646 OA
ENDBRANCH   5  14
ENDBRANCH   1   5
BRANCH   2  17
HETATM   17  C           1     -20.755  -5.318  -7.557  0.00  0.00     0.283 C 
BRANCH  17  18
HETATM   18  C           1     -20.302  -5.811  -6.188  0.00  0.00     0.113 C 
BRANCH  18  19
HETATM   19  S           1     -21.732  -6.453  -5.272  0.00  0.00    -0.180 SA
HETATM   20  H           1     -21.071  -6.679  -4.123  0.00  0.00     0.101 HD
ENDBRANCH  18  19
ENDBRANCH  17  18
BRANCH  17  21
HETATM   21  N           1     -19.557  -4.917  -8.365  0.00  0.00    -0.066 N 
HETATM   22  H           1     -19.532  -5.474  -9.250  0.00  0.00     0.275 HD
HETATM   23  H           1     -19.617  -3.900  -8.595  0.00  0.00     0.275 HD
HETATM   24  H           1     -18.688  -5.101  -7.814  0.00  0.00     0.275 HD
ENDBRANCH  17  21
ENDBRANCH   2  17
TORSDOF 8
ENDMDL
MODEL 5
REMARK VINA RESULT:      -5.5      3.813      4.692
REMARK  8 active torsions:
REMARK  status: ('A' for Active; 'I' for Inactive)
REMARK    1  A    between atoms: C_1  and  C_17 
REMARK    2  A    between atoms: C_1  and  C_2 
REMARK    3  A    between atoms: N_8  and  C_17 
REMARK       I    between atoms: N_8  and  C_9 
REMARK    4  A    between atoms: C_9  and  C_18 
REMARK    5  A    between atoms: C_15  and  C_17 
REMARK    6  A    between atoms: C_18  and  C_19 
REMARK    7  A    between atoms: C_18  and  N_20 
REMARK    8  A    between atoms: C_19  and  S_23 
ROOT
HETATM    1  N           1     -34.527  -1.222 -12.534  0.00  0.00    -0.344 N 
HETATM    2  C           1     -35.135  -0.071 -12.958  0.00  0.00     0.249 C 
HETATM    3  O           1     -35.029   0.943 -12.310  0.00  0.00    -0.271 OA
HETATM    4  H           1     -33.583  -1.434 -12.830  0.00  0.00     0.163 HD
ENDROOT
BRANCH   1   5
HETATM    5  C           1     -35.236  -2.137 -11.660  0.00  0.00     0.191 C 
BRANCH   5   6
HETATM    6  C           1     -34.231  -2.921 -10.826  0.00  0.00     0.094 C 
BRANCH   6   7
HETATM    7  C           1     -34.378  -4.383 -11.112  0.00  0.00     0.028 A 
HETATM    8  C           1     -34.777  -4.907 -12.318  0.00  0.00     0.114 A 
HETATM    9  N           1     -34.772  -6.262 -12.135  0.00  0.00    -0.360 N 
HETATM   10  C           1     -34.377  -6.500 -10.849  0.00  0.00     0.180 A 
HETATM   11  H           1     -35.025  -6.987 -12.851  0.00  0.00     0.166 HD
HETATM   12  N           1     -34.131  -5.383 -10.207  0.00  0.00    -0.354 N 
ATOM     13  HN          1     -33.822  -5.280  -9.240  1.00  0.00     0.166 HD
ENDBRANCH   6   7
ENDBRANCH   5   6
BRANCH   5  14
HETATM   14  C           1     -36.146  -1.354 -10.747  0.00  0.00     0.197 C 
HETATM   15  O           1     -35.686  -0.816  -9.716  0.00  0.00    -0.646 OA
HETATM   16  O           1     -37.362  -1.243 -11.020  0.00  0.00    -0.646 OA
ENDBRANCH   5  14
ENDBRANCH   1   5
BRANCH   2  17
HETATM   17  C           1     -35.940  -0.069 -14.235  0.00  0.00     0.283 C 
BRANCH  17  18
HETATM   18  C           1     -35.390  -1.126 -15.184  0.00  0.00     0.113 C 
BRANCH  18  19
HETATM   19  S           1     -36.219  -0.986 -16.793  0.00  0.00    -0.180 SA
HETATM   20  H           1     -36.622  -2.267 -16.854  0.00  0.00     0.101 HD
ENDBRANCH  18  19
ENDBRANCH  17  18
BRANCH  17  21
HETATM   21  N           1     -35.848   1.280 -14.881  0.00  0.00    -0.066 N 
HETATM   22  H           1     -36.736   1.808 -14.716  0.00  0.00     0.275 HD
HETATM   23  H           1     -35.047   1.810 -14.470  0.00  0.00     0.275 HD
HETATM   24  H           1     -35.699   1.164 -15.910  0.00  0.00     0.275 HD
ENDBRANCH  17  21
ENDBRANCH   2  17
TORSDOF 8
ENDMDL
MODEL 6
REMARK VINA RESULT:      -5.5      3.382      4.851
REMARK  8 active torsions:
REMARK  status: ('A' for Active; 'I' for Inactive)
REMARK    1  A    between atoms: C_1  and  C_17 
REMARK    2  A    between atoms: C_1  and  C_2 
REMARK    3  A    between atoms: N_8  and  C_17 
REMARK       I    between atoms: N_8  and  C_9 
REMARK    4  A    between atoms: C_9  and  C_18 
REMARK    5  A    between atoms: C_15  and  C_17 
REMARK    6  A    between atoms: C_18  and  C_19 
REMARK    7  A    between atoms: C_18  and  N_20 
REMARK    8  A    between atoms: C_19  and  S_23 
ROOT
HETATM    1  N           1     -36.581   0.020 -11.811  0.00  0.00    -0.344 N 
HETATM    2  C           1     -36.650  -0.361 -13.125  0.00  0.00     0.249 C 
HETATM    3  O           1     -37.706  -0.709 -13.599  0.00  0.00    -0.271 OA
HETATM    4  H           1     -36.723   0.989 -11.558  0.00  0.00     0.163 HD
ENDROOT
BRANCH   1   5
HETATM    5  C           1     -36.304  -0.965 -10.784  0.00  0.00     0.191 C 
BRANCH   5   6
HETATM    6  C           1     -34.807  -1.242 -10.738  0.00  0.00     0.094 C 
BRANCH   6   7
HETATM    7  C           1     -34.567  -2.712 -10.889  0.00  0.00     0.028 A 
HETATM    8  C           1     -33.327  -3.292 -11.022  0.00  0.00     0.114 A 
HETATM    9  N           1     -33.574  -4.632 -11.130  0.00  0.00    -0.360 N 
HETATM   10  C           1     -34.926  -4.808 -11.060  0.00  0.00     0.180 A 
HETATM   11  H           1     -32.855  -5.389 -11.245  0.00  0.00     0.166 HD
HETATM   12  N           1     -35.553  -3.664 -10.913  0.00  0.00    -0.354 N 
ATOM     13  HN          1     -36.559  -3.516 -10.834  1.00  0.00     0.166 HD
ENDBRANCH   6   7
ENDBRANCH   5   6
BRANCH   5  14
HETATM   14  C           1     -36.759  -0.436  -9.446  0.00  0.00     0.197 C 
HETATM   15  O           1     -37.980  -0.339  -9.194  0.00  0.00    -0.646 OA
HETATM   16  O           1     -35.915  -0.093  -8.589  0.00  0.00    -0.646 OA
ENDBRANCH   5  14
ENDBRANCH   1   5
BRANCH   2  17
HETATM   17  C           1     -35.407  -0.350 -13.980  0.00  0.00     0.283 C 
BRANCH  17  18
HETATM   18  C           1     -35.718   0.304 -15.320  0.00  0.00     0.113 C 
BRANCH  18  19
HETATM   19  S           1     -35.850  -0.974 -16.602  0.00  0.00    -0.180 SA
HETATM   20  H           1     -36.976  -1.534 -16.125  0.00  0.00     0.101 HD
ENDBRANCH  18  19
ENDBRANCH  17  18
BRANCH  17  21
HETATM   21  N           1     -34.943  -1.757 -14.207  0.00  0.00    -0.066 N 
HETATM   22  H           1     -34.648  -2.178 -13.296  0.00  0.00     0.275 HD
HETATM   23  H           1     -35.724  -2.320 -14.613  0.00  0.00     0.275 HD
HETATM   24  H           1     -34.133  -1.756 -14.868  0.00  0.00     0.275 HD
ENDBRANCH  17  21
ENDBRANCH   2  17
TORSDOF 8
ENDMDL
MODEL 7
REMARK VINA RESULT:      -5.4     13.560     15.740
REMARK  8 active torsions:
REMARK  status: ('A' for Active; 'I' for Inactive)
REMARK    1  A    between atoms: C_1  and  C_17 
REMARK    2  A    between atoms: C_1  and  C_2 
REMARK    3  A    between atoms: N_8  and  C_17 
REMARK       I    between atoms: N_8  and  C_9 
REMARK    4  A    between atoms: C_9  and  C_18 
REMARK    5  A    between atoms: C_15  and  C_17 
REMARK    6  A    between atoms: C_18  and  C_19 
REMARK    7  A    between atoms: C_18  and  N_20 
REMARK    8  A    between atoms: C_19  and  S_23 
ROOT
HETATM    1  N           1     -21.847  -6.888  -6.210  0.00  0.00    -0.344 N 
HETATM    2  C           1     -22.351  -6.423  -5.025  0.00  0.00     0.249 C 
HETATM    3  O           1     -23.510  -6.091  -4.950  0.00  0.00    -0.271 OA
HETATM    4  H           1     -21.879  -7.878  -6.419  0.00  0.00     0.163 HD
ENDROOT
BRANCH   1   5
HETATM    5  C           1     -21.267  -5.963  -7.164  0.00  0.00     0.191 C 
BRANCH   5   6
HETATM    6  C           1     -21.855  -4.575  -6.945  0.00  0.00     0.094 C 
BRANCH   6   7
HETATM    7  C           1     -22.609  -4.154  -8.168  0.00  0.00     0.028 A 
HETATM    8  C           1     -22.040  -3.931  -9.399  0.00  0.00     0.114 A 
HETATM    9  N           1     -23.080  -3.570 -10.210  0.00  0.00    -0.360 N 
HETATM   10  C           1     -24.216  -3.588  -9.452  0.00  0.00     0.180 A 
HETATM   11  H           1     -23.017  -3.324 -11.228  0.00  0.00     0.166 HD
HETATM   12  N           1     -23.962  -3.938  -8.213  0.00  0.00    -0.354 N 
ATOM     13  HN          1     -24.630  -4.031  -7.448  1.00  0.00     0.166 HD
ENDBRANCH   6   7
ENDBRANCH   5   6
BRANCH   5  14
HETATM   14  C           1     -19.772  -5.913  -6.970  0.00  0.00     0.197 C 
HETATM   15  O           1     -19.172  -4.818  -7.012  0.00  0.00    -0.646 OA
HETATM   16  O           1     -19.132  -6.969  -6.767  0.00  0.00    -0.646 OA
ENDBRANCH   5  14
ENDBRANCH   1   5
BRANCH   2  17
HETATM   17  C           1     -21.458  -6.322  -3.812  0.00  0.00     0.283 C 
BRANCH  17  18
HETATM   18  C           1     -20.757  -7.655  -3.585  0.00  0.00     0.113 C 
BRANCH  18  19
HETATM   19  S           1     -21.268  -8.343  -1.985  0.00  0.00    -0.180 SA
HETATM   20  H           1     -20.320  -9.296  -1.934  0.00  0.00     0.101 HD
ENDBRANCH  18  19
ENDBRANCH  17  18
BRANCH  17  21
HETATM   21  N           1     -22.285  -5.980  -2.610  0.00  0.00    -0.066 N 
HETATM   22  H           1     -22.971  -5.231  -2.859  0.00  0.00     0.275 HD
HETATM   23  H           1     -22.801  -6.830  -2.288  0.00  0.00     0.275 HD
HETATM   24  H           1     -21.661  -5.640  -1.843  0.00  0.00     0.275 HD
ENDBRANCH  17  21
ENDBRANCH   2  17
TORSDOF 8
ENDMDL
MODEL 8
REMARK VINA RESULT:      -5.4     14.108     15.480
REMARK  8 active torsions:
REMARK  status: ('A' for Active; 'I' for Inactive)
REMARK    1  A    between atoms: C_1  and  C_17 
REMARK    2  A    between atoms: C_1  and  C_2 
REMARK    3  A    between atoms: N_8  and  C_17 
REMARK       I    between atoms: N_8  and  C_9 
REMARK    4  A    between atoms: C_9  and  C_18 
REMARK    5  A    between atoms: C_15  and  C_17 
REMARK    6  A    between atoms: C_18  and  C_19 
REMARK    7  A    between atoms: C_18  and  N_20 
REMARK    8  A    between atoms: C_19  and  S_23 
ROOT
HETATM    1  N           1     -22.192  -4.864  -6.296  0.00  0.00    -0.344 N 
HETATM    2  C           1     -21.378  -5.528  -5.417  0.00  0.00     0.249 C 
HETATM    3  O           1     -20.387  -4.988  -4.986  0.00  0.00    -0.271 OA
HETATM    4  H           1     -22.959  -4.303  -5.948  0.00  0.00     0.163 HD
ENDROOT
BRANCH   1   5
HETATM    5  C           1     -21.956  -4.966  -7.723  0.00  0.00     0.191 C 
BRANCH   5   6
HETATM    6  C           1     -22.626  -3.796  -8.431  0.00  0.00     0.094 C 
BRANCH   6   7
HETATM    7  C           1     -22.610  -4.033  -9.909  0.00  0.00     0.028 A 
HETATM    8  C           1     -23.494  -4.845 -10.580  0.00  0.00     0.114 A 
HETATM    9  N           1     -23.118  -4.769 -11.893  0.00  0.00    -0.360 N 
HETATM   10  C           1     -22.043  -3.930 -11.963  0.00  0.00     0.180 A 
HETATM   11  H           1     -23.572  -5.264 -12.699  0.00  0.00     0.166 HD
HETATM   12  N           1     -21.713  -3.469 -10.780  0.00  0.00    -0.354 N 
ATOM     13  HN          1     -20.953  -2.827 -10.555  1.00  0.00     0.166 HD
ENDBRANCH   6   7
ENDBRANCH   5   6
BRANCH   5  14
HETATM   14  C           1     -20.472  -4.933  -7.989  0.00  0.00     0.197 C 
HETATM   15  O           1     -19.833  -6.001  -8.105  0.00  0.00    -0.646 OA
HETATM   16  O           1     -19.879  -3.836  -8.091  0.00  0.00    -0.646 OA
ENDBRANCH   5  14
ENDBRANCH   1   5
BRANCH   2  17
HETATM   17  C           1     -21.716  -6.935  -4.990  0.00  0.00     0.283 C 
BRANCH  17  18
HETATM   18  C           1     -21.081  -7.221  -3.635  0.00  0.00     0.113 C 
BRANCH  18  19
HETATM   19  S           1     -22.030  -6.384  -2.333  0.00  0.00    -0.180 SA
HETATM   20  H           1     -23.242  -6.640  -2.857  0.00  0.00     0.101 HD
ENDBRANCH  18  19
ENDBRANCH  17  18
BRANCH  17  21
HETATM   21  N           1     -21.189  -7.906  -6.004  0.00  0.00    -0.066 N 
HETATM   22  H           1     -21.449  -8.879  -5.724  0.00  0.00     0.275 HD
HETATM   23  H           1     -21.602  -7.691  -6.939  0.00  0.00     0.275 HD
HETATM   24  H           1     -20.148  -7.825  -6.055  0.00  0.00     0.275 HD
ENDBRANCH  17  21
ENDBRANCH   2  17
TORSDOF 8
ENDMDL
MODEL 9
REMARK VINA RESULT:      -5.4     13.639     15.113
REMARK  8 active torsions:
REMARK  status: ('A' for Active; 'I' for Inactive)
REMARK    1  A    between atoms: C_1  and  C_17 
REMARK    2  A    between atoms: C_1  and  C_2 
REMARK    3  A    between atoms: N_8  and  C_17 
REMARK       I    between atoms: N_8  and  C_9 
REMARK    4  A    between atoms: C_9  and  C_18 
REMARK    5  A    between atoms: C_15  and  C_17 
REMARK    6  A    between atoms: C_18  and  C_19 
REMARK    7  A    between atoms: C_18  and  N_20 
REMARK    8  A    between atoms: C_19  and  S_23 
ROOT
HETATM    1  N           1     -21.135  -3.867  -8.069  0.00  0.00    -0.344 N 
HETATM    2  C           1     -20.474  -4.799  -7.314  0.00  0.00     0.249 C 
HETATM    3  O           1     -19.277  -4.925  -7.421  0.00  0.00    -0.271 OA
HETATM    4  H           1     -21.261  -2.928  -7.716  0.00  0.00     0.163 HD
ENDROOT
BRANCH   1   5
HETATM    5  C           1     -21.654  -4.227  -9.375  0.00  0.00     0.191 C 
BRANCH   5   6
HETATM    6  C           1     -22.878  -3.374  -9.686  0.00  0.00     0.094 C 
BRANCH   6   7
HETATM    7  C           1     -23.258  -3.553 -11.122  0.00  0.00     0.028 A 
HETATM    8  C           1     -23.589  -4.756 -11.700  0.00  0.00     0.114 A 
HETATM    9  N           1     -23.862  -4.459 -13.006  0.00  0.00    -0.360 N 
HETATM   10  C           1     -23.689  -3.113 -13.165  0.00  0.00     0.180 A 
HETATM   11  H           1     -24.152  -5.139 -13.751  0.00  0.00     0.166 HD
HETATM   12  N           1     -23.324  -2.539 -12.043  0.00  0.00    -0.354 N 
ATOM     13  HN          1     -23.132  -1.549 -11.889  1.00  0.00     0.166 HD
ENDBRANCH   6   7
ENDBRANCH   5   6
BRANCH   5  14
HETATM   14  C           1     -20.593  -3.985 -10.420  0.00  0.00     0.197 C 
HETATM   15  O           1     -19.845  -4.920 -10.780  0.00  0.00    -0.646 OA
HETATM   16  O           1     -20.461  -2.849 -10.925  0.00  0.00    -0.646 OA
ENDBRANCH   5  14
ENDBRANCH   1   5
BRANCH   2  17
HETATM   17  C           1     -21.241  -5.671  -6.350  0.00  0.00     0.283 C 
BRANCH  17  18
HETATM   18  C           1     -20.792  -5.371  -4.926  0.00  0.00     0.113 C 
BRANCH  18  19
HETATM   19  S           1     -21.571  -6.548  -3.785  0.00  0.00    -0.180 SA
HETATM   20  H           1     -21.385  -7.634  -4.555  0.00  0.00     0.101 HD
ENDBRANCH  18  19
ENDBRANCH  17  18
BRANCH  17  21
HETATM   21  N           1     -20.978  -7.113  -6.664  0.00  0.00    -0.066 N 
HETATM   22  H           1     -21.598  -7.717  -6.076  0.00  0.00     0.275 HD
HETATM   23  H           1     -21.176  -7.292  -7.674  0.00  0.00     0.275 HD
HETATM   24  H           1     -19.978  -7.338  -6.459  0.00  0.00     0.275 HD
ENDBRANCH  17  21
ENDBRANCH   2  17
TORSDOF 8
ENDMDL
