MODEL 1
REMARK VINA RESULT:      -6.5      0.000      0.000
REMARK  11 active torsions:
REMARK  status: ('A' for Active; 'I' for Inactive)
REMARK    1  A    between atoms: N_4  and  C_9 
REMARK    2  A    between atoms: N_7  and  C_16 
REMARK       I    between atoms: N_7  and  C_8 
REMARK    3  A    between atoms: C_8  and  C_9 
REMARK    4  A    between atoms: C_9  and  C_10 
REMARK    5  A    between atoms: C_10  and  C_11 
REMARK    6  A    between atoms: C_11  and  C_12 
REMARK    7  A    between atoms: C_14  and  C_15 
REMARK    8  A    between atoms: C_14  and  C_16 
REMARK    9  A    between atoms: C_15  and  C_24 
REMARK   10  A    between atoms: C_16  and  C_23 
REMARK   11  A    between atoms: C_24  and  N_25 
ROOT
HETATM    1  H           1     -21.994  -5.840  -9.506  0.00  0.00     0.163 HD
HETATM    2  O           1     -21.880  -3.688  -7.226  0.00  0.00    -0.271 OA
HETATM    3  N           1     -22.100  -4.935  -9.065  0.00  0.00    -0.345 N 
HETATM    4  C           1     -21.753  -4.768  -7.752  0.00  0.00     0.249 C 
ENDROOT
BRANCH   3   5
HETATM    5  C           1     -22.622  -3.816  -9.825  0.00  0.00     0.185 C 
BRANCH   5   6
HETATM    6  C           1     -22.164  -3.929 -11.274  0.00  0.00     0.038 C 
BRANCH   6   7
HETATM    7  C           1     -22.513  -2.647 -12.019  0.00  0.00     0.030 C 
BRANCH   7   8
HETATM    8  C           1     -23.369  -2.982 -13.233  0.00  0.00     0.230 C 
BRANCH   8   9
HETATM    9  N           1     -22.505  -3.020 -14.459  0.00  0.00    -0.079 N 
HETATM   10  H           1     -22.499  -3.988 -14.851  0.00  0.00     0.274 HD
HETATM   11  H           1     -21.531  -2.738 -14.207  0.00  0.00     0.274 HD
HETATM   12  H           1     -22.884  -2.358 -15.173  0.00  0.00     0.274 HD
ENDBRANCH   8   9
ENDBRANCH   7   8
ENDBRANCH   6   7
ENDBRANCH   5   6
BRANCH   5  13
HETATM   13  C           1     -24.130  -3.832  -9.772  0.00  0.00     0.196 C 
HETATM   14  O           1     -24.754  -4.882 -10.038  0.00  0.00    -0.646 OA
HETATM   15  O           1     -24.756  -2.795  -9.461  0.00  0.00    -0.646 OA
ENDBRANCH   5  13
ENDBRANCH   3   5
BRANCH   4  16
HETATM   16  C           1     -21.210  -5.933  -6.961  0.00  0.00     0.275 C 
BRANCH  16  17
HETATM   17  N           1     -19.799  -6.214  -7.390  0.00  0.00    -0.066 N 
HETATM   18  H           1     -19.784  -6.432  -8.412  0.00  0.00     0.275 HD
HETATM   19  H           1     -19.205  -5.375  -7.203  0.00  0.00     0.275 HD
HETATM   20  H           1     -19.428  -7.030  -6.854  0.00  0.00     0.275 HD
ENDBRANCH  16  17
BRANCH  16  21
HETATM   21  C           1     -21.230  -5.593  -5.477  0.00  0.00     0.053 C 
BRANCH  21  22
HETATM   22  C           1     -22.099  -6.601  -4.737  0.00  0.00     0.115 C 
BRANCH  22  23
HETATM   23  C           1     -21.758  -6.577  -3.266  0.00  0.00     0.172 C 
HETATM   24  O           1     -20.845  -7.307  -2.824  0.00  0.00    -0.648 OA
HETATM   25  O           1     -22.387  -5.825  -2.492  0.00  0.00    -0.648 OA
ENDBRANCH  22  23
ENDBRANCH  21  22
ENDBRANCH  16  21
ENDBRANCH   4  16
TORSDOF 11
ENDMDL
MODEL 2
REMARK VINA RESULT:      -6.4     12.727     14.780
REMARK  11 active torsions:
REMARK  status: ('A' for Active; 'I' for Inactive)
REMARK    1  A    between atoms: N_4  and  C_9 
REMARK    2  A    between atoms: N_7  and  C_16 
REMARK       I    between atoms: N_7  and  C_8 
REMARK    3  A    between atoms: C_8  and  C_9 
REMARK    4  A    between atoms: C_9  and  C_10 
REMARK    5  A    between atoms: C_10  and  C_11 
REMARK    6  A    between atoms: C_11  and  C_12 
REMARK    7  A    between atoms: C_14  and  C_15 
REMARK    8  A    between atoms: C_14  and  C_16 
REMARK    9  A    between atoms: C_15  and  C_24 
REMARK   10  A    between atoms: C_16  and  C_23 
REMARK   11  A    between atoms: C_24  and  N_25 
ROOT
HETATM    1  H           1     -36.542  -3.187 -11.814  0.00  0.00     0.163 HD
HETATM    2  O           1     -34.494  -1.558 -10.084  0.00  0.00    -0.271 OA
HETATM    3  N           1     -35.683  -2.991 -11.317  0.00  0.00    -0.345 N 
HETATM    4  C           1     -35.520  -1.792 -10.677  0.00  0.00     0.249 C 
ENDROOT
BRANCH   3   5
HETATM    5  C           1     -34.623  -3.981 -11.283  0.00  0.00     0.185 C 
BRANCH   5   6
HETATM    6  C           1     -35.097  -5.205 -10.511  0.00  0.00     0.038 C 
BRANCH   6   7
HETATM    7  C           1     -34.038  -6.297 -10.591  0.00  0.00     0.030 C 
BRANCH   7   8
HETATM    8  C           1     -34.648  -7.628 -10.171  0.00  0.00     0.230 C 
BRANCH   8   9
HETATM    9  N           1     -33.613  -8.708 -10.274  0.00  0.00    -0.079 N 
HETATM   10  H           1     -33.224  -8.909  -9.326  0.00  0.00     0.274 HD
HETATM   11  H           1     -32.844  -8.393 -10.908  0.00  0.00     0.274 HD
HETATM   12  H           1     -34.050  -9.574 -10.661  0.00  0.00     0.274 HD
ENDBRANCH   8   9
ENDBRANCH   7   8
ENDBRANCH   6   7
ENDBRANCH   5   6
BRANCH   5  13
HETATM   13  C           1     -34.266  -4.382 -12.693  0.00  0.00     0.196 C 
HETATM   14  O           1     -35.046  -5.099 -13.356  0.00  0.00    -0.646 OA
HETATM   15  O           1     -33.189  -3.997 -13.199  0.00  0.00    -0.646 OA
ENDBRANCH   5  13
ENDBRANCH   3   5
BRANCH   4  16
HETATM   16  C           1     -36.623  -0.763 -10.713  0.00  0.00     0.275 C 
BRANCH  16  17
HETATM   17  N           1     -36.257   0.393  -9.828  0.00  0.00    -0.066 N 
HETATM   18  H           1     -36.253   0.079  -8.831  0.00  0.00     0.275 HD
HETATM   19  H           1     -35.308   0.742 -10.088  0.00  0.00     0.275 HD
HETATM   20  H           1     -36.956   1.159  -9.949  0.00  0.00     0.275 HD
ENDBRANCH  16  17
BRANCH  16  21
HETATM   21  C           1     -36.811  -0.268 -12.141  0.00  0.00     0.053 C 
BRANCH  21  22
HETATM   22  C           1     -35.524   0.387 -12.625  0.00  0.00     0.115 C 
BRANCH  22  23
HETATM   23  C           1     -35.096  -0.246 -13.927  0.00  0.00     0.172 C 
HETATM   24  O           1     -34.516   0.442 -14.795  0.00  0.00    -0.648 OA
HETATM   25  O           1     -35.320  -1.457 -14.136  0.00  0.00    -0.648 OA
ENDBRANCH  22  23
ENDBRANCH  21  22
ENDBRANCH  16  21
ENDBRANCH   4  16
TORSDOF 11
ENDMDL
MODEL 3
REMARK VINA RESULT:      -6.4     12.349     13.875
REMARK  11 active torsions:
REMARK  status: ('A' for Active; 'I' for Inactive)
REMARK    1  A    between atoms: N_4  and  C_9 
REMARK    2  A    between atoms: N_7  and  C_16 
REMARK       I    between atoms: N_7  and  C_8 
REMARK    3  A    between atoms: C_8  and  C_9 
REMARK    4  A    between atoms: C_9  and  C_10 
REMARK    5  A    between atoms: C_10  and  C_11 
REMARK    6  A    between atoms: C_11  and  C_12 
REMARK    7  A    between atoms: C_14  and  C_15 
REMARK    8  A    between atoms: C_14  and  C_16 
REMARK    9  A    between atoms: C_15  and  C_24 
REMARK   10  A    between atoms: C_16  and  C_23 
REMARK   11  A    between atoms: C_24  and  N_25 
ROOT
HETATM    1  H           1     -35.594  -1.859 -13.675  0.00  0.00     0.163 HD
HETATM    2  O           1     -33.674  -2.118 -11.208  0.00  0.00    -0.271 OA
HETATM    3  N           1     -35.052  -1.560 -12.874  0.00  0.00    -0.345 N 
HETATM    4  C           1     -34.320  -2.474 -12.164  0.00  0.00     0.249 C 
ENDROOT
BRANCH   3   5
HETATM    5  C           1     -35.051  -0.165 -12.478  0.00  0.00     0.185 C 
BRANCH   5   6
HETATM    6  C           1     -35.023   0.714 -13.721  0.00  0.00     0.038 C 
BRANCH   6   7
HETATM    7  C           1     -35.357  -0.127 -14.947  0.00  0.00     0.030 C 
BRANCH   7   8
HETATM    8  C           1     -36.608   0.425 -15.616  0.00  0.00     0.230 C 
BRANCH   8   9
HETATM    9  N           1     -36.390   1.865 -15.975  0.00  0.00    -0.079 N 
HETATM   10  H           1     -36.630   2.013 -16.980  0.00  0.00     0.274 HD
HETATM   11  H           1     -35.389   2.116 -15.813  0.00  0.00     0.274 HD
HETATM   12  H           1     -37.001   2.469 -15.379  0.00  0.00     0.274 HD
ENDBRANCH   8   9
ENDBRANCH   7   8
ENDBRANCH   6   7
ENDBRANCH   5   6
BRANCH   5  13
HETATM   13  C           1     -36.297   0.130 -11.680  0.00  0.00     0.196 C 
HETATM   14  O           1     -37.424  -0.013 -12.203  0.00  0.00    -0.646 OA
HETATM   15  O           1     -36.203   0.519 -10.495  0.00  0.00    -0.646 OA
ENDBRANCH   5  13
ENDBRANCH   3   5
BRANCH   4  16
HETATM   16  C           1     -34.321  -3.925 -12.577  0.00  0.00     0.275 C 
BRANCH  16  17
HETATM   17  N           1     -33.564  -4.079 -13.864  0.00  0.00    -0.066 N 
HETATM   18  H           1     -33.702  -3.227 -14.451  0.00  0.00     0.275 HD
HETATM   19  H           1     -32.548  -4.201 -13.657  0.00  0.00     0.275 HD
HETATM   20  H           1     -33.918  -4.917 -14.377  0.00  0.00     0.275 HD
ENDBRANCH  16  17
BRANCH  16  21
HETATM   21  C           1     -33.654  -4.762 -11.493  0.00  0.00     0.053 C 
BRANCH  21  22
HETATM   22  C           1     -34.718  -5.341 -10.570  0.00  0.00     0.115 C 
BRANCH  22  23
HETATM   23  C           1     -34.391  -6.783 -10.268  0.00  0.00     0.172 C 
HETATM   24  O           1     -33.312  -7.275 -10.660  0.00  0.00    -0.648 OA
HETATM   25  O           1     -35.201  -7.484  -9.624  0.00  0.00    -0.648 OA
ENDBRANCH  22  23
ENDBRANCH  21  22
ENDBRANCH  16  21
ENDBRANCH   4  16
TORSDOF 11
ENDMDL
MODEL 4
REMARK VINA RESULT:      -6.0     12.137     14.357
REMARK  11 active torsions:
REMARK  status: ('A' for Active; 'I' for Inactive)
REMARK    1  A    between atoms: N_4  and  C_9 
REMARK    2  A    between atoms: N_7  and  C_16 
REMARK       I    between atoms: N_7  and  C_8 
REMARK    3  A    between atoms: C_8  and  C_9 
REMARK    4  A    between atoms: C_9  and  C_10 
REMARK    5  A    between atoms: C_10  and  C_11 
REMARK    6  A    between atoms: C_11  and  C_12 
REMARK    7  A    between atoms: C_14  and  C_15 
REMARK    8  A    between atoms: C_14  and  C_16 
REMARK    9  A    between atoms: C_15  and  C_24 
REMARK   10  A    between atoms: C_16  and  C_23 
REMARK   11  A    between atoms: C_24  and  N_25 
ROOT
HETATM    1  H           1     -36.128  -3.261 -11.971  0.00  0.00     0.163 HD
HETATM    2  O           1     -33.997  -1.468 -10.527  0.00  0.00    -0.271 OA
HETATM    3  N           1     -35.264  -3.031 -11.496  0.00  0.00    -0.345 N 
HETATM    4  C           1     -35.027  -1.744 -11.093  0.00  0.00     0.249 C 
ENDROOT
BRANCH   3   5
HETATM    5  C           1     -34.278  -4.063 -11.242  0.00  0.00     0.185 C 
BRANCH   5   6
HETATM    6  C           1     -34.978  -5.408 -11.098  0.00  0.00     0.038 C 
BRANCH   6   7
HETATM    7  C           1     -34.075  -6.372 -10.339  0.00  0.00     0.030 C 
BRANCH   7   8
HETATM    8  C           1     -34.744  -7.737 -10.255  0.00  0.00     0.230 C 
BRANCH   8   9
HETATM    9  N           1     -33.695  -8.809 -10.233  0.00  0.00    -0.079 N 
HETATM   10  H           1     -32.923  -8.527  -9.589  0.00  0.00     0.274 HD
HETATM   11  H           1     -33.315  -8.943 -11.197  0.00  0.00     0.274 HD
HETATM   12  H           1     -34.118  -9.704  -9.898  0.00  0.00     0.274 HD
ENDBRANCH   8   9
ENDBRANCH   7   8
ENDBRANCH   6   7
ENDBRANCH   5   6
BRANCH   5  13
HETATM   13  C           1     -33.306  -4.123 -12.395  0.00  0.00     0.196 C 
HETATM   14  O           1     -33.703  -3.901 -13.560  0.00  0.00    -0.646 OA
HETATM   15  O           1     -32.103  -4.394 -12.185  0.00  0.00    -0.646 OA
ENDBRANCH   5  13
ENDBRANCH   3   5
BRANCH   4  16
HETATM   16  C           1     -36.054  -0.670 -11.358  0.00  0.00     0.275 C 
BRANCH  16  17
HETATM   17  N           1     -36.441  -0.694 -12.808  0.00  0.00    -0.066 N 
HETATM   18  H           1     -37.261  -1.328 -12.938  0.00  0.00     0.275 HD
HETATM   19  H           1     -36.692   0.272 -13.116  0.00  0.00     0.275 HD
HETATM   20  H           1     -35.637  -1.043 -13.376  0.00  0.00     0.275 HD
ENDBRANCH  16  17
BRANCH  16  21
HETATM   21  C           1     -37.287  -0.924 -10.500  0.00  0.00     0.053 C 
BRANCH  21  22
HETATM   22  C           1     -37.593   0.316  -9.671  0.00  0.00     0.115 C 
BRANCH  22  23
HETATM   23  C           1     -37.035   0.142  -8.279  0.00  0.00     0.172 C 
HETATM   24  O           1     -35.828   0.380  -8.055  0.00  0.00    -0.648 OA
HETATM   25  O           1     -37.779  -0.239  -7.351  0.00  0.00    -0.648 OA
ENDBRANCH  22  23
ENDBRANCH  21  22
ENDBRANCH  16  21
ENDBRANCH   4  16
TORSDOF 11
ENDMDL
MODEL 5
REMARK VINA RESULT:      -6.0     12.379     14.249
REMARK  11 active torsions:
REMARK  status: ('A' for Active; 'I' for Inactive)
REMARK    1  A    between atoms: N_4  and  C_9 
REMARK    2  A    between atoms: N_7  and  C_16 
REMARK       I    between atoms: N_7  and  C_8 
REMARK    3  A    between atoms: C_8  and  C_9 
REMARK    4  A    between atoms: C_9  and  C_10 
REMARK    5  A    between atoms: C_10  and  C_11 
REMARK    6  A    between atoms: C_11  and  C_12 
REMARK    7  A    between atoms: C_14  and  C_15 
REMARK    8  A    between atoms: C_14  and  C_16 
REMARK    9  A    between atoms: C_15  and  C_24 
REMARK   10  A    between atoms: C_16  and  C_23 
REMARK   11  A    between atoms: C_24  and  N_25 
ROOT
HETATM    1  H           1     -34.504  -1.770 -13.106  0.00  0.00     0.163 HD
HETATM    2  O           1     -36.179  -3.108 -10.816  0.00  0.00    -0.271 OA
HETATM    3  N           1     -35.267  -1.894 -12.454  0.00  0.00    -0.345 N 
HETATM    4  C           1     -35.267  -2.959 -11.594  0.00  0.00     0.249 C 
ENDROOT
BRANCH   3   5
HETATM    5  C           1     -36.362  -0.943 -12.430  0.00  0.00     0.185 C 
BRANCH   5   6
HETATM    6  C           1     -36.099   0.106 -11.357  0.00  0.00     0.038 C 
BRANCH   6   7
HETATM    7  C           1     -37.307   0.202 -10.433  0.00  0.00     0.030 C 
BRANCH   7   8
HETATM    8  C           1     -36.862  -0.009  -8.993  0.00  0.00     0.230 C 
BRANCH   8   9
HETATM    9  N           1     -36.195   1.236  -8.487  0.00  0.00    -0.079 N 
HETATM   10  H           1     -36.433   2.037  -9.114  0.00  0.00     0.274 HD
HETATM   11  H           1     -35.160   1.096  -8.475  0.00  0.00     0.274 HD
HETATM   12  H           1     -36.529   1.442  -7.519  0.00  0.00     0.274 HD
ENDBRANCH   8   9
ENDBRANCH   7   8
ENDBRANCH   6   7
ENDBRANCH   5   6
BRANCH   5  13
HETATM   13  C           1     -36.472  -0.271 -13.776  0.00  0.00     0.196 C 
HETATM   14  O           1     -35.660   0.624 -14.096  0.00  0.00    -0.646 OA
HETATM   15  O           1     -37.376  -0.608 -14.571  0.00  0.00    -0.646 OA
ENDBRANCH   5  13
ENDBRANCH   3   5
BRANCH   4  16
HETATM   16  C           1     -34.127  -3.949 -11.619  0.00  0.00     0.275 C 
BRANCH  16  17
HETATM   17  N           1     -32.828  -3.217 -11.453  0.00  0.00    -0.066 N 
HETATM   18  H           1     -32.803  -2.763 -10.512  0.00  0.00     0.275 HD
HETATM   19  H           1     -32.035  -3.893 -11.536  0.00  0.00     0.275 HD
HETATM   20  H           1     -32.742  -2.487 -12.194  0.00  0.00     0.275 HD
ENDBRANCH  16  17
BRANCH  16  21
HETATM   21  C           1     -34.297  -4.947 -10.482  0.00  0.00     0.053 C 
BRANCH  21  22
HETATM   22  C           1     -33.703  -6.289 -10.891  0.00  0.00     0.115 C 
BRANCH  22  23
HETATM   23  C           1     -34.393  -7.397 -10.134  0.00  0.00     0.172 C 
HETATM   24  O           1     -33.902  -8.546 -10.122  0.00  0.00    -0.648 OA
HETATM   25  O           1     -35.455  -7.165  -9.517  0.00  0.00    -0.648 OA
ENDBRANCH  22  23
ENDBRANCH  21  22
ENDBRANCH  16  21
ENDBRANCH   4  16
TORSDOF 11
ENDMDL
MODEL 6
REMARK VINA RESULT:      -5.8      2.432      7.451
REMARK  11 active torsions:
REMARK  status: ('A' for Active; 'I' for Inactive)
REMARK    1  A    between atoms: N_4  and  C_9 
REMARK    2  A    between atoms: N_7  and  C_16 
REMARK       I    between atoms: N_7  and  C_8 
REMARK    3  A    between atoms: C_8  and  C_9 
REMARK    4  A    between atoms: C_9  and  C_10 
REMARK    5  A    between atoms: C_10  and  C_11 
REMARK    6  A    between atoms: C_11  and  C_12 
REMARK    7  A    between atoms: C_14  and  C_15 
REMARK    8  A    between atoms: C_14  and  C_16 
REMARK    9  A    between atoms: C_15  and  C_24 
REMARK   10  A    between atoms: C_16  and  C_23 
REMARK   11  A    between atoms: C_24  and  N_25 
ROOT
HETATM    1  H           1     -22.700  -5.545  -6.617  0.00  0.00     0.163 HD
HETATM    2  O           1     -19.806  -4.388  -6.975  0.00  0.00    -0.271 OA
HETATM    3  N           1     -21.715  -5.409  -6.428  0.00  0.00    -0.345 N 
HETATM    4  C           1     -20.982  -4.550  -7.200  0.00  0.00     0.249 C 
ENDROOT
BRANCH   3   5
HETATM    5  C           1     -21.081  -6.126  -5.338  0.00  0.00     0.185 C 
BRANCH   5   6
HETATM    6  C           1     -22.081  -6.310  -4.204  0.00  0.00     0.038 C 
BRANCH   6   7
HETATM    7  C           1     -21.334  -6.644  -2.918  0.00  0.00     0.030 C 
BRANCH   7   8
HETATM    8  C           1     -22.210  -6.305  -1.719  0.00  0.00     0.230 C 
BRANCH   8   9
HETATM    9  N           1     -22.164  -7.433  -0.731  0.00  0.00    -0.079 N 
HETATM   10  H           1     -21.416  -7.248  -0.027  0.00  0.00     0.274 HD
HETATM   11  H           1     -21.960  -8.327  -1.233  0.00  0.00     0.274 HD
HETATM   12  H           1     -23.087  -7.509  -0.247  0.00  0.00     0.274 HD
ENDBRANCH   8   9
ENDBRANCH   7   8
ENDBRANCH   6   7
ENDBRANCH   5   6
BRANCH   5  13
HETATM   13  C           1     -20.620  -7.476  -5.827  0.00  0.00     0.196 C 
HETATM   14  O           1     -21.418  -8.438  -5.856  0.00  0.00    -0.646 OA
HETATM   15  O           1     -19.438  -7.634  -6.204  0.00  0.00    -0.646 OA
ENDBRANCH   5  13
ENDBRANCH   3   5
BRANCH   4  16
HETATM   16  C           1     -21.642  -3.804  -8.334  0.00  0.00     0.275 C 
BRANCH  16  17
HETATM   17  N           1     -20.901  -4.079  -9.610  0.00  0.00    -0.066 N 
HETATM   18  H           1     -21.042  -5.077  -9.885  0.00  0.00     0.275 HD
HETATM   19  H           1     -21.265  -3.454 -10.365  0.00  0.00     0.275 HD
HETATM   20  H           1     -19.883  -3.896  -9.468  0.00  0.00     0.275 HD
ENDBRANCH  16  17
BRANCH  16  21
HETATM   21  C           1     -23.086  -4.269  -8.476  0.00  0.00     0.053 C 
BRANCH  21  22
HETATM   22  C           1     -23.430  -4.415  -9.952  0.00  0.00     0.115 C 
BRANCH  22  23
HETATM   23  C           1     -24.509  -3.425 -10.318  0.00  0.00     0.172 C 
HETATM   24  O           1     -24.798  -3.232 -11.518  0.00  0.00    -0.648 OA
HETATM   25  O           1     -25.114  -2.801  -9.420  0.00  0.00    -0.648 OA
ENDBRANCH  22  23
ENDBRANCH  21  22
ENDBRANCH  16  21
ENDBRANCH   4  16
TORSDOF 11
ENDMDL
MODEL 7
REMARK VINA RESULT:      -5.8      2.889      7.052
REMARK  11 active torsions:
REMARK  status: ('A' for Active; 'I' for Inactive)
REMARK    1  A    between atoms: N_4  and  C_9 
REMARK    2  A    between atoms: N_7  and  C_16 
REMARK       I    between atoms: N_7  and  C_8 
REMARK    3  A    between atoms: C_8  and  C_9 
REMARK    4  A    between atoms: C_9  and  C_10 
REMARK    5  A    between atoms: C_10  and  C_11 
REMARK    6  A    between atoms: C_11  and  C_12 
REMARK    7  A    between atoms: C_14  and  C_15 
REMARK    8  A    between atoms: C_14  and  C_16 
REMARK    9  A    between atoms: C_15  and  C_24 
REMARK   10  A    between atoms: C_16  and  C_23 
REMARK   11  A    between atoms: C_24  and  N_25 
ROOT
HETATM    1  H           1     -22.226  -6.098  -9.017  0.00  0.00     0.163 HD
HETATM    2  O           1     -23.104  -3.125  -8.540  0.00  0.00    -0.271 OA
HETATM    3  N           1     -22.183  -5.156  -8.652  0.00  0.00    -0.345 N 
HETATM    4  C           1     -23.157  -4.250  -8.976  0.00  0.00     0.249 C 
ENDROOT
BRANCH   3   5
HETATM    5  C           1     -21.088  -4.764  -7.785  0.00  0.00     0.185 C 
BRANCH   5   6
HETATM    6  C           1     -20.817  -5.873  -6.777  0.00  0.00     0.038 C 
BRANCH   6   7
HETATM    7  C           1     -20.647  -5.269  -5.389  0.00  0.00     0.030 C 
BRANCH   7   8
HETATM    8  C           1     -21.408  -6.108  -4.372  0.00  0.00     0.230 C 
BRANCH   8   9
HETATM    9  N           1     -22.819  -6.306  -4.842  0.00  0.00    -0.079 N 
HETATM   10  H           1     -23.370  -6.786  -4.096  0.00  0.00     0.274 HD
HETATM   11  H           1     -22.818  -6.891  -5.708  0.00  0.00     0.274 HD
HETATM   12  H           1     -23.251  -5.377  -5.051  0.00  0.00     0.274 HD
ENDBRANCH   8   9
ENDBRANCH   7   8
ENDBRANCH   6   7
ENDBRANCH   5   6
BRANCH   5  13
HETATM   13  C           1     -19.851  -4.526  -8.616  0.00  0.00     0.196 C 
HETATM   14  O           1     -18.805  -4.106  -8.075  0.00  0.00    -0.646 OA
HETATM   15  O           1     -19.872  -4.750  -9.846  0.00  0.00    -0.646 OA
ENDBRANCH   5  13
ENDBRANCH   3   5
BRANCH   4  16
HETATM   16  C           1     -24.296  -4.658  -9.877  0.00  0.00     0.275 C 
BRANCH  16  17
HETATM   17  N           1     -25.375  -3.616  -9.822  0.00  0.00    -0.066 N 
HETATM   18  H           1     -25.989  -3.796  -8.996  0.00  0.00     0.275 HD
HETATM   19  H           1     -24.940  -2.670  -9.735  0.00  0.00     0.275 HD
HETATM   20  H           1     -25.945  -3.659 -10.696  0.00  0.00     0.275 HD
ENDBRANCH  16  17
BRANCH  16  21
HETATM   21  C           1     -23.790  -4.789 -11.308  0.00  0.00     0.053 C 
BRANCH  21  22
HETATM   22  C           1     -24.084  -3.504 -12.070  0.00  0.00     0.115 C 
BRANCH  22  23
HETATM   23  C           1     -22.799  -2.943 -12.627  0.00  0.00     0.172 C 
HETATM   24  O           1     -21.858  -2.653 -11.857  0.00  0.00    -0.648 OA
HETATM   25  O           1     -22.675  -2.769 -13.858  0.00  0.00    -0.648 OA
ENDBRANCH  22  23
ENDBRANCH  21  22
ENDBRANCH  16  21
ENDBRANCH   4  16
TORSDOF 11
ENDMDL
MODEL 8
REMARK VINA RESULT:      -5.8     13.931     16.330
REMARK  11 active torsions:
REMARK  status: ('A' for Active; 'I' for Inactive)
REMARK    1  A    between atoms: N_4  and  C_9 
REMARK    2  A    between atoms: N_7  and  C_16 
REMARK       I    between atoms: N_7  and  C_8 
REMARK    3  A    between atoms: C_8  and  C_9 
REMARK    4  A    between atoms: C_9  and  C_10 
REMARK    5  A    between atoms: C_10  and  C_11 
REMARK    6  A    between atoms: C_11  and  C_12 
REMARK    7  A    between atoms: C_14  and  C_15 
REMARK    8  A    between atoms: C_14  and  C_16 
REMARK    9  A    between atoms: C_15  and  C_24 
REMARK   10  A    between atoms: C_16  and  C_23 
REMARK   11  A    between atoms: C_24  and  N_25 
ROOT
HETATM    1  H           1     -37.321  -1.246 -13.027  0.00  0.00     0.163 HD
HETATM    2  O           1     -35.115   0.906 -13.616  0.00  0.00    -0.271 OA
HETATM    3  N           1     -36.494  -0.684 -12.869  0.00  0.00    -0.345 N 
HETATM    4  C           1     -36.103   0.236 -13.804  0.00  0.00     0.249 C 
ENDROOT
BRANCH   3   5
HETATM    5  C           1     -35.723  -0.854 -11.653  0.00  0.00     0.185 C 
BRANCH   5   6
HETATM    6  C           1     -36.667  -0.931 -10.460  0.00  0.00     0.038 C 
BRANCH   6   7
HETATM    7  C           1     -37.509   0.338 -10.397  0.00  0.00     0.030 C 
BRANCH   7   8
HETATM    8  C           1     -37.600   0.816  -8.954  0.00  0.00     0.230 C 
BRANCH   8   9
HETATM    9  N           1     -36.278   1.385  -8.531  0.00  0.00    -0.079 N 
HETATM   10  H           1     -35.554   0.631  -8.546  0.00  0.00     0.274 HD
HETATM   11  H           1     -36.359   1.773  -7.564  0.00  0.00     0.274 HD
HETATM   12  H           1     -35.999   2.147  -9.190  0.00  0.00     0.274 HD
ENDBRANCH   8   9
ENDBRANCH   7   8
ENDBRANCH   6   7
ENDBRANCH   5   6
BRANCH   5  13
HETATM   13  C           1     -34.920  -2.129 -11.742  0.00  0.00     0.196 C 
HETATM   14  O           1     -33.704  -2.124 -11.455  0.00  0.00    -0.646 OA
HETATM   15  O           1     -35.473  -3.192 -12.102  0.00  0.00    -0.646 OA
ENDBRANCH   5  13
ENDBRANCH   3   5
BRANCH   4  16
HETATM   16  C           1     -36.905   0.413 -15.070  0.00  0.00     0.275 C 
BRANCH  16  17
HETATM   17  N           1     -36.293   1.502 -15.901  0.00  0.00    -0.066 N 
HETATM   18  H           1     -36.578   1.379 -16.899  0.00  0.00     0.275 HD
HETATM   19  H           1     -36.624   2.431 -15.555  0.00  0.00     0.275 HD
HETATM   20  H           1     -35.252   1.453 -15.827  0.00  0.00     0.275 HD
ENDBRANCH  16  17
BRANCH  16  21
HETATM   21  C           1     -36.903  -0.890 -15.859  0.00  0.00     0.053 C 
BRANCH  21  22
HETATM   22  C           1     -35.714  -0.905 -16.810  0.00  0.00     0.115 C 
BRANCH  22  23
HETATM   23  C           1     -34.808  -2.062 -16.465  0.00  0.00     0.172 C 
HETATM   24  O           1     -34.902  -2.618 -15.349  0.00  0.00    -0.648 OA
HETATM   25  O           1     -33.965  -2.464 -17.295  0.00  0.00    -0.648 OA
ENDBRANCH  22  23
ENDBRANCH  21  22
ENDBRANCH  16  21
ENDBRANCH   4  16
TORSDOF 11
ENDMDL
MODEL 9
REMARK VINA RESULT:      -5.6     12.624     15.311
REMARK  11 active torsions:
REMARK  status: ('A' for Active; 'I' for Inactive)
REMARK    1  A    between atoms: N_4  and  C_9 
REMARK    2  A    between atoms: N_7  and  C_16 
REMARK       I    between atoms: N_7  and  C_8 
REMARK    3  A    between atoms: C_8  and  C_9 
REMARK    4  A    between atoms: C_9  and  C_10 
REMARK    5  A    between atoms: C_10  and  C_11 
REMARK    6  A    between atoms: C_11  and  C_12 
REMARK    7  A    between atoms: C_14  and  C_15 
REMARK    8  A    between atoms: C_14  and  C_16 
REMARK    9  A    between atoms: C_15  and  C_24 
REMARK   10  A    between atoms: C_16  and  C_23 
REMARK   11  A    between atoms: C_24  and  N_25 
ROOT
HETATM    1  H           1     -36.286  -2.075 -13.473  0.00  0.00     0.163 HD
HETATM    2  O           1     -34.940   0.453 -12.191  0.00  0.00    -0.271 OA
HETATM    3  N           1     -35.860  -1.502 -12.755  0.00  0.00    -0.345 N 
HETATM    4  C           1     -35.449  -0.230 -13.048  0.00  0.00     0.249 C 
ENDROOT
BRANCH   3   5
HETATM    5  C           1     -35.685  -2.031 -11.416  0.00  0.00     0.185 C 
BRANCH   5   6
HETATM    6  C           1     -34.213  -1.957 -11.031  0.00  0.00     0.038 C 
BRANCH   6   7
HETATM    7  C           1     -33.703  -3.354 -10.702  0.00  0.00     0.030 C 
BRANCH   7   8
HETATM    8  C           1     -32.725  -3.804 -11.778  0.00  0.00     0.230 C 
BRANCH   8   9
HETATM    9  N           1     -33.486  -4.330 -12.959  0.00  0.00    -0.079 N 
HETATM   10  H           1     -34.207  -3.632 -13.247  0.00  0.00     0.274 HD
HETATM   11  H           1     -33.953  -5.228 -12.699  0.00  0.00     0.274 HD
HETATM   12  H           1     -32.827  -4.498 -13.752  0.00  0.00     0.274 HD
ENDBRANCH   8   9
ENDBRANCH   7   8
ENDBRANCH   6   7
ENDBRANCH   5   6
BRANCH   5  13
HETATM   13  C           1     -36.501  -1.215 -10.444  0.00  0.00     0.196 C 
HETATM   14  O           1     -37.727  -1.057 -10.635  0.00  0.00    -0.646 OA
HETATM   15  O           1     -35.952  -0.698  -9.446  0.00  0.00    -0.646 OA
ENDBRANCH   5  13
ENDBRANCH   3   5
BRANCH   4  16
HETATM   16  C           1     -35.631   0.319 -14.442  0.00  0.00     0.275 C 
BRANCH  16  17
HETATM   17  N           1     -34.289   0.637 -15.033  0.00  0.00    -0.066 N 
HETATM   18  H           1     -33.884   1.469 -14.547  0.00  0.00     0.275 HD
HETATM   19  H           1     -33.653  -0.182 -14.911  0.00  0.00     0.275 HD
HETATM   20  H           1     -34.397   0.847 -16.050  0.00  0.00     0.275 HD
ENDBRANCH  16  17
BRANCH  16  21
HETATM   21  C           1     -36.334  -0.717 -15.308  0.00  0.00     0.053 C 
BRANCH  21  22
HETATM   22  C           1     -35.526  -0.951 -16.577  0.00  0.00     0.115 C 
BRANCH  22  23
HETATM   23  C           1     -34.699  -2.205 -16.424  0.00  0.00     0.172 C 
HETATM   24  O           1     -34.808  -2.903 -15.393  0.00  0.00    -0.648 OA
HETATM   25  O           1     -33.908  -2.545 -17.329  0.00  0.00    -0.648 OA
ENDBRANCH  22  23
ENDBRANCH  21  22
ENDBRANCH  16  21
ENDBRANCH   4  16
TORSDOF 11
ENDMDL
