MODEL 1
REMARK VINA RESULT:      -6.2      0.000      0.000
REMARK  6 active torsions:
REMARK  status: ('A' for Active; 'I' for Inactive)
REMARK    1  A    between atoms: C_3  and  C_15 
REMARK    2  A    between atoms: N_8  and  C_13 
REMARK    3  A    between atoms: N_11  and  C_15 
REMARK       I    between atoms: N_11  and  C_12 
REMARK    4  A    between atoms: C_12  and  C_13 
REMARK    5  A    between atoms: C_13  and  C_16 
REMARK    6  A    between atoms: C_16  and  C_18 
ROOT
HETATM    1  H           1     -21.608  -2.561 -12.886  0.00  0.00     0.163 HD
HETATM    2  O           1     -22.940  -5.151 -11.721  0.00  0.00    -0.271 OA
HETATM    3  N           1     -22.305  -3.286 -12.772  0.00  0.00    -0.345 N 
HETATM    4  C           1     -22.108  -4.286 -11.858  0.00  0.00     0.249 C 
ENDROOT
BRANCH   4   5
HETATM    5  C           1     -20.853  -4.308 -11.021  0.00  0.00     0.278 C 
BRANCH   5   6
HETATM    6  N           1     -20.159  -2.982 -11.126  0.00  0.00    -0.066 N 
HETATM    7  H           1     -20.836  -2.260 -11.464  0.00  0.00     0.275 HD
HETATM    8  H           1     -19.364  -3.057 -11.799  0.00  0.00     0.275 HD
HETATM    9  H           1     -19.794  -2.703 -10.188  0.00  0.00     0.275 HD
ENDBRANCH   5   6
BRANCH   5  10
HETATM   10  C           1     -21.216  -4.576  -9.566  0.00  0.00     0.021 C 
HETATM   11  C           1     -19.953  -4.546  -8.714  0.00  0.00     0.012 C 
BRANCH  10  12
HETATM   12  C           1     -22.181  -3.504  -9.078  0.00  0.00     0.002 C 
HETATM   13  C           1     -23.328  -4.159  -8.320  0.00  0.00     0.005 C 
ENDBRANCH  10  12
ENDBRANCH   5  10
ENDBRANCH   4   5
BRANCH   3  14
HETATM   14  C           1     -23.511  -3.265 -13.576  0.00  0.00     0.181 C 
HETATM   15  C           1     -24.689  -2.837 -12.712  0.00  0.00     0.043 C 
BRANCH  14  16
HETATM   16  C           1     -23.339  -2.289 -14.713  0.00  0.00     0.196 C 
HETATM   17  O           1     -22.429  -2.462 -15.554  0.00  0.00    -0.646 OA
HETATM   18  O           1     -24.105  -1.307 -14.816  0.00  0.00    -0.646 OA
ENDBRANCH  14  16
ENDBRANCH   3  14
TORSDOF 6
ENDMDL
MODEL 2
REMARK VINA RESULT:      -5.9      3.123      3.967
REMARK  6 active torsions:
REMARK  status: ('A' for Active; 'I' for Inactive)
REMARK    1  A    between atoms: C_3  and  C_15 
REMARK    2  A    between atoms: N_8  and  C_13 
REMARK    3  A    between atoms: N_11  and  C_15 
REMARK       I    between atoms: N_11  and  C_12 
REMARK    4  A    between atoms: C_12  and  C_13 
REMARK    5  A    between atoms: C_13  and  C_16 
REMARK    6  A    between atoms: C_16  and  C_18 
ROOT
HETATM    1  H           1     -23.966  -3.877  -8.928  0.00  0.00     0.163 HD
HETATM    2  O           1     -20.832  -3.769  -9.009  0.00  0.00    -0.271 OA
HETATM    3  N           1     -23.042  -3.773  -9.328  0.00  0.00    -0.345 N 
HETATM    4  C           1     -21.935  -3.892  -8.531  0.00  0.00     0.249 C 
ENDROOT
BRANCH   4   5
HETATM    5  C           1     -22.092  -4.179  -7.059  0.00  0.00     0.278 C 
BRANCH   5   6
HETATM    6  N           1     -23.509  -4.581  -6.776  0.00  0.00    -0.066 N 
HETATM    7  H           1     -24.094  -3.725  -6.645  0.00  0.00     0.275 HD
HETATM    8  H           1     -23.540  -5.160  -5.907  0.00  0.00     0.275 HD
HETATM    9  H           1     -23.881  -5.137  -7.577  0.00  0.00     0.275 HD
ENDBRANCH   5   6
BRANCH   5  10
HETATM   10  C           1     -21.155  -5.311  -6.658  0.00  0.00     0.021 C 
HETATM   11  C           1     -19.959  -4.739  -5.908  0.00  0.00     0.012 C 
BRANCH  10  12
HETATM   12  C           1     -21.897  -6.289  -5.757  0.00  0.00     0.002 C 
HETATM   13  C           1     -21.320  -6.222  -4.349  0.00  0.00     0.005 C 
ENDBRANCH  10  12
ENDBRANCH   5  10
ENDBRANCH   4   5
BRANCH   3  14
HETATM   14  C           1     -22.892  -3.498 -10.743  0.00  0.00     0.181 C 
HETATM   15  C           1     -22.315  -4.722 -11.440  0.00  0.00     0.043 C 
BRANCH  14  16
HETATM   16  C           1     -24.240  -3.169 -11.336  0.00  0.00     0.196 C 
HETATM   17  O           1     -25.261  -3.183 -10.614  0.00  0.00    -0.646 OA
HETATM   18  O           1     -24.336  -2.883 -12.549  0.00  0.00    -0.646 OA
ENDBRANCH  14  16
ENDBRANCH   3  14
TORSDOF 6
ENDMDL
MODEL 3
REMARK VINA RESULT:      -5.8      3.033      6.138
REMARK  6 active torsions:
REMARK  status: ('A' for Active; 'I' for Inactive)
REMARK    1  A    between atoms: C_3  and  C_15 
REMARK    2  A    between atoms: N_8  and  C_13 
REMARK    3  A    between atoms: N_11  and  C_15 
REMARK       I    between atoms: N_11  and  C_12 
REMARK    4  A    between atoms: C_12  and  C_13 
REMARK    5  A    between atoms: C_13  and  C_16 
REMARK    6  A    between atoms: C_16  and  C_18 
ROOT
HETATM    1  H           1     -22.031  -4.084  -7.899  0.00  0.00     0.163 HD
HETATM    2  O           1     -20.005  -4.905 -10.150  0.00  0.00    -0.271 OA
HETATM    3  N           1     -21.240  -4.553  -8.323  0.00  0.00    -0.345 N 
HETATM    4  C           1     -20.949  -4.345  -9.645  0.00  0.00     0.249 C 
ENDROOT
BRANCH   4   5
HETATM    5  C           1     -21.806  -3.416 -10.469  0.00  0.00     0.278 C 
BRANCH   5   6
HETATM    6  N           1     -21.077  -3.049 -11.727  0.00  0.00    -0.066 N 
HETATM    7  H           1     -20.683  -3.912 -12.166  0.00  0.00     0.275 HD
HETATM    8  H           1     -20.301  -2.387 -11.500  0.00  0.00     0.275 HD
HETATM    9  H           1     -21.739  -2.592 -12.393  0.00  0.00     0.275 HD
ENDBRANCH   5   6
BRANCH   5  10
HETATM   10  C           1     -23.113  -4.111 -10.825  0.00  0.00     0.021 C 
HETATM   11  C           1     -24.254  -3.480 -10.036  0.00  0.00     0.012 C 
BRANCH  10  12
HETATM   12  C           1     -23.382  -3.954 -12.316  0.00  0.00     0.002 C 
HETATM   13  C           1     -24.557  -3.009 -12.524  0.00  0.00     0.005 C 
ENDBRANCH  10  12
ENDBRANCH   5  10
ENDBRANCH   4   5
BRANCH   3  14
HETATM   14  C           1     -20.418  -5.445  -7.530  0.00  0.00     0.181 C 
HETATM   15  C           1     -19.344  -4.640  -6.811  0.00  0.00     0.043 C 
BRANCH  14  16
HETATM   16  C           1     -21.280  -6.155  -6.516  0.00  0.00     0.196 C 
HETATM   17  O           1     -22.123  -5.512  -5.853  0.00  0.00    -0.646 OA
HETATM   18  O           1     -21.153  -7.386  -6.339  0.00  0.00    -0.646 OA
ENDBRANCH  14  16
ENDBRANCH   3  14
TORSDOF 6
ENDMDL
MODEL 4
REMARK VINA RESULT:      -5.7      1.867      2.340
REMARK  6 active torsions:
REMARK  status: ('A' for Active; 'I' for Inactive)
REMARK    1  A    between atoms: C_3  and  C_15 
REMARK    2  A    between atoms: N_8  and  C_13 
REMARK    3  A    between atoms: N_11  and  C_15 
REMARK       I    between atoms: N_11  and  C_12 
REMARK    4  A    between atoms: C_12  and  C_13 
REMARK    5  A    between atoms: C_13  and  C_16 
REMARK    6  A    between atoms: C_16  and  C_18 
ROOT
HETATM    1  H           1     -23.174  -2.241 -11.190  0.00  0.00     0.163 HD
HETATM    2  O           1     -23.832  -5.242 -10.557  0.00  0.00    -0.271 OA
HETATM    3  N           1     -23.514  -3.180 -11.353  0.00  0.00    -0.345 N 
HETATM    4  C           1     -23.426  -4.121 -10.362  0.00  0.00     0.249 C 
ENDROOT
BRANCH   4   5
HETATM    5  C           1     -22.824  -3.758  -9.028  0.00  0.00     0.278 C 
BRANCH   5   6
HETATM    6  N           1     -23.803  -4.071  -7.936  0.00  0.00    -0.066 N 
HETATM    7  H           1     -23.965  -3.215  -7.358  0.00  0.00     0.275 HD
HETATM    8  H           1     -23.419  -4.832  -7.331  0.00  0.00     0.275 HD
HETATM    9  H           1     -24.706  -4.383  -8.356  0.00  0.00     0.275 HD
ENDBRANCH   5   6
BRANCH   5  10
HETATM   10  C           1     -21.548  -4.560  -8.810  0.00  0.00     0.021 C 
HETATM   11  C           1     -20.536  -4.209  -9.893  0.00  0.00     0.012 C 
BRANCH  10  12
HETATM   12  C           1     -20.964  -4.223  -7.443  0.00  0.00     0.002 C 
HETATM   13  C           1     -19.492  -4.615  -7.409  0.00  0.00     0.005 C 
ENDBRANCH  10  12
ENDBRANCH   5  10
ENDBRANCH   4   5
BRANCH   3  14
HETATM   14  C           1     -24.093  -3.529 -12.636  0.00  0.00     0.181 C 
HETATM   15  C           1     -25.389  -2.755 -12.835  0.00  0.00     0.043 C 
BRANCH  14  16
HETATM   16  C           1     -23.122  -3.179 -13.736  0.00  0.00     0.196 C 
HETATM   17  O           1     -21.891  -3.217 -13.520  0.00  0.00    -0.646 OA
HETATM   18  O           1     -23.548  -2.850 -14.865  0.00  0.00    -0.646 OA
ENDBRANCH  14  16
ENDBRANCH   3  14
TORSDOF 6
ENDMDL
MODEL 5
REMARK VINA RESULT:      -5.7      3.770      6.361
REMARK  6 active torsions:
REMARK  status: ('A' for Active; 'I' for Inactive)
REMARK    1  A    between atoms: C_3  and  C_15 
REMARK    2  A    between atoms: N_8  and  C_13 
REMARK    3  A    between atoms: N_11  and  C_15 
REMARK       I    between atoms: N_11  and  C_12 
REMARK    4  A    between atoms: C_12  and  C_13 
REMARK    5  A    between atoms: C_13  and  C_16 
REMARK    6  A    between atoms: C_16  and  C_18 
ROOT
HETATM    1  H           1     -22.505  -6.169  -7.882  0.00  0.00     0.163 HD
HETATM    2  O           1     -21.895  -3.094  -7.770  0.00  0.00    -0.271 OA
HETATM    3  N           1     -22.099  -5.306  -7.544  0.00  0.00    -0.345 N 
HETATM    4  C           1     -22.380  -4.123  -8.175  0.00  0.00     0.249 C 
ENDROOT
BRANCH   4   5
HETATM    5  C           1     -23.296  -4.107  -9.373  0.00  0.00     0.278 C 
BRANCH   5   6
HETATM    6  N           1     -24.541  -3.341  -9.040  0.00  0.00    -0.066 N 
HETATM    7  H           1     -24.706  -3.375  -8.008  0.00  0.00     0.275 HD
HETATM    8  H           1     -25.356  -3.767  -9.537  0.00  0.00     0.275 HD
HETATM    9  H           1     -24.431  -2.347  -9.341  0.00  0.00     0.275 HD
ENDBRANCH   5   6
BRANCH   5  10
HETATM   10  C           1     -22.589  -3.439 -10.545  0.00  0.00     0.021 C 
HETATM   11  C           1     -21.592  -4.414 -11.159  0.00  0.00     0.012 C 
BRANCH  10  12
HETATM   12  C           1     -23.616  -3.038 -11.595  0.00  0.00     0.002 C 
HETATM   13  C           1     -22.923  -2.847 -12.938  0.00  0.00     0.005 C 
ENDBRANCH  10  12
ENDBRANCH   5  10
ENDBRANCH   4   5
BRANCH   3  14
HETATM   14  C           1     -21.218  -5.322  -6.392  0.00  0.00     0.181 C 
HETATM   15  C           1     -21.737  -6.326  -5.371  0.00  0.00     0.043 C 
BRANCH  14  16
HETATM   16  C           1     -19.829  -5.718  -6.827  0.00  0.00     0.196 C 
HETATM   17  O           1     -19.506  -6.926  -6.862  0.00  0.00    -0.646 OA
HETATM   18  O           1     -19.002  -4.840  -7.153  0.00  0.00    -0.646 OA
ENDBRANCH  14  16
ENDBRANCH   3  14
TORSDOF 6
ENDMDL
MODEL 6
REMARK VINA RESULT:      -5.7      3.478      4.746
REMARK  6 active torsions:
REMARK  status: ('A' for Active; 'I' for Inactive)
REMARK    1  A    between atoms: C_3  and  C_15 
REMARK    2  A    between atoms: N_8  and  C_13 
REMARK    3  A    between atoms: N_11  and  C_15 
REMARK       I    between atoms: N_11  and  C_12 
REMARK    4  A    between atoms: C_12  and  C_13 
REMARK    5  A    between atoms: C_13  and  C_16 
REMARK    6  A    between atoms: C_16  and  C_18 
ROOT
HETATM    1  H           1     -22.335  -5.730  -9.548  0.00  0.00     0.163 HD
HETATM    2  O           1     -21.559  -3.664  -7.319  0.00  0.00    -0.271 OA
HETATM    3  N           1     -22.230  -4.827  -9.102  0.00  0.00    -0.345 N 
HETATM    4  C           1     -21.685  -4.742  -7.849  0.00  0.00     0.249 C 
ENDROOT
BRANCH   4   5
HETATM    5  C           1     -21.240  -5.992  -7.133  0.00  0.00     0.278 C 
BRANCH   5   6
HETATM    6  N           1     -19.773  -6.204  -7.359  0.00  0.00    -0.066 N 
HETATM    7  H           1     -19.633  -7.018  -8.000  0.00  0.00     0.275 HD
HETATM    8  H           1     -19.303  -6.394  -6.445  0.00  0.00     0.275 HD
HETATM    9  H           1     -19.359  -5.347  -7.790  0.00  0.00     0.275 HD
ENDBRANCH   5   6
BRANCH   5  10
HETATM   10  C           1     -21.507  -5.846  -5.640  0.00  0.00     0.021 C 
HETATM   11  C           1     -22.954  -6.220  -5.344  0.00  0.00     0.012 C 
BRANCH  10  12
HETATM   12  C           1     -20.576  -6.770  -4.866  0.00  0.00     0.002 C 
HETATM   13  C           1     -21.291  -8.083  -4.574  0.00  0.00     0.005 C 
ENDBRANCH  10  12
ENDBRANCH   5  10
ENDBRANCH   4   5
BRANCH   3  14
HETATM   14  C           1     -22.657  -3.625  -9.792  0.00  0.00     0.181 C 
HETATM   15  C           1     -21.750  -3.378 -10.990  0.00  0.00     0.043 C 
BRANCH  14  16
HETATM   16  C           1     -24.080  -3.796 -10.263  0.00  0.00     0.196 C 
HETATM   17  O           1     -24.587  -2.954 -11.036  0.00  0.00    -0.646 OA
HETATM   18  O           1     -24.751  -4.778  -9.882  0.00  0.00    -0.646 OA
ENDBRANCH  14  16
ENDBRANCH   3  14
TORSDOF 6
ENDMDL
MODEL 7
REMARK VINA RESULT:      -5.5      5.216      8.145
REMARK  6 active torsions:
REMARK  status: ('A' for Active; 'I' for Inactive)
REMARK    1  A    between atoms: C_3  and  C_15 
REMARK    2  A    between atoms: N_8  and  C_13 
REMARK    3  A    between atoms: N_11  and  C_15 
REMARK       I    between atoms: N_11  and  C_12 
REMARK    4  A    between atoms: C_12  and  C_13 
REMARK    5  A    between atoms: C_13  and  C_16 
REMARK    6  A    between atoms: C_16  and  C_18 
ROOT
HETATM    1  H           1     -20.130  -6.408  -5.622  0.00  0.00     0.163 HD
HETATM    2  O           1     -23.018  -5.275  -6.091  0.00  0.00    -0.271 OA
HETATM    3  N           1     -21.134  -6.332  -5.523  0.00  0.00    -0.345 N 
HETATM    4  C           1     -21.819  -5.365  -6.210  0.00  0.00     0.249 C 
ENDROOT
BRANCH   4   5
HETATM    5  C           1     -21.076  -4.414  -7.116  0.00  0.00     0.278 C 
BRANCH   5   6
HETATM    6  N           1     -19.600  -4.574  -6.906  0.00  0.00    -0.066 N 
HETATM    7  H           1     -19.360  -4.337  -5.917  0.00  0.00     0.275 HD
HETATM    8  H           1     -19.085  -3.935  -7.553  0.00  0.00     0.275 HD
HETATM    9  H           1     -19.325  -5.562  -7.103  0.00  0.00     0.275 HD
ENDBRANCH   5   6
BRANCH   5  10
HETATM   10  C           1     -21.419  -4.722  -8.567  0.00  0.00     0.021 C 
HETATM   11  C           1     -22.407  -3.685  -9.087  0.00  0.00     0.012 C 
BRANCH  10  12
HETATM   12  C           1     -20.150  -4.678  -9.408  0.00  0.00     0.002 C 
HETATM   13  C           1     -20.495  -4.245 -10.827  0.00  0.00     0.005 C 
ENDBRANCH  10  12
ENDBRANCH   5  10
ENDBRANCH   4   5
BRANCH   3  14
HETATM   14  C           1     -21.847  -7.246  -4.652  0.00  0.00     0.181 C 
HETATM   15  C           1     -21.308  -8.657  -4.847  0.00  0.00     0.043 C 
BRANCH  14  16
HETATM   16  C           1     -21.654  -6.826  -3.216  0.00  0.00     0.196 C 
HETATM   17  O           1     -22.390  -5.947  -2.717  0.00  0.00    -0.646 OA
HETATM   18  O           1     -20.757  -7.355  -2.525  0.00  0.00    -0.646 OA
ENDBRANCH  14  16
ENDBRANCH   3  14
TORSDOF 6
ENDMDL
MODEL 8
REMARK VINA RESULT:      -5.4      5.116      7.884
REMARK  6 active torsions:
REMARK  status: ('A' for Active; 'I' for Inactive)
REMARK    1  A    between atoms: C_3  and  C_15 
REMARK    2  A    between atoms: N_8  and  C_13 
REMARK    3  A    between atoms: N_11  and  C_15 
REMARK       I    between atoms: N_11  and  C_12 
REMARK    4  A    between atoms: C_12  and  C_13 
REMARK    5  A    between atoms: C_13  and  C_16 
REMARK    6  A    between atoms: C_16  and  C_18 
ROOT
HETATM    1  H           1     -22.984  -6.085  -5.549  0.00  0.00     0.163 HD
HETATM    2  O           1     -20.115  -4.927  -6.066  0.00  0.00    -0.271 OA
HETATM    3  N           1     -21.989  -5.955  -5.420  0.00  0.00    -0.345 N 
HETATM    4  C           1     -21.303  -5.083  -6.222  0.00  0.00     0.249 C 
ENDROOT
BRANCH   4   5
HETATM    5  C           1     -22.030  -4.316  -7.299  0.00  0.00     0.278 C 
BRANCH   5   6
HETATM    6  N           1     -21.601  -2.880  -7.266  0.00  0.00    -0.066 N 
HETATM    7  H           1     -21.317  -2.579  -8.226  0.00  0.00     0.275 HD
HETATM    8  H           1     -20.793  -2.772  -6.613  0.00  0.00     0.275 HD
HETATM    9  H           1     -22.395  -2.286  -6.937  0.00  0.00     0.275 HD
ENDBRANCH   5   6
BRANCH   5  10
HETATM   10  C           1     -21.700  -4.913  -8.660  0.00  0.00     0.021 C 
HETATM   11  C           1     -22.872  -4.696  -9.608  0.00  0.00     0.012 C 
BRANCH  10  12
HETATM   12  C           1     -20.459  -4.233  -9.225  0.00  0.00     0.002 C 
HETATM   13  C           1     -20.524  -4.239 -10.746  0.00  0.00     0.005 C 
ENDBRANCH  10  12
ENDBRANCH   5  10
ENDBRANCH   4   5
BRANCH   3  14
HETATM   14  C           1     -21.291  -6.691  -4.385  0.00  0.00     0.181 C 
HETATM   15  C           1     -21.910  -6.375  -3.030  0.00  0.00     0.043 C 
BRANCH  14  16
HETATM   16  C           1     -21.405  -8.171  -4.658  0.00  0.00     0.196 C 
HETATM   17  O           1     -21.184  -8.613  -5.806  0.00  0.00    -0.646 OA
HETATM   18  O           1     -21.719  -8.954  -3.736  0.00  0.00    -0.646 OA
ENDBRANCH  14  16
ENDBRANCH   3  14
TORSDOF 6
ENDMDL
MODEL 9
REMARK VINA RESULT:      -5.4      6.901      8.832
REMARK  6 active torsions:
REMARK  status: ('A' for Active; 'I' for Inactive)
REMARK    1  A    between atoms: C_3  and  C_15 
REMARK    2  A    between atoms: N_8  and  C_13 
REMARK    3  A    between atoms: N_11  and  C_15 
REMARK       I    between atoms: N_11  and  C_12 
REMARK    4  A    between atoms: C_12  and  C_13 
REMARK    5  A    between atoms: C_13  and  C_16 
REMARK    6  A    between atoms: C_16  and  C_18 
ROOT
HETATM    1  H           1     -20.986  -4.844  -4.394  0.00  0.00     0.163 HD
HETATM    2  O           1     -21.822  -7.867  -4.450  0.00  0.00    -0.271 OA
HETATM    3  N           1     -21.259  -5.733  -4.792  0.00  0.00    -0.345 N 
HETATM    4  C           1     -21.495  -6.806  -3.974  0.00  0.00     0.249 C 
ENDROOT
BRANCH   4   5
HETATM    5  C           1     -21.347  -6.662  -2.480  0.00  0.00     0.278 C 
BRANCH   5   6
HETATM    6  N           1     -22.294  -5.610  -1.983  0.00  0.00    -0.066 N 
HETATM    7  H           1     -22.346  -5.652  -0.940  0.00  0.00     0.275 HD
HETATM    8  H           1     -23.243  -5.777  -2.387  0.00  0.00     0.275 HD
HETATM    9  H           1     -21.953  -4.667  -2.276  0.00  0.00     0.275 HD
ENDBRANCH   5   6
BRANCH   5  10
HETATM   10  C           1     -21.667  -7.990  -1.807  0.00  0.00     0.021 C 
HETATM   11  C           1     -20.371  -8.733  -1.508  0.00  0.00     0.012 C 
BRANCH  10  12
HETATM   12  C           1     -22.414  -7.732  -0.505  0.00  0.00     0.002 C 
HETATM   13  C           1     -22.922  -9.052   0.060  0.00  0.00     0.005 C 
ENDBRANCH  10  12
ENDBRANCH   5  10
ENDBRANCH   4   5
BRANCH   3  14
HETATM   14  C           1     -21.401  -5.871  -6.228  0.00  0.00     0.181 C 
HETATM   15  C           1     -22.176  -4.680  -6.778  0.00  0.00     0.043 C 
BRANCH  14  16
HETATM   16  C           1     -20.034  -5.920  -6.865  0.00  0.00     0.196 C 
HETATM   17  O           1     -19.397  -6.995  -6.895  0.00  0.00    -0.646 OA
HETATM   18  O           1     -19.539  -4.886  -7.364  0.00  0.00    -0.646 OA
ENDBRANCH  14  16
ENDBRANCH   3  14
TORSDOF 6
ENDMDL
