MODEL 1
REMARK VINA RESULT:      -6.0      0.000      0.000
REMARK  13 active torsions:
REMARK  status: ('A' for Active; 'I' for Inactive)
REMARK    1  A    between atoms: N_6  and  C_7 
REMARK    2  A    between atoms: C_7  and  C_8 
REMARK    3  A    between atoms: C_8  and  C_9 
REMARK    4  A    between atoms: C_9  and  C_10 
REMARK    5  A    between atoms: C_10  and  C_11 
REMARK    6  A    between atoms: C_11  and  C_12 
REMARK    7  A    between atoms: C_11  and  N_15 
REMARK       I    between atoms: N_15  and  C_16 
REMARK    8  A    between atoms: C_16  and  C_17 
REMARK    9  A    between atoms: C_17  and  C_18 
REMARK   10  A    between atoms: C_17  and  N_24 
REMARK   11  A    between atoms: C_18  and  O_19 
REMARK   12  A    between atoms: O_19  and  P_20 
REMARK   13  A    between atoms: P_20  and  O_21 
ROOT
HETATM    1  O           1     -21.823  -3.245  -7.770  0.00  0.00    -0.271 OA
HETATM    2  N           1     -22.505  -5.296  -7.208  0.00  0.00    -0.345 N 
HETATM    3  C           1     -22.520  -4.199  -8.026  0.00  0.00     0.251 C 
HETATM    4  H           1     -23.089  -6.095  -7.422  0.00  0.00     0.163 HD
ENDROOT
BRANCH   2   5
HETATM    5  C           1     -21.654  -5.314  -6.034  0.00  0.00     0.185 C 
BRANCH   5   6
HETATM    6  C           1     -22.128  -6.404  -5.081  0.00  0.00     0.036 C 
BRANCH   6   7
HETATM    7  C           1     -21.260  -6.399  -3.830  0.00  0.00     0.004 C 
BRANCH   7   8
HETATM    8  C           1     -20.818  -7.822  -3.512  0.00  0.00     0.027 C 
BRANCH   8   9
HETATM    9  C           1     -21.353  -8.770  -4.577  0.00  0.00     0.229 C 
BRANCH   9  10
HETATM   10  N           1     -20.217  -9.270  -5.419  0.00  0.00    -0.079 N 
HETATM   11  H           1     -20.034 -10.274  -5.195  0.00  0.00     0.274 HD
HETATM   12  H           1     -20.467  -9.179  -6.429  0.00  0.00     0.274 HD
HETATM   13  H           1     -19.361  -8.708  -5.218  0.00  0.00     0.274 HD
ENDBRANCH   9  10
ENDBRANCH   8   9
ENDBRANCH   7   8
ENDBRANCH   6   7
ENDBRANCH   5   6
BRANCH   5  14
HETATM   14  C           1     -20.231  -5.594  -6.450  0.00  0.00     0.196 C 
HETATM   15  O           1     -19.336  -4.752  -6.220  0.00  0.00    -0.646 OA
HETATM   16  O           1     -19.947  -6.667  -7.025  0.00  0.00    -0.646 OA
ENDBRANCH   5  14
ENDBRANCH   2   5
BRANCH   3  17
HETATM   17  C           1     -23.405  -4.179  -9.248  0.00  0.00     0.298 C 
BRANCH  17  18
HETATM   18  C           1     -22.592  -3.737 -10.457  0.00  0.00     0.224 C 
BRANCH  18  19
HETATM   19  O           1     -23.088  -4.366 -11.609  0.00  0.00    -0.287 OA
BRANCH  19  20
HETATM   20  P           1     -23.881  -3.416 -12.647  0.00  0.00     0.406 P 
HETATM   21  O           1     -25.159  -2.983 -12.040  0.00  0.00    -0.624 OA
HETATM   22  O           1     -23.054  -2.229 -12.961  0.00  0.00    -0.624 OA
BRANCH  20  23
HETATM   23  O           1     -24.182  -4.236 -14.006  0.00  0.00    -0.300 OA
HETATM   24  H           1     -23.850  -3.690 -14.699  0.00  0.00     0.223 HD
ENDBRANCH  20  23
ENDBRANCH  19  20
ENDBRANCH  18  19
ENDBRANCH  17  18
BRANCH  17  25
HETATM   25  N           1     -24.537  -3.221  -9.028  0.00  0.00    -0.064 N 
HETATM   26  H           1     -24.920  -3.350  -8.064  0.00  0.00     0.275 HD
HETATM   27  H           1     -24.190  -2.241  -9.138  0.00  0.00     0.275 HD
HETATM   28  H           1     -25.290  -3.404  -9.729  0.00  0.00     0.275 HD
ENDBRANCH  17  25
ENDBRANCH   3  17
TORSDOF 13
ENDMDL
MODEL 2
REMARK VINA RESULT:      -5.9      2.164      2.976
REMARK  13 active torsions:
REMARK  status: ('A' for Active; 'I' for Inactive)
REMARK    1  A    between atoms: N_6  and  C_7 
REMARK    2  A    between atoms: C_7  and  C_8 
REMARK    3  A    between atoms: C_8  and  C_9 
REMARK    4  A    between atoms: C_9  and  C_10 
REMARK    5  A    between atoms: C_10  and  C_11 
REMARK    6  A    between atoms: C_11  and  C_12 
REMARK    7  A    between atoms: C_11  and  N_15 
REMARK       I    between atoms: N_15  and  C_16 
REMARK    8  A    between atoms: C_16  and  C_17 
REMARK    9  A    between atoms: C_17  and  C_18 
REMARK   10  A    between atoms: C_17  and  N_24 
REMARK   11  A    between atoms: C_18  and  O_19 
REMARK   12  A    between atoms: O_19  and  P_20 
REMARK   13  A    between atoms: P_20  and  O_21 
ROOT
HETATM    1  O           1     -19.370  -4.691  -6.775  0.00  0.00    -0.271 OA
HETATM    2  N           1     -21.351  -5.646  -6.388  0.00  0.00    -0.345 N 
HETATM    3  C           1     -20.527  -4.819  -7.101  0.00  0.00     0.251 C 
HETATM    4  H           1     -22.320  -5.753  -6.662  0.00  0.00     0.163 HD
ENDROOT
BRANCH   2   5
HETATM    5  C           1     -20.838  -6.370  -5.242  0.00  0.00     0.185 C 
BRANCH   5   6
HETATM    6  C           1     -21.917  -6.453  -4.170  0.00  0.00     0.036 C 
BRANCH   6   7
HETATM    7  C           1     -21.265  -6.598  -2.801  0.00  0.00     0.004 C 
BRANCH   7   8
HETATM    8  C           1     -22.270  -6.232  -1.718  0.00  0.00     0.027 C 
BRANCH   8   9
HETATM    9  C           1     -22.202  -7.257  -0.594  0.00  0.00     0.229 C 
BRANCH   9  10
HETATM   10  N           1     -20.994  -8.127  -0.781  0.00  0.00    -0.079 N 
HETATM   11  H           1     -21.140  -8.751  -1.606  0.00  0.00     0.274 HD
HETATM   12  H           1     -20.155  -7.525  -0.944  0.00  0.00     0.274 HD
HETATM   13  H           1     -20.848  -8.708   0.074  0.00  0.00     0.274 HD
ENDBRANCH   9  10
ENDBRANCH   8   9
ENDBRANCH   7   8
ENDBRANCH   6   7
ENDBRANCH   5   6
BRANCH   5  14
HETATM   14  C           1     -20.439  -7.762  -5.664  0.00  0.00     0.196 C 
HETATM   15  O           1     -19.241  -8.021  -5.912  0.00  0.00    -0.646 OA
HETATM   16  O           1     -21.307  -8.657  -5.766  0.00  0.00    -0.646 OA
ENDBRANCH   5  14
ENDBRANCH   2   5
BRANCH   3  17
HETATM   17  C           1     -21.061  -4.066  -8.295  0.00  0.00     0.298 C 
BRANCH  17  18
HETATM   18  C           1     -22.562  -4.296  -8.411  0.00  0.00     0.224 C 
BRANCH  18  19
HETATM   19  O           1     -23.143  -3.241  -9.129  0.00  0.00    -0.287 OA
BRANCH  19  20
HETATM   20  P           1     -24.252  -3.658 -10.227  0.00  0.00     0.406 P 
HETATM   21  O           1     -24.054  -2.857 -11.455  0.00  0.00    -0.624 OA
HETATM   22  O           1     -24.112  -5.097 -10.546  0.00  0.00    -0.624 OA
BRANCH  20  23
HETATM   23  O           1     -25.728  -3.380  -9.635  0.00  0.00    -0.300 OA
HETATM   24  H           1     -25.678  -2.525  -9.243  0.00  0.00     0.223 HD
ENDBRANCH  20  23
ENDBRANCH  19  20
ENDBRANCH  18  19
ENDBRANCH  17  18
BRANCH  17  25
HETATM   25  N           1     -20.383  -4.556  -9.539  0.00  0.00    -0.064 N 
HETATM   26  H           1     -19.433  -4.126  -9.610  0.00  0.00     0.275 HD
HETATM   27  H           1     -20.292  -5.597  -9.499  0.00  0.00     0.275 HD
HETATM   28  H           1     -20.950  -4.288 -10.374  0.00  0.00     0.275 HD
ENDBRANCH  17  25
ENDBRANCH   3  17
TORSDOF 13
ENDMDL
MODEL 3
REMARK VINA RESULT:      -5.9      3.537      7.899
REMARK  13 active torsions:
REMARK  status: ('A' for Active; 'I' for Inactive)
REMARK    1  A    between atoms: N_6  and  C_7 
REMARK    2  A    between atoms: C_7  and  C_8 
REMARK    3  A    between atoms: C_8  and  C_9 
REMARK    4  A    between atoms: C_9  and  C_10 
REMARK    5  A    between atoms: C_10  and  C_11 
REMARK    6  A    between atoms: C_11  and  C_12 
REMARK    7  A    between atoms: C_11  and  N_15 
REMARK       I    between atoms: N_15  and  C_16 
REMARK    8  A    between atoms: C_16  and  C_17 
REMARK    9  A    between atoms: C_17  and  C_18 
REMARK   10  A    between atoms: C_17  and  N_24 
REMARK   11  A    between atoms: C_18  and  O_19 
REMARK   12  A    between atoms: O_19  and  P_20 
REMARK   13  A    between atoms: P_20  and  O_21 
ROOT
HETATM    1  O           1     -21.872  -3.513  -7.271  0.00  0.00    -0.271 OA
HETATM    2  N           1     -22.237  -4.846  -9.025  0.00  0.00    -0.345 N 
HETATM    3  C           1     -21.795  -4.620  -7.749  0.00  0.00     0.251 C 
HETATM    4  H           1     -22.173  -5.773  -9.426  0.00  0.00     0.163 HD
ENDROOT
BRANCH   2   5
HETATM    5  C           1     -22.798  -3.758  -9.802  0.00  0.00     0.185 C 
BRANCH   5   6
HETATM    6  C           1     -22.361  -3.895 -11.255  0.00  0.00     0.036 C 
BRANCH   6   7
HETATM    7  C           1     -22.631  -2.590 -11.992  0.00  0.00     0.004 C 
BRANCH   7   8
HETATM    8  C           1     -23.777  -2.789 -12.975  0.00  0.00     0.027 C 
BRANCH   8   9
HETATM    9  C           1     -23.412  -2.163 -14.315  0.00  0.00     0.229 C 
BRANCH   9  10
HETATM   10  N           1     -22.362  -2.997 -14.988  0.00  0.00    -0.079 N 
HETATM   11  H           1     -21.519  -2.409 -15.176  0.00  0.00     0.274 HD
HETATM   12  H           1     -22.099  -3.794 -14.365  0.00  0.00     0.274 HD
HETATM   13  H           1     -22.736  -3.366 -15.890  0.00  0.00     0.274 HD
ENDBRANCH   9  10
ENDBRANCH   8   9
ENDBRANCH   7   8
ENDBRANCH   6   7
ENDBRANCH   5   6
BRANCH   5  14
HETATM   14  C           1     -24.303  -3.807  -9.722  0.00  0.00     0.196 C 
HETATM   15  O           1     -24.950  -2.766  -9.473  0.00  0.00    -0.646 OA
HETATM   16  O           1     -24.904  -4.889  -9.903  0.00  0.00    -0.646 OA
ENDBRANCH   5  14
ENDBRANCH   2   5
BRANCH   3  17
HETATM   17  C           1     -21.211  -5.752  -6.941  0.00  0.00     0.298 C 
BRANCH  17  18
HETATM   18  C           1     -20.991  -5.291  -5.506  0.00  0.00     0.224 C 
BRANCH  18  19
HETATM   19  O           1     -21.792  -6.052  -4.642  0.00  0.00    -0.287 OA
BRANCH  19  20
HETATM   20  P           1     -21.119  -7.397  -4.054  0.00  0.00     0.406 P 
HETATM   21  O           1     -19.817  -7.627  -4.720  0.00  0.00    -0.624 OA
HETATM   22  O           1     -20.910  -7.248  -2.596  0.00  0.00    -0.624 OA
BRANCH  20  23
HETATM   23  O           1     -22.094  -8.654  -4.331  0.00  0.00    -0.300 OA
HETATM   24  H           1     -22.664  -8.691  -3.582  0.00  0.00     0.223 HD
ENDBRANCH  20  23
ENDBRANCH  19  20
ENDBRANCH  18  19
ENDBRANCH  17  18
BRANCH  17  25
HETATM   25  N           1     -19.901  -6.169  -7.538  0.00  0.00    -0.064 N 
HETATM   26  H           1     -19.820  -5.778  -8.504  0.00  0.00     0.275 HD
HETATM   27  H           1     -19.118  -5.807  -6.948  0.00  0.00     0.275 HD
HETATM   28  H           1     -19.853  -7.212  -7.579  0.00  0.00     0.275 HD
ENDBRANCH  17  25
ENDBRANCH   3  17
TORSDOF 13
ENDMDL
MODEL 4
REMARK VINA RESULT:      -5.8     10.203     13.065
REMARK  13 active torsions:
REMARK  status: ('A' for Active; 'I' for Inactive)
REMARK    1  A    between atoms: N_6  and  C_7 
REMARK    2  A    between atoms: C_7  and  C_8 
REMARK    3  A    between atoms: C_8  and  C_9 
REMARK    4  A    between atoms: C_9  and  C_10 
REMARK    5  A    between atoms: C_10  and  C_11 
REMARK    6  A    between atoms: C_11  and  C_12 
REMARK    7  A    between atoms: C_11  and  N_15 
REMARK       I    between atoms: N_15  and  C_16 
REMARK    8  A    between atoms: C_16  and  C_17 
REMARK    9  A    between atoms: C_17  and  C_18 
REMARK   10  A    between atoms: C_17  and  N_24 
REMARK   11  A    between atoms: C_18  and  O_19 
REMARK   12  A    between atoms: O_19  and  P_20 
REMARK   13  A    between atoms: P_20  and  O_21 
ROOT
HETATM    1  O           1     -27.757  -6.605 -15.537  0.00  0.00    -0.271 OA
HETATM    2  N           1     -28.004  -6.802 -17.748  0.00  0.00    -0.345 N 
HETATM    3  C           1     -27.242  -6.592 -16.631  0.00  0.00     0.251 C 
HETATM    4  H           1     -27.572  -6.791 -18.664  0.00  0.00     0.163 HD
ENDROOT
BRANCH   2   5
HETATM    5  C           1     -29.429  -7.039 -17.622  0.00  0.00     0.185 C 
BRANCH   5   6
HETATM    6  C           1     -30.179  -5.727 -17.803  0.00  0.00     0.036 C 
BRANCH   6   7
HETATM    7  C           1     -30.918  -5.381 -16.516  0.00  0.00     0.004 C 
BRANCH   7   8
HETATM    8  C           1     -32.342  -4.955 -16.847  0.00  0.00     0.027 C 
BRANCH   8   9
HETATM    9  C           1     -32.318  -3.605 -17.552  0.00  0.00     0.229 C 
BRANCH   9  10
HETATM   10  N           1     -33.595  -2.870 -17.272  0.00  0.00    -0.079 N 
HETATM   11  H           1     -34.242  -2.975 -18.085  0.00  0.00     0.274 HD
HETATM   12  H           1     -34.044  -3.268 -16.416  0.00  0.00     0.274 HD
HETATM   13  H           1     -33.388  -1.858 -17.120  0.00  0.00     0.274 HD
ENDBRANCH   9  10
ENDBRANCH   8   9
ENDBRANCH   7   8
ENDBRANCH   6   7
ENDBRANCH   5   6
BRANCH   5  14
HETATM   14  C           1     -29.870  -8.021 -18.678  0.00  0.00     0.196 C 
HETATM   15  O           1     -31.081  -8.120 -18.974  0.00  0.00    -0.646 OA
HETATM   16  O           1     -29.024  -8.738 -19.258  0.00  0.00    -0.646 OA
ENDBRANCH   5  14
ENDBRANCH   2   5
BRANCH   3  17
HETATM   17  C           1     -25.759  -6.345 -16.763  0.00  0.00     0.298 C 
BRANCH  17  18
HETATM   18  C           1     -25.205  -7.181 -17.909  0.00  0.00     0.224 C 
BRANCH  18  19
HETATM   19  O           1     -25.001  -6.361 -19.029  0.00  0.00    -0.287 OA
BRANCH  19  20
HETATM   20  P           1     -25.289  -7.041 -20.465  0.00  0.00     0.406 P 
HETATM   21  O           1     -25.169  -6.018 -21.527  0.00  0.00    -0.624 OA
HETATM   22  O           1     -24.306  -8.121 -20.706  0.00  0.00    -0.624 OA
BRANCH  20  23
HETATM   23  O           1     -26.781  -7.659 -20.480  0.00  0.00    -0.300 OA
HETATM   24  H           1     -27.150  -7.426 -19.645  0.00  0.00     0.223 HD
ENDBRANCH  20  23
ENDBRANCH  19  20
ENDBRANCH  18  19
ENDBRANCH  17  18
BRANCH  17  25
HETATM   25  N           1     -25.074  -6.731 -15.486  0.00  0.00    -0.064 N 
HETATM   26  H           1     -24.700  -5.874 -15.019  0.00  0.00     0.275 HD
HETATM   27  H           1     -25.758  -7.203 -14.852  0.00  0.00     0.275 HD
HETATM   28  H           1     -24.286  -7.385 -15.697  0.00  0.00     0.275 HD
ENDBRANCH  17  25
ENDBRANCH   3  17
TORSDOF 13
ENDMDL
MODEL 5
REMARK VINA RESULT:      -5.5      4.995      8.428
REMARK  13 active torsions:
REMARK  status: ('A' for Active; 'I' for Inactive)
REMARK    1  A    between atoms: N_6  and  C_7 
REMARK    2  A    between atoms: C_7  and  C_8 
REMARK    3  A    between atoms: C_8  and  C_9 
REMARK    4  A    between atoms: C_9  and  C_10 
REMARK    5  A    between atoms: C_10  and  C_11 
REMARK    6  A    between atoms: C_11  and  C_12 
REMARK    7  A    between atoms: C_11  and  N_15 
REMARK       I    between atoms: N_15  and  C_16 
REMARK    8  A    between atoms: C_16  and  C_17 
REMARK    9  A    between atoms: C_17  and  C_18 
REMARK   10  A    between atoms: C_17  and  N_24 
REMARK   11  A    between atoms: C_18  and  O_19 
REMARK   12  A    between atoms: O_19  and  P_20 
REMARK   13  A    between atoms: P_20  and  O_21 
ROOT
HETATM    1  O           1     -21.879  -7.483  -4.879  0.00  0.00    -0.271 OA
HETATM    2  N           1     -21.064  -5.413  -5.073  0.00  0.00    -0.345 N 
HETATM    3  C           1     -21.439  -6.500  -4.330  0.00  0.00     0.251 C 
HETATM    4  H           1     -20.695  -4.590  -4.613  0.00  0.00     0.163 HD
ENDROOT
BRANCH   2   5
HETATM    5  C           1     -21.193  -5.441  -6.517  0.00  0.00     0.185 C 
BRANCH   5   6
HETATM    6  C           1     -21.721  -4.098  -7.004  0.00  0.00     0.036 C 
BRANCH   6   7
HETATM    7  C           1     -23.037  -4.306  -7.742  0.00  0.00     0.004 C 
BRANCH   7   8
HETATM    8  C           1     -22.755  -4.667  -9.194  0.00  0.00     0.027 C 
BRANCH   8   9
HETATM    9  C           1     -21.769  -3.668  -9.784  0.00  0.00     0.229 C 
BRANCH   9  10
HETATM   10  N           1     -20.644  -4.405 -10.447  0.00  0.00    -0.079 N 
HETATM   11  H           1     -20.037  -4.842  -9.718  0.00  0.00     0.274 HD
HETATM   12  H           1     -21.035  -5.149 -11.068  0.00  0.00     0.274 HD
HETATM   13  H           1     -20.078  -3.736 -11.016  0.00  0.00     0.274 HD
ENDBRANCH   9  10
ENDBRANCH   8   9
ENDBRANCH   7   8
ENDBRANCH   6   7
ENDBRANCH   5   6
BRANCH   5  14
HETATM   14  C           1     -19.844  -5.706  -7.137  0.00  0.00     0.196 C 
HETATM   15  O           1     -19.214  -4.776  -7.686  0.00  0.00    -0.646 OA
HETATM   16  O           1     -19.356  -6.857  -7.103  0.00  0.00    -0.646 OA
ENDBRANCH   5  14
ENDBRANCH   2   5
BRANCH   3  17
HETATM   17  C           1     -21.304  -6.472  -2.828  0.00  0.00     0.298 C 
BRANCH  17  18
HETATM   18  C           1     -21.193  -7.896  -2.300  0.00  0.00     0.224 C 
BRANCH  18  19
HETATM   19  O           1     -20.753  -7.869  -0.969  0.00  0.00    -0.287 OA
BRANCH  19  20
HETATM   20  P           1     -21.710  -8.600   0.108  0.00  0.00     0.406 P 
HETATM   21  O           1     -21.989  -9.982  -0.340  0.00  0.00    -0.624 OA
HETATM   22  O           1     -21.036  -8.633   1.425  0.00  0.00    -0.624 OA
BRANCH  20  23
HETATM   23  O           1     -23.099  -7.785   0.235  0.00  0.00    -0.300 OA
HETATM   24  H           1     -22.847  -6.908   0.471  0.00  0.00     0.223 HD
ENDBRANCH  20  23
ENDBRANCH  19  20
ENDBRANCH  18  19
ENDBRANCH  17  18
BRANCH  17  25
HETATM   25  N           1     -22.510  -5.810  -2.231  0.00  0.00    -0.064 N 
HETATM   26  H           1     -22.737  -6.261  -1.316  0.00  0.00     0.275 HD
HETATM   27  H           1     -22.310  -4.795  -2.079  0.00  0.00     0.275 HD
HETATM   28  H           1     -23.321  -5.911  -2.881  0.00  0.00     0.275 HD
ENDBRANCH  17  25
ENDBRANCH   3  17
TORSDOF 13
ENDMDL
MODEL 6
REMARK VINA RESULT:      -5.4     18.271     20.395
REMARK  13 active torsions:
REMARK  status: ('A' for Active; 'I' for Inactive)
REMARK    1  A    between atoms: N_6  and  C_7 
REMARK    2  A    between atoms: C_7  and  C_8 
REMARK    3  A    between atoms: C_8  and  C_9 
REMARK    4  A    between atoms: C_9  and  C_10 
REMARK    5  A    between atoms: C_10  and  C_11 
REMARK    6  A    between atoms: C_11  and  C_12 
REMARK    7  A    between atoms: C_11  and  N_15 
REMARK       I    between atoms: N_15  and  C_16 
REMARK    8  A    between atoms: C_16  and  C_17 
REMARK    9  A    between atoms: C_17  and  C_18 
REMARK   10  A    between atoms: C_17  and  N_24 
REMARK   11  A    between atoms: C_18  and  O_19 
REMARK   12  A    between atoms: O_19  and  P_20 
REMARK   13  A    between atoms: P_20  and  O_21 
ROOT
HETATM    1  O           1     -13.768   8.057 -22.426  0.00  0.00    -0.271 OA
HETATM    2  N           1     -12.876   6.037 -22.092  0.00  0.00    -0.345 N 
HETATM    3  C           1     -12.781   7.359 -22.433  0.00  0.00     0.251 C 
HETATM    4  H           1     -12.049   5.452 -22.097  0.00  0.00     0.163 HD
ENDROOT
BRANCH   2   5
HETATM    5  C           1     -14.159   5.473 -21.721  0.00  0.00     0.185 C 
BRANCH   5   6
HETATM    6  C           1     -14.270   4.059 -22.275  0.00  0.00     0.036 C 
BRANCH   6   7
HETATM    7  C           1     -12.880   3.449 -22.398  0.00  0.00     0.004 C 
BRANCH   7   8
HETATM    8  C           1     -12.608   2.555 -21.196  0.00  0.00     0.027 C 
BRANCH   8   9
HETATM    9  C           1     -11.139   2.656 -20.809  0.00  0.00     0.229 C 
BRANCH   9  10
HETATM   10  N           1     -10.904   3.936 -20.062  0.00  0.00    -0.079 N 
HETATM   11  H           1     -11.794   4.482 -20.019  0.00  0.00     0.274 HD
HETATM   12  H           1     -10.583   3.717 -19.092  0.00  0.00     0.274 HD
HETATM   13  H           1     -10.174   4.497 -20.554  0.00  0.00     0.274 HD
ENDBRANCH   9  10
ENDBRANCH   8   9
ENDBRANCH   7   8
ENDBRANCH   6   7
ENDBRANCH   5   6
BRANCH   5  14
HETATM   14  C           1     -14.276   5.436 -20.218  0.00  0.00     0.196 C 
HETATM   15  O           1     -15.401   5.334 -19.681  0.00  0.00    -0.646 OA
HETATM   16  O           1     -13.249   5.506 -19.509  0.00  0.00    -0.646 OA
ENDBRANCH   5  14
ENDBRANCH   2   5
BRANCH   3  17
HETATM   17  C           1     -11.445   7.945 -22.818  0.00  0.00     0.298 C 
BRANCH  17  18
HETATM   18  C           1     -10.405   7.571 -21.770  0.00  0.00     0.224 C 
BRANCH  18  19
HETATM   19  O           1     -10.320   8.591 -20.811  0.00  0.00    -0.287 OA
BRANCH  19  20
HETATM   20  P           1     -10.748   8.185 -19.308  0.00  0.00     0.406 P 
HETATM   21  O           1     -10.302   6.803 -19.025  0.00  0.00    -0.624 OA
HETATM   22  O           1     -10.114   9.116 -18.346  0.00  0.00    -0.624 OA
BRANCH  20  23
HETATM   23  O           1     -12.353   8.273 -19.161  0.00  0.00    -0.300 OA
HETATM   24  H           1     -12.523   9.147 -18.853  0.00  0.00     0.223 HD
ENDBRANCH  20  23
ENDBRANCH  19  20
ENDBRANCH  18  19
ENDBRANCH  17  18
BRANCH  17  25
HETATM   25  N           1     -11.560   9.438 -22.898  0.00  0.00    -0.064 N 
HETATM   26  H           1     -10.610   9.865 -22.816  0.00  0.00     0.275 HD
HETATM   27  H           1     -11.985   9.706 -23.815  0.00  0.00     0.275 HD
HETATM   28  H           1     -12.166   9.783 -22.120  0.00  0.00     0.275 HD
ENDBRANCH  17  25
ENDBRANCH   3  17
TORSDOF 13
ENDMDL
MODEL 7
REMARK VINA RESULT:      -5.3      3.762      7.139
REMARK  13 active torsions:
REMARK  status: ('A' for Active; 'I' for Inactive)
REMARK    1  A    between atoms: N_6  and  C_7 
REMARK    2  A    between atoms: C_7  and  C_8 
REMARK    3  A    between atoms: C_8  and  C_9 
REMARK    4  A    between atoms: C_9  and  C_10 
REMARK    5  A    between atoms: C_10  and  C_11 
REMARK    6  A    between atoms: C_11  and  C_12 
REMARK    7  A    between atoms: C_11  and  N_15 
REMARK       I    between atoms: N_15  and  C_16 
REMARK    8  A    between atoms: C_16  and  C_17 
REMARK    9  A    between atoms: C_17  and  C_18 
REMARK   10  A    between atoms: C_17  and  N_24 
REMARK   11  A    between atoms: C_18  and  O_19 
REMARK   12  A    between atoms: O_19  and  P_20 
REMARK   13  A    between atoms: P_20  and  O_21 
ROOT
HETATM    1  O           1     -22.878  -6.226  -5.127  0.00  0.00    -0.271 OA
HETATM    2  N           1     -20.814  -5.554  -5.652  0.00  0.00    -0.345 N 
HETATM    3  C           1     -21.740  -6.035  -4.767  0.00  0.00     0.251 C 
HETATM    4  H           1     -19.860  -5.395  -5.350  0.00  0.00     0.163 HD
ENDROOT
BRANCH   2   5
HETATM    5  C           1     -21.197  -5.272  -7.022  0.00  0.00     0.185 C 
BRANCH   5   6
HETATM    6  C           1     -22.077  -4.030  -7.057  0.00  0.00     0.036 C 
BRANCH   6   7
HETATM    7  C           1     -23.301  -4.298  -7.922  0.00  0.00     0.004 C 
BRANCH   7   8
HETATM    8  C           1     -23.101  -3.669  -9.295  0.00  0.00     0.027 C 
BRANCH   8   9
HETATM    9  C           1     -24.248  -4.073 -10.211  0.00  0.00     0.229 C 
BRANCH   9  10
HETATM   10  N           1     -25.538  -3.539  -9.664  0.00  0.00    -0.079 N 
HETATM   11  H           1     -26.340  -4.008 -10.141  0.00  0.00     0.274 HD
HETATM   12  H           1     -25.585  -3.729  -8.637  0.00  0.00     0.274 HD
HETATM   13  H           1     -25.588  -2.509  -9.832  0.00  0.00     0.274 HD
ENDBRANCH   9  10
ENDBRANCH   8   9
ENDBRANCH   7   8
ENDBRANCH   6   7
ENDBRANCH   5   6
BRANCH   5  14
HETATM   14  C           1     -19.959  -5.036  -7.850  0.00  0.00     0.196 C 
HETATM   15  O           1     -20.008  -5.147  -9.095  0.00  0.00    -0.646 OA
HETATM   16  O           1     -18.882  -4.728  -7.293  0.00  0.00    -0.646 OA
ENDBRANCH   5  14
ENDBRANCH   2   5
BRANCH   3  17
HETATM   17  C           1     -21.341  -6.329  -3.341  0.00  0.00     0.298 C 
BRANCH  17  18
HETATM   18  C           1     -21.080  -7.821  -3.184  0.00  0.00     0.224 C 
BRANCH  18  19
HETATM   19  O           1     -21.110  -8.437  -4.444  0.00  0.00    -0.287 OA
BRANCH  19  20
HETATM   20  P           1     -19.706  -9.034  -4.973  0.00  0.00     0.406 P 
HETATM   21  O           1     -19.938 -10.354  -5.599  0.00  0.00    -0.624 OA
HETATM   22  O           1     -19.123  -8.109  -5.971  0.00  0.00    -0.624 OA
BRANCH  20  23
HETATM   23  O           1     -18.687  -9.198  -3.732  0.00  0.00    -0.300 OA
HETATM   24  H           1     -19.227  -9.136  -2.962  0.00  0.00     0.223 HD
ENDBRANCH  20  23
ENDBRANCH  19  20
ENDBRANCH  18  19
ENDBRANCH  17  18
BRANCH  17  25
HETATM   25  N           1     -22.448  -5.915  -2.418  0.00  0.00    -0.064 N 
HETATM   26  H           1     -23.139  -5.332  -2.943  0.00  0.00     0.275 HD
HETATM   27  H           1     -22.925  -6.766  -2.042  0.00  0.00     0.275 HD
HETATM   28  H           1     -22.053  -5.359  -1.627  0.00  0.00     0.275 HD
ENDBRANCH  17  25
ENDBRANCH   3  17
TORSDOF 13
ENDMDL
MODEL 8
REMARK VINA RESULT:      -5.3      2.447      3.312
REMARK  13 active torsions:
REMARK  status: ('A' for Active; 'I' for Inactive)
REMARK    1  A    between atoms: N_6  and  C_7 
REMARK    2  A    between atoms: C_7  and  C_8 
REMARK    3  A    between atoms: C_8  and  C_9 
REMARK    4  A    between atoms: C_9  and  C_10 
REMARK    5  A    between atoms: C_10  and  C_11 
REMARK    6  A    between atoms: C_11  and  C_12 
REMARK    7  A    between atoms: C_11  and  N_15 
REMARK       I    between atoms: N_15  and  C_16 
REMARK    8  A    between atoms: C_16  and  C_17 
REMARK    9  A    between atoms: C_17  and  C_18 
REMARK   10  A    between atoms: C_17  and  N_24 
REMARK   11  A    between atoms: C_18  and  O_19 
REMARK   12  A    between atoms: O_19  and  P_20 
REMARK   13  A    between atoms: P_20  and  O_21 
ROOT
HETATM    1  O           1     -23.300  -5.280  -6.119  0.00  0.00    -0.271 OA
HETATM    2  N           1     -21.269  -6.085  -5.654  0.00  0.00    -0.345 N 
HETATM    3  C           1     -22.107  -5.218  -6.303  0.00  0.00     0.251 C 
HETATM    4  H           1     -20.270  -6.033  -5.808  0.00  0.00     0.163 HD
ENDROOT
BRANCH   2   5
HETATM    5  C           1     -21.812  -7.076  -4.746  0.00  0.00     0.185 C 
BRANCH   5   6
HETATM    6  C           1     -21.046  -8.383  -4.906  0.00  0.00     0.036 C 
BRANCH   6   7
HETATM    7  C           1     -21.795  -9.502  -4.194  0.00  0.00     0.004 C 
BRANCH   7   8
HETATM    8  C           1     -20.796 -10.444  -3.536  0.00  0.00     0.027 C 
BRANCH   8   9
HETATM    9  C           1     -21.157 -10.624  -2.068  0.00  0.00     0.229 C 
BRANCH   9  10
HETATM   10  N           1     -20.664  -9.445  -1.282  0.00  0.00    -0.079 N 
HETATM   11  H           1     -20.829  -9.612  -0.264  0.00  0.00     0.274 HD
HETATM   12  H           1     -19.641  -9.318  -1.453  0.00  0.00     0.274 HD
HETATM   13  H           1     -21.179  -8.588  -1.582  0.00  0.00     0.274 HD
ENDBRANCH   9  10
ENDBRANCH   8   9
ENDBRANCH   7   8
ENDBRANCH   6   7
ENDBRANCH   5   6
BRANCH   5  14
HETATM   14  C           1     -21.678  -6.584  -3.327  0.00  0.00     0.196 C 
HETATM   15  O           1     -20.634  -6.818  -2.680  0.00  0.00    -0.646 OA
HETATM   16  O           1     -22.612  -5.943  -2.796  0.00  0.00    -0.646 OA
ENDBRANCH   5  14
ENDBRANCH   2   5
BRANCH   3  17
HETATM   17  C           1     -21.542  -4.186  -7.247  0.00  0.00     0.298 C 
BRANCH  17  18
HETATM   18  C           1     -22.129  -4.395  -8.638  0.00  0.00     0.224 C 
BRANCH  18  19
HETATM   19  O           1     -23.119  -3.431  -8.877  0.00  0.00    -0.287 OA
BRANCH  19  20
HETATM   20  P           1     -24.112  -3.729 -10.115  0.00  0.00     0.406 P 
HETATM   21  O           1     -23.678  -2.947 -11.293  0.00  0.00    -0.624 OA
HETATM   22  O           1     -24.075  -5.173 -10.440  0.00  0.00    -0.624 OA
BRANCH  20  23
HETATM   23  O           1     -25.618  -3.307  -9.714  0.00  0.00    -0.300 OA
HETATM   24  H           1     -25.861  -2.646 -10.340  0.00  0.00     0.223 HD
ENDBRANCH  20  23
ENDBRANCH  19  20
ENDBRANCH  18  19
ENDBRANCH  17  18
BRANCH  17  25
HETATM   25  N           1     -20.051  -4.328  -7.307  0.00  0.00    -0.064 N 
HETATM   26  H           1     -19.685  -3.809  -8.138  0.00  0.00     0.275 HD
HETATM   27  H           1     -19.628  -3.933  -6.436  0.00  0.00     0.275 HD
HETATM   28  H           1     -19.800  -5.339  -7.389  0.00  0.00     0.275 HD
ENDBRANCH  17  25
ENDBRANCH   3  17
TORSDOF 13
ENDMDL
MODEL 9
REMARK VINA RESULT:      -5.3      2.590      3.566
REMARK  13 active torsions:
REMARK  status: ('A' for Active; 'I' for Inactive)
REMARK    1  A    between atoms: N_6  and  C_7 
REMARK    2  A    between atoms: C_7  and  C_8 
REMARK    3  A    between atoms: C_8  and  C_9 
REMARK    4  A    between atoms: C_9  and  C_10 
REMARK    5  A    between atoms: C_10  and  C_11 
REMARK    6  A    between atoms: C_11  and  C_12 
REMARK    7  A    between atoms: C_11  and  N_15 
REMARK       I    between atoms: N_15  and  C_16 
REMARK    8  A    between atoms: C_16  and  C_17 
REMARK    9  A    between atoms: C_17  and  C_18 
REMARK   10  A    between atoms: C_17  and  N_24 
REMARK   11  A    between atoms: C_18  and  O_19 
REMARK   12  A    between atoms: O_19  and  P_20 
REMARK   13  A    between atoms: P_20  and  O_21 
ROOT
HETATM    1  O           1     -23.028  -5.483  -5.877  0.00  0.00    -0.271 OA
HETATM    2  N           1     -21.102  -6.387  -5.196  0.00  0.00    -0.345 N 
HETATM    3  C           1     -21.822  -5.511  -5.962  0.00  0.00     0.251 C 
HETATM    4  H           1     -20.092  -6.410  -5.267  0.00  0.00     0.163 HD
ENDROOT
BRANCH   2   5
HETATM    5  C           1     -21.785  -7.282  -4.282  0.00  0.00     0.185 C 
BRANCH   5   6
HETATM    6  C           1     -21.166  -8.670  -4.376  0.00  0.00     0.036 C 
BRANCH   6   7
HETATM    7  C           1     -19.843  -8.589  -5.126  0.00  0.00     0.004 C 
BRANCH   7   8
HETATM    8  C           1     -18.758  -9.292  -4.321  0.00  0.00     0.027 C 
BRANCH   8   9
HETATM    9  C           1     -17.707  -9.854  -5.269  0.00  0.00     0.229 C 
BRANCH   9  10
HETATM   10  N           1     -18.378 -10.414  -6.488  0.00  0.00    -0.079 N 
HETATM   11  H           1     -17.983  -9.962  -7.342  0.00  0.00     0.274 HD
HETATM   12  H           1     -18.214 -11.445  -6.531  0.00  0.00     0.274 HD
HETATM   13  H           1     -19.404 -10.226  -6.437  0.00  0.00     0.274 HD
ENDBRANCH   9  10
ENDBRANCH   8   9
ENDBRANCH   7   8
ENDBRANCH   6   7
ENDBRANCH   5   6
BRANCH   5  14
HETATM   14  C           1     -21.645  -6.763  -2.873  0.00  0.00     0.196 C 
HETATM   15  O           1     -22.427  -5.883  -2.450  0.00  0.00    -0.646 OA
HETATM   16  O           1     -20.747  -7.211  -2.127  0.00  0.00    -0.646 OA
ENDBRANCH   5  14
ENDBRANCH   2   5
BRANCH   3  17
HETATM   17  C           1     -21.112  -4.579  -6.913  0.00  0.00     0.298 C 
BRANCH  17  18
HETATM   18  C           1     -21.736  -4.693  -8.298  0.00  0.00     0.224 C 
BRANCH  18  19
HETATM   19  O           1     -22.505  -3.550  -8.560  0.00  0.00    -0.287 OA
BRANCH  19  20
HETATM   20  P           1     -23.597  -3.687  -9.743  0.00  0.00     0.406 P 
HETATM   21  O           1     -23.075  -3.047 -10.970  0.00  0.00    -0.624 OA
HETATM   22  O           1     -23.861  -5.120 -10.006  0.00  0.00    -0.624 OA
BRANCH  20  23
HETATM   23  O           1     -24.968  -2.961  -9.298  0.00  0.00    -0.300 OA
HETATM   24  H           1     -25.636  -3.350  -9.836  0.00  0.00     0.223 HD
ENDBRANCH  20  23
ENDBRANCH  19  20
ENDBRANCH  18  19
ENDBRANCH  17  18
BRANCH  17  25
HETATM   25  N           1     -19.661  -4.952  -6.987  0.00  0.00    -0.064 N 
HETATM   26  H           1     -19.126  -4.179  -7.443  0.00  0.00     0.275 HD
HETATM   27  H           1     -19.293  -5.108  -6.021  0.00  0.00     0.275 HD
HETATM   28  H           1     -19.554  -5.828  -7.546  0.00  0.00     0.275 HD
ENDBRANCH  17  25
ENDBRANCH   3  17
TORSDOF 13
ENDMDL
