MODEL 1
REMARK VINA RESULT:      -6.0      0.000      0.000
REMARK  5 active torsions:
REMARK  status: ('A' for Active; 'I' for Inactive)
REMARK    1  A    between atoms: C_2  and  C_7 
REMARK    2  A    between atoms: C_7  and  C_8 
REMARK    3  A    between atoms: C_7  and  N_15 
REMARK    4  A    between atoms: C_8  and  Se_12 
REMARK       I    between atoms: C_9  and  N_15 
REMARK    5  A    between atoms: C_9  and  C_10 
ROOT
HETATM    1  C           1     -34.249  -2.542 -12.501  0.00  0.00     0.251 C 
HETATM    2  H           1     -34.778  -0.875 -11.396  0.00  0.00     0.163 HD
HETATM    3  N           1     -34.922  -1.374 -12.264  0.00  0.00    -0.345 N 
HETATM    4  O           1     -34.420  -3.139 -13.537  0.00  0.00    -0.271 OA
ENDROOT
BRANCH   3   5
HETATM    5  C           1     -35.838  -0.851 -13.257  0.00  0.00     0.185 C 
BRANCH   5   6
HETATM    6  C           1     -35.123   0.160 -14.119  0.00  0.00     0.196 C 
HETATM    7  O           1     -34.896  -0.094 -15.323  0.00  0.00    -0.646 OA
HETATM    8  O           1     -34.758   1.251 -13.630  0.00  0.00    -0.646 OA
ENDBRANCH   5   6
BRANCH   5   9
HETATM    9  C           1     -37.015  -0.181 -12.560  0.00  0.00     0.039 C 
BRANCH   9  10
HETATM   10 Se           1     -36.870  -0.452 -10.634  0.00  0.00     0.000 Se
HETATM   11  H           1     -36.554   0.957 -10.344  0.00  0.00     0.000 HD
ENDBRANCH   9  10
ENDBRANCH   5   9
ENDBRANCH   3   5
BRANCH   1  12
HETATM   12  C           1     -33.295  -3.087 -11.466  0.00  0.00     0.311 C 
HETATM   13  C           1     -32.652  -4.376 -11.949  0.00  0.00     0.047 C 
HETATM   14  C           1     -33.517  -5.491 -11.370  0.00  0.00     0.033 C 
HETATM   15  C           1     -34.603  -4.781 -10.581  0.00  0.00     0.271 C 
HETATM   16  N           1     -34.010  -3.486 -10.257  0.00  0.00     0.097 N 
HETATM   17  H           1     -33.365  -3.593  -9.474  0.00  0.00     0.317 HD
ENDBRANCH   1  12
TORSDOF 5
ENDMDL
MODEL 2
REMARK VINA RESULT:      -5.5     12.391     13.783
REMARK  5 active torsions:
REMARK  status: ('A' for Active; 'I' for Inactive)
REMARK    1  A    between atoms: C_2  and  C_7 
REMARK    2  A    between atoms: C_7  and  C_8 
REMARK    3  A    between atoms: C_7  and  N_15 
REMARK    4  A    between atoms: C_8  and  Se_12 
REMARK       I    between atoms: C_9  and  N_15 
REMARK    5  A    between atoms: C_9  and  C_10 
ROOT
HETATM    1  C           1     -22.045  -4.532  -8.043  0.00  0.00     0.251 C 
HETATM    2  H           1     -22.096  -5.468  -9.887  0.00  0.00     0.163 HD
HETATM    3  N           1     -22.320  -4.621  -9.380  0.00  0.00    -0.345 N 
HETATM    4  O           1     -22.310  -3.521  -7.437  0.00  0.00    -0.271 OA
ENDROOT
BRANCH   3   5
HETATM    5  C           1     -22.932  -3.504 -10.071  0.00  0.00     0.185 C 
BRANCH   5   6
HETATM    6  C           1     -24.366  -3.839 -10.397  0.00  0.00     0.196 C 
HETATM    7  O           1     -25.004  -3.134 -11.210  0.00  0.00    -0.646 OA
HETATM    8  O           1     -24.917  -4.822  -9.855  0.00  0.00    -0.646 OA
ENDBRANCH   5   6
BRANCH   5   9
HETATM    9  C           1     -22.171  -3.224 -11.360  0.00  0.00     0.039 C 
BRANCH   9  10
HETATM   10 Se           1     -20.355  -3.919 -11.208  0.00  0.00     0.000 Se
HETATM   11  H           1     -20.503  -4.872 -12.320  0.00  0.00     0.000 HD
ENDBRANCH   9  10
ENDBRANCH   5   9
ENDBRANCH   3   5
BRANCH   1  12
HETATM   12  C           1     -21.406  -5.696  -7.324  0.00  0.00     0.311 C 
HETATM   13  C           1     -21.280  -5.409  -5.837  0.00  0.00     0.047 C 
HETATM   14  C           1     -19.872  -4.854  -5.658  0.00  0.00     0.033 C 
HETATM   15  C           1     -19.264  -4.859  -7.050  0.00  0.00     0.271 C 
HETATM   16  N           1     -20.026  -5.883  -7.760  0.00  0.00     0.097 N 
HETATM   17  H           1     -19.684  -6.807  -7.494  0.00  0.00     0.317 HD
ENDBRANCH   1  12
TORSDOF 5
ENDMDL
MODEL 3
REMARK VINA RESULT:      -5.1      3.003      5.238
REMARK  5 active torsions:
REMARK  status: ('A' for Active; 'I' for Inactive)
REMARK    1  A    between atoms: C_2  and  C_7 
REMARK    2  A    between atoms: C_7  and  C_8 
REMARK    3  A    between atoms: C_7  and  N_15 
REMARK    4  A    between atoms: C_8  and  Se_12 
REMARK       I    between atoms: C_9  and  N_15 
REMARK    5  A    between atoms: C_9  and  C_10 
ROOT
HETATM    1  C           1     -35.411  -1.100 -14.435  0.00  0.00     0.251 C 
HETATM    2  H           1     -36.055   0.266 -13.022  0.00  0.00     0.163 HD
HETATM    3  N           1     -35.713  -0.674 -13.170  0.00  0.00    -0.345 N 
HETATM    4  O           1     -35.001  -2.223 -14.613  0.00  0.00    -0.271 OA
ENDROOT
BRANCH   3   5
HETATM    5  C           1     -35.542  -1.569 -12.043  0.00  0.00     0.185 C 
BRANCH   5   6
HETATM    6  C           1     -36.464  -1.150 -10.925  0.00  0.00     0.196 C 
HETATM    7  O           1     -35.989  -0.749  -9.840  0.00  0.00    -0.646 OA
HETATM    8  O           1     -37.703  -1.204 -11.083  0.00  0.00    -0.646 OA
ENDBRANCH   5   6
BRANCH   5   9
HETATM    9  C           1     -34.099  -1.508 -11.560  0.00  0.00     0.039 C 
BRANCH   9  10
HETATM   10 Se           1     -33.385  -3.317 -11.411  0.00  0.00     0.000 Se
HETATM   11  H           1     -32.869  -3.124 -10.046  0.00  0.00     0.000 HD
ENDBRANCH   9  10
ENDBRANCH   5   9
ENDBRANCH   3   5
BRANCH   1  12
HETATM   12  C           1     -35.588  -0.168 -15.609  0.00  0.00     0.311 C 
HETATM   13  C           1     -36.501   0.991 -15.246  0.00  0.00     0.047 C 
HETATM   14  C           1     -37.890   0.560 -15.702  0.00  0.00     0.033 C 
HETATM   15  C           1     -37.698  -0.819 -16.310  0.00  0.00     0.271 C 
HETATM   16  N           1     -36.291  -0.835 -16.702  0.00  0.00     0.097 N 
HETATM   17  H           1     -36.174  -0.320 -17.574  0.00  0.00     0.317 HD
ENDBRANCH   1  12
TORSDOF 5
ENDMDL
MODEL 4
REMARK VINA RESULT:      -5.1      3.350      5.087
REMARK  5 active torsions:
REMARK  status: ('A' for Active; 'I' for Inactive)
REMARK    1  A    between atoms: C_2  and  C_7 
REMARK    2  A    between atoms: C_7  and  C_8 
REMARK    3  A    between atoms: C_7  and  N_15 
REMARK    4  A    between atoms: C_8  and  Se_12 
REMARK       I    between atoms: C_9  and  N_15 
REMARK    5  A    between atoms: C_9  and  C_10 
ROOT
HETATM    1  C           1     -36.616   0.065 -10.312  0.00  0.00     0.251 C 
HETATM    2  H           1     -36.657  -1.996 -10.495  0.00  0.00     0.163 HD
HETATM    3  N           1     -36.185  -1.148 -10.779  0.00  0.00    -0.345 N 
HETATM    4  O           1     -36.051   1.078 -10.650  0.00  0.00    -0.271 OA
ENDROOT
BRANCH   3   5
HETATM    5  C           1     -35.052  -1.216 -11.680  0.00  0.00     0.185 C 
BRANCH   5   6
HETATM    6  C           1     -35.543  -1.434 -13.090  0.00  0.00     0.196 C 
HETATM    7  O           1     -36.677  -1.029 -13.426  0.00  0.00    -0.646 OA
HETATM    8  O           1     -34.816  -2.020 -13.922  0.00  0.00    -0.646 OA
ENDBRANCH   5   6
BRANCH   5   9
HETATM    9  C           1     -34.148  -2.374 -11.274  0.00  0.00     0.039 C 
BRANCH   9  10
HETATM   10 Se           1     -35.222  -3.984 -11.035  0.00  0.00     0.000 Se
HETATM   11  H           1     -35.545  -4.120 -12.465  0.00  0.00     0.000 HD
ENDBRANCH   9  10
ENDBRANCH   5   9
ENDBRANCH   3   5
BRANCH   1  12
HETATM   12  C           1     -37.795   0.136  -9.373  0.00  0.00     0.311 C 
HETATM   13  C           1     -38.075   1.573  -8.965  0.00  0.00     0.047 C 
HETATM   14  C           1     -37.335   1.762  -7.646  0.00  0.00     0.033 C 
HETATM   15  C           1     -36.678   0.422  -7.364  0.00  0.00     0.271 C 
HETATM   16  N           1     -37.496  -0.532  -8.110  0.00  0.00     0.097 N 
HETATM   17  H           1     -38.352  -0.725  -7.591  0.00  0.00     0.317 HD
ENDBRANCH   1  12
TORSDOF 5
ENDMDL
MODEL 5
REMARK VINA RESULT:      -5.0      1.988      5.089
REMARK  5 active torsions:
REMARK  status: ('A' for Active; 'I' for Inactive)
REMARK    1  A    between atoms: C_2  and  C_7 
REMARK    2  A    between atoms: C_7  and  C_8 
REMARK    3  A    between atoms: C_7  and  N_15 
REMARK    4  A    between atoms: C_8  and  Se_12 
REMARK       I    between atoms: C_9  and  N_15 
REMARK    5  A    between atoms: C_9  and  C_10 
ROOT
HETATM    1  C           1     -35.287  -1.792 -13.667  0.00  0.00     0.251 C 
HETATM    2  H           1     -35.249  -2.109 -11.622  0.00  0.00     0.163 HD
HETATM    3  N           1     -34.912  -2.436 -12.518  0.00  0.00    -0.345 N 
HETATM    4  O           1     -34.884  -2.181 -14.737  0.00  0.00    -0.271 OA
ENDROOT
BRANCH   3   5
HETATM    5  C           1     -34.032  -3.586 -12.586  0.00  0.00     0.185 C 
BRANCH   5   6
HETATM    6  C           1     -34.821  -4.839 -12.300  0.00  0.00     0.196 C 
HETATM    7  O           1     -35.228  -5.551 -13.245  0.00  0.00    -0.646 OA
HETATM    8  O           1     -35.068  -5.167 -11.119  0.00  0.00    -0.646 OA
ENDBRANCH   5   6
BRANCH   5   9
HETATM    9  C           1     -32.923  -3.438 -11.552  0.00  0.00     0.039 C 
BRANCH   9  10
HETATM   10 Se           1     -33.379  -2.009 -10.307  0.00  0.00     0.000 Se
HETATM   11  H           1     -34.662  -2.610  -9.907  0.00  0.00     0.000 HD
ENDBRANCH   9  10
ENDBRANCH   5   9
ENDBRANCH   3   5
BRANCH   1  12
HETATM   12  C           1     -36.203  -0.594 -13.596  0.00  0.00     0.311 C 
HETATM   13  C           1     -36.373   0.037 -14.968  0.00  0.00     0.047 C 
HETATM   14  C           1     -35.335   1.151 -15.024  0.00  0.00     0.033 C 
HETATM   15  C           1     -34.630   1.104 -13.679  0.00  0.00     0.271 C 
HETATM   16  N           1     -35.605   0.471 -12.795  0.00  0.00     0.097 N 
HETATM   17  H           1     -36.310   1.154 -12.520  0.00  0.00     0.317 HD
ENDBRANCH   1  12
TORSDOF 5
ENDMDL
MODEL 6
REMARK VINA RESULT:      -4.8     14.992     16.603
REMARK  5 active torsions:
REMARK  status: ('A' for Active; 'I' for Inactive)
REMARK    1  A    between atoms: C_2  and  C_7 
REMARK    2  A    between atoms: C_7  and  C_8 
REMARK    3  A    between atoms: C_7  and  N_15 
REMARK    4  A    between atoms: C_8  and  Se_12 
REMARK       I    between atoms: C_9  and  N_15 
REMARK    5  A    between atoms: C_9  and  C_10 
ROOT
HETATM    1  C           1     -21.451  -5.349  -5.686  0.00  0.00     0.251 C 
HETATM    2  H           1     -19.735  -5.970  -4.712  0.00  0.00     0.163 HD
HETATM    3  N           1     -20.724  -6.142  -4.841  0.00  0.00    -0.345 N 
HETATM    4  O           1     -22.632  -5.554  -5.842  0.00  0.00    -0.271 OA
ENDROOT
BRANCH   3   5
HETATM    5  C           1     -21.370  -7.227  -4.130  0.00  0.00     0.185 C 
BRANCH   5   6
HETATM    6  C           1     -21.577  -6.831  -2.689  0.00  0.00     0.196 C 
HETATM    7  O           1     -22.451  -5.986  -2.392  0.00  0.00    -0.646 OA
HETATM    8  O           1     -20.877  -7.348  -1.791  0.00  0.00    -0.646 OA
ENDBRANCH   5   6
BRANCH   5   9
HETATM    9  C           1     -20.491  -8.470  -4.192  0.00  0.00     0.039 C 
BRANCH   9  10
HETATM   10 Se           1     -21.609 -10.064  -4.096  0.00  0.00     0.000 Se
HETATM   11  H           1     -22.876  -9.322  -4.200  0.00  0.00     0.000 HD
ENDBRANCH   9  10
ENDBRANCH   5   9
ENDBRANCH   3   5
BRANCH   1  12
HETATM   12  C           1     -20.779  -4.219  -6.428  0.00  0.00     0.311 C 
HETATM   13  C           1     -21.670  -3.697  -7.541  0.00  0.00     0.047 C 
HETATM   14  C           1     -21.224  -4.446  -8.791  0.00  0.00     0.033 C 
HETATM   15  C           1     -20.095  -5.351  -8.329  0.00  0.00     0.271 C 
HETATM   16  N           1     -19.588  -4.693  -7.128  0.00  0.00     0.097 N 
HETATM   17  H           1     -18.991  -3.910  -7.395  0.00  0.00     0.317 HD
ENDBRANCH   1  12
TORSDOF 5
ENDMDL
MODEL 7
REMARK VINA RESULT:      -4.8     24.990     25.798
REMARK  5 active torsions:
REMARK  status: ('A' for Active; 'I' for Inactive)
REMARK    1  A    between atoms: C_2  and  C_7 
REMARK    2  A    between atoms: C_7  and  C_8 
REMARK    3  A    between atoms: C_7  and  N_15 
REMARK    4  A    between atoms: C_8  and  Se_12 
REMARK       I    between atoms: C_9  and  N_15 
REMARK    5  A    between atoms: C_9  and  C_10 
ROOT
HETATM    1  C           1     -12.185   7.186 -20.495  0.00  0.00     0.251 C 
HETATM    2  H           1     -11.719   5.278 -19.846  0.00  0.00     0.163 HD
HETATM    3  N           1     -12.307   5.823 -20.462  0.00  0.00    -0.345 N 
HETATM    4  O           1     -12.887   7.838 -21.231  0.00  0.00    -0.271 OA
ENDROOT
BRANCH   3   5
HETATM    5  C           1     -13.280   5.162 -21.309  0.00  0.00     0.185 C 
BRANCH   5   6
HETATM    6  C           1     -14.585   5.027 -20.565  0.00  0.00     0.196 C 
HETATM    7  O           1     -14.588   4.673 -19.366  0.00  0.00    -0.646 OA
HETATM    8  O           1     -15.664   5.271 -21.148  0.00  0.00    -0.646 OA
ENDBRANCH   5   6
BRANCH   5   9
HETATM    9  C           1     -12.766   3.778 -21.686  0.00  0.00     0.039 C 
BRANCH   9  10
HETATM   10 Se           1     -11.360   3.244 -20.445  0.00  0.00     0.000 Se
HETATM   11  H           1     -12.117   2.107 -19.897  0.00  0.00     0.000 HD
ENDBRANCH   9  10
ENDBRANCH   5   9
ENDBRANCH   3   5
BRANCH   1  12
HETATM   12  C           1     -11.172   7.875 -19.613  0.00  0.00     0.311 C 
HETATM   13  C           1     -10.812   9.242 -20.170  0.00  0.00     0.047 C 
HETATM   14  C           1      -9.556   9.013 -21.003  0.00  0.00     0.033 C 
HETATM   15  C           1      -9.259   7.530 -20.873  0.00  0.00     0.271 C 
HETATM   16  N           1      -9.903   7.153 -19.617  0.00  0.00     0.097 N 
HETATM   17  H           1      -9.319   7.445 -18.833  0.00  0.00     0.317 HD
ENDBRANCH   1  12
TORSDOF 5
ENDMDL
MODEL 8
REMARK VINA RESULT:      -4.7     25.174     26.003
REMARK  5 active torsions:
REMARK  status: ('A' for Active; 'I' for Inactive)
REMARK    1  A    between atoms: C_2  and  C_7 
REMARK    2  A    between atoms: C_7  and  C_8 
REMARK    3  A    between atoms: C_7  and  N_15 
REMARK    4  A    between atoms: C_8  and  Se_12 
REMARK       I    between atoms: C_9  and  N_15 
REMARK    5  A    between atoms: C_9  and  C_10 
ROOT
HETATM    1  C           1     -11.800   6.525 -19.934  0.00  0.00     0.251 C 
HETATM    2  H           1     -10.741   5.057 -20.936  0.00  0.00     0.163 HD
HETATM    3  N           1     -11.663   5.383 -20.676  0.00  0.00    -0.345 N 
HETATM    4  O           1     -12.900   6.916 -19.624  0.00  0.00    -0.271 OA
ENDROOT
BRANCH   3   5
HETATM    5  C           1     -12.837   4.640 -21.088  0.00  0.00     0.185 C 
BRANCH   5   6
HETATM    6  C           1     -12.556   3.161 -20.992  0.00  0.00     0.196 C 
HETATM    7  O           1     -13.429   2.335 -21.338  0.00  0.00    -0.646 OA
HETATM    8  O           1     -11.450   2.762 -20.566  0.00  0.00    -0.646 OA
ENDBRANCH   5   6
BRANCH   5   9
HETATM    9  C           1     -13.185   4.997 -22.527  0.00  0.00     0.039 C 
BRANCH   9  10
HETATM   10 Se           1     -15.098   5.354 -22.665  0.00  0.00     0.000 Se
HETATM   11  H           1     -15.428   4.701 -21.387  0.00  0.00     0.000 HD
ENDBRANCH   9  10
ENDBRANCH   5   9
ENDBRANCH   3   5
BRANCH   1  12
HETATM   12  C           1     -10.577   7.299 -19.506  0.00  0.00     0.311 C 
HETATM   13  C           1     -10.915   8.764 -19.283  0.00  0.00     0.047 C 
HETATM   14  C           1     -10.579   9.453 -20.601  0.00  0.00     0.033 C 
HETATM   15  C           1     -10.059   8.349 -21.505  0.00  0.00     0.271 C 
HETATM   16  N           1      -9.581   7.330 -20.573  0.00  0.00     0.097 N 
HETATM   17  H           1      -8.669   7.604 -20.209  0.00  0.00     0.317 HD
ENDBRANCH   1  12
TORSDOF 5
ENDMDL
MODEL 9
REMARK VINA RESULT:      -4.6      2.488      5.226
REMARK  5 active torsions:
REMARK  status: ('A' for Active; 'I' for Inactive)
REMARK    1  A    between atoms: C_2  and  C_7 
REMARK    2  A    between atoms: C_7  and  C_8 
REMARK    3  A    between atoms: C_7  and  N_15 
REMARK    4  A    between atoms: C_8  and  Se_12 
REMARK       I    between atoms: C_9  and  N_15 
REMARK    5  A    between atoms: C_9  and  C_10 
ROOT
HETATM    1  C           1     -35.132  -1.216 -13.192  0.00  0.00     0.251 C 
HETATM    2  H           1     -34.770  -1.618 -11.195  0.00  0.00     0.163 HD
HETATM    3  N           1     -34.687  -1.970 -12.140  0.00  0.00    -0.345 N 
HETATM    4  O           1     -35.033  -1.635 -14.321  0.00  0.00    -0.271 OA
ENDROOT
BRANCH   3   5
HETATM    5  C           1     -34.099  -3.273 -12.379  0.00  0.00     0.185 C 
BRANCH   5   6
HETATM    6  C           1     -35.088  -4.348 -12.006  0.00  0.00     0.196 C 
HETATM    7  O           1     -35.763  -4.241 -10.958  0.00  0.00    -0.646 OA
HETATM    8  O           1     -35.235  -5.346 -12.745  0.00  0.00    -0.646 OA
ENDBRANCH   5   6
BRANCH   5   9
HETATM    9  C           1     -32.841  -3.425 -11.533  0.00  0.00     0.039 C 
BRANCH   9  10
HETATM   10 Se           1     -31.829  -4.975 -12.144  0.00  0.00     0.000 Se
HETATM   11  H           1     -32.283  -4.865 -13.541  0.00  0.00     0.000 HD
ENDBRANCH   9  10
ENDBRANCH   5   9
ENDBRANCH   3   5
BRANCH   1  12
HETATM   12  C           1     -35.745   0.141 -12.943  0.00  0.00     0.311 C 
HETATM   13  C           1     -36.618   0.119 -11.700  0.00  0.00     0.047 C 
HETATM   14  C           1     -38.030  -0.144 -12.212  0.00  0.00     0.033 C 
HETATM   15  C           1     -37.891  -0.251 -13.720  0.00  0.00     0.271 C 
HETATM   16  N           1     -36.672   0.497 -14.014  0.00  0.00     0.097 N 
HETATM   17  H           1     -36.874   1.497 -13.999  0.00  0.00     0.317 HD
ENDBRANCH   1  12
TORSDOF 5
ENDMDL
