MODEL 1
REMARK VINA RESULT:      -6.6      0.000      0.000
REMARK  12 active torsions:
REMARK  status: ('A' for Active; 'I' for Inactive)
REMARK       I    between atoms: C_1  and  N_27 
REMARK    1  A    between atoms: C_1  and  C_3 
REMARK    2  A    between atoms: N_2  and  C_12 
REMARK    3  A    between atoms: C_3  and  C_11 
REMARK    4  A    between atoms: C_3  and  N_4 
REMARK    5  A    between atoms: P_5  and  O_9 
REMARK    6  A    between atoms: P_5  and  O_20 
REMARK    7  A    between atoms: O_9  and  C_14 
REMARK    8  A    between atoms: C_11  and  C_21 
REMARK    9  A    between atoms: C_12  and  C_21 
REMARK   10  A    between atoms: C_14  and  C_25 
REMARK   11  A    between atoms: C_24  and  C_25 
REMARK   12  A    between atoms: C_25  and  N_27 
ROOT
HETATM    1  C           1     -21.489  -4.369  -8.169  0.00  0.00     0.249 C 
HETATM    2  H           1     -21.690  -5.465  -9.914  0.00  0.00     0.163 HD
HETATM    3  O           1     -21.750  -3.326  -7.620  0.00  0.00    -0.271 OA
HETATM    4  N           1     -21.908  -4.590  -9.453  0.00  0.00    -0.343 N 
ENDROOT
BRANCH   1   5
HETATM    5  C           1     -20.701  -5.430  -7.439  0.00  0.00     0.274 C 
BRANCH   5   6
HETATM    6  C           1     -21.567  -6.045  -6.347  0.00  0.00     0.044 C 
BRANCH   6   7
HETATM    7  C           1     -20.905  -5.829  -4.992  0.00  0.00     0.030 C 
BRANCH   7   8
HETATM    8  C           1     -21.522  -6.773  -3.969  0.00  0.00     0.230 C 
BRANCH   8   9
HETATM    9  N           1     -21.985  -5.986  -2.778  0.00  0.00    -0.079 N 
HETATM   10  H           1     -21.215  -5.358  -2.455  0.00  0.00     0.274 HD
HETATM   11  H           1     -22.244  -6.643  -2.007  0.00  0.00     0.274 HD
HETATM   12  H           1     -22.816  -5.412  -3.042  0.00  0.00     0.274 HD
ENDBRANCH   8   9
ENDBRANCH   7   8
ENDBRANCH   6   7
ENDBRANCH   5   6
BRANCH   5  13
HETATM   13  N           1     -19.484  -4.810  -6.821  0.00  0.00    -0.067 N 
HETATM   14  H           1     -18.833  -4.492  -7.575  0.00  0.00     0.275 HD
HETATM   15  H           1     -19.767  -3.990  -6.238  0.00  0.00     0.275 HD
HETATM   16  H           1     -19.001  -5.515  -6.219  0.00  0.00     0.275 HD
ENDBRANCH   5  13
ENDBRANCH   1   5
BRANCH   4  17
HETATM   17  C           1     -22.665  -3.571 -10.154  0.00  0.00     0.210 C 
BRANCH  17  18
HETATM   18  C           1     -22.340  -3.630 -11.641  0.00  0.00     0.217 C 
BRANCH  18  19
HETATM   19  O           1     -22.832  -2.479 -12.273  0.00  0.00    -0.287 OA
BRANCH  19  20
HETATM   20  P           1     -23.600  -2.716 -13.674  0.00  0.00     0.406 P 
HETATM   21  O           1     -24.399  -3.959 -13.596  0.00  0.00    -0.624 OA
HETATM   22  O           1     -22.607  -2.836 -14.766  0.00  0.00    -0.624 OA
BRANCH  20  23
HETATM   23  O           1     -24.578  -1.465 -13.970  0.00  0.00    -0.300 OA
HETATM   24  H           1     -25.306  -1.831 -14.441  0.00  0.00     0.223 HD
ENDBRANCH  20  23
ENDBRANCH  19  20
ENDBRANCH  18  19
ENDBRANCH  17  18
BRANCH  17  25
HETATM   25  C           1     -24.141  -3.813  -9.951  0.00  0.00     0.198 C 
HETATM   26  O           1     -24.608  -4.965 -10.074  0.00  0.00    -0.646 OA
HETATM   27  O           1     -24.896  -2.860  -9.660  0.00  0.00    -0.646 OA
ENDBRANCH  17  25
ENDBRANCH   4  17
TORSDOF 12
ENDMDL
MODEL 2
REMARK VINA RESULT:      -5.8      1.840      2.227
REMARK  12 active torsions:
REMARK  status: ('A' for Active; 'I' for Inactive)
REMARK       I    between atoms: C_1  and  N_27 
REMARK    1  A    between atoms: C_1  and  C_3 
REMARK    2  A    between atoms: N_2  and  C_12 
REMARK    3  A    between atoms: C_3  and  C_11 
REMARK    4  A    between atoms: C_3  and  N_4 
REMARK    5  A    between atoms: P_5  and  O_9 
REMARK    6  A    between atoms: P_5  and  O_20 
REMARK    7  A    between atoms: O_9  and  C_14 
REMARK    8  A    between atoms: C_11  and  C_21 
REMARK    9  A    between atoms: C_12  and  C_21 
REMARK   10  A    between atoms: C_14  and  C_25 
REMARK   11  A    between atoms: C_24  and  C_25 
REMARK   12  A    between atoms: C_25  and  N_27 
ROOT
HETATM    1  C           1     -21.798  -4.581  -8.419  0.00  0.00     0.249 C 
HETATM    2  H           1     -22.854  -2.913  -9.044  0.00  0.00     0.163 HD
HETATM    3  O           1     -21.148  -5.532  -8.779  0.00  0.00    -0.271 OA
HETATM    4  N           1     -22.309  -3.711  -9.345  0.00  0.00    -0.343 N 
ENDROOT
BRANCH   1   5
HETATM    5  C           1     -22.048  -4.350  -6.949  0.00  0.00     0.274 C 
BRANCH   5   6
HETATM    6  C           1     -21.235  -5.345  -6.133  0.00  0.00     0.044 C 
BRANCH   6   7
HETATM    7  C           1     -22.173  -6.180  -5.269  0.00  0.00     0.030 C 
BRANCH   7   8
HETATM    8  C           1     -21.467  -6.561  -3.975  0.00  0.00     0.230 C 
BRANCH   8   9
HETATM    9  N           1     -22.272  -6.077  -2.805  0.00  0.00    -0.079 N 
HETATM   10  H           1     -21.961  -5.115  -2.541  0.00  0.00     0.274 HD
HETATM   11  H           1     -22.130  -6.722  -1.994  0.00  0.00     0.274 HD
HETATM   12  H           1     -23.284  -6.058  -3.063  0.00  0.00     0.274 HD
ENDBRANCH   8   9
ENDBRANCH   7   8
ENDBRANCH   6   7
ENDBRANCH   5   6
BRANCH   5  13
HETATM   13  N           1     -23.507  -4.536  -6.655  0.00  0.00    -0.067 N 
HETATM   14  H           1     -23.742  -4.074  -5.748  0.00  0.00     0.275 HD
HETATM   15  H           1     -24.074  -4.106  -7.421  0.00  0.00     0.275 HD
HETATM   16  H           1     -23.722  -5.557  -6.593  0.00  0.00     0.275 HD
ENDBRANCH   5  13
ENDBRANCH   1   5
BRANCH   4  17
HETATM   17  C           1     -22.069  -3.934 -10.758  0.00  0.00     0.210 C 
BRANCH  17  18
HETATM   18  C           1     -23.075  -3.136 -11.576  0.00  0.00     0.217 C 
BRANCH  18  19
HETATM   19  O           1     -22.476  -2.712 -12.771  0.00  0.00    -0.287 OA
BRANCH  19  20
HETATM   20  P           1     -23.417  -2.743 -14.083  0.00  0.00     0.406 P 
HETATM   21  O           1     -24.323  -3.912 -14.015  0.00  0.00    -0.624 OA
HETATM   22  O           1     -22.573  -2.844 -15.294  0.00  0.00    -0.624 OA
BRANCH  20  23
HETATM   23  O           1     -24.293  -1.387 -14.148  0.00  0.00    -0.300 OA
HETATM   24  H           1     -23.879  -0.800 -13.540  0.00  0.00     0.223 HD
ENDBRANCH  20  23
ENDBRANCH  19  20
ENDBRANCH  18  19
ENDBRANCH  17  18
BRANCH  17  25
HETATM   25  C           1     -20.670  -3.486 -11.106  0.00  0.00     0.198 C 
HETATM   26  O           1     -19.826  -4.321 -11.499  0.00  0.00    -0.646 OA
HETATM   27  O           1     -20.355  -2.281 -11.000  0.00  0.00    -0.646 OA
ENDBRANCH  17  25
ENDBRANCH   4  17
TORSDOF 12
ENDMDL
MODEL 3
REMARK VINA RESULT:      -5.8      2.311      3.799
REMARK  12 active torsions:
REMARK  status: ('A' for Active; 'I' for Inactive)
REMARK       I    between atoms: C_1  and  N_27 
REMARK    1  A    between atoms: C_1  and  C_3 
REMARK    2  A    between atoms: N_2  and  C_12 
REMARK    3  A    between atoms: C_3  and  C_11 
REMARK    4  A    between atoms: C_3  and  N_4 
REMARK    5  A    between atoms: P_5  and  O_9 
REMARK    6  A    between atoms: P_5  and  O_20 
REMARK    7  A    between atoms: O_9  and  C_14 
REMARK    8  A    between atoms: C_11  and  C_21 
REMARK    9  A    between atoms: C_12  and  C_21 
REMARK   10  A    between atoms: C_14  and  C_25 
REMARK   11  A    between atoms: C_24  and  C_25 
REMARK   12  A    between atoms: C_25  and  N_27 
ROOT
HETATM    1  C           1     -21.198  -6.213  -6.085  0.00  0.00     0.249 C 
HETATM    2  H           1     -21.375  -4.151  -6.048  0.00  0.00     0.163 HD
HETATM    3  O           1     -21.198  -7.194  -6.789  0.00  0.00    -0.271 OA
HETATM    4  N           1     -21.376  -4.973  -6.638  0.00  0.00    -0.343 N 
ENDROOT
BRANCH   1   5
HETATM    5  C           1     -21.001  -6.353  -4.595  0.00  0.00     0.274 C 
BRANCH   5   6
HETATM    6  C           1     -20.416  -7.725  -4.287  0.00  0.00     0.044 C 
BRANCH   6   7
HETATM    7  C           1     -21.463  -8.578  -3.583  0.00  0.00     0.030 C 
BRANCH   7   8
HETATM    8  C           1     -21.556  -9.936  -4.265  0.00  0.00     0.230 C 
BRANCH   8   9
HETATM    9  N           1     -20.922  -9.857  -5.623  0.00  0.00    -0.079 N 
HETATM   10  H           1     -21.167 -10.713  -6.171  0.00  0.00     0.274 HD
HETATM   11  H           1     -19.884  -9.797  -5.519  0.00  0.00     0.274 HD
HETATM   12  H           1     -21.273  -9.010  -6.122  0.00  0.00     0.274 HD
ENDBRANCH   8   9
ENDBRANCH   7   8
ENDBRANCH   6   7
ENDBRANCH   5   6
BRANCH   5  13
HETATM   13  N           1     -22.322  -6.206  -3.901  0.00  0.00    -0.067 N 
HETATM   14  H           1     -22.585  -7.114  -3.455  0.00  0.00     0.275 HD
HETATM   15  H           1     -22.249  -5.466  -3.166  0.00  0.00     0.275 HD
HETATM   16  H           1     -23.053  -5.935  -4.597  0.00  0.00     0.275 HD
ENDBRANCH   5  13
ENDBRANCH   1   5
BRANCH   4  17
HETATM   17  C           1     -21.566  -4.839  -8.070  0.00  0.00     0.210 C 
BRANCH  17  18
HETATM   18  C           1     -22.568  -3.726  -8.346  0.00  0.00     0.217 C 
BRANCH  18  19
HETATM   19  O           1     -23.678  -4.254  -9.022  0.00  0.00    -0.287 OA
BRANCH  19  20
HETATM   20  P           1     -23.764  -3.931 -10.601  0.00  0.00     0.406 P 
HETATM   21  O           1     -25.021  -3.203 -10.889  0.00  0.00    -0.624 OA
HETATM   22  O           1     -23.742  -5.197 -11.366  0.00  0.00    -0.624 OA
BRANCH  20  23
HETATM   23  O           1     -22.503  -3.018 -11.033  0.00  0.00    -0.300 OA
HETATM   24  H           1     -22.718  -2.695 -11.890  0.00  0.00     0.223 HD
ENDBRANCH  20  23
ENDBRANCH  19  20
ENDBRANCH  18  19
ENDBRANCH  17  18
BRANCH  17  25
HETATM   25  C           1     -20.246  -4.503  -8.722  0.00  0.00     0.198 C 
HETATM   26  O           1     -19.286  -4.110  -8.024  0.00  0.00    -0.646 OA
HETATM   27  O           1     -20.114  -4.616  -9.960  0.00  0.00    -0.646 OA
ENDBRANCH  17  25
ENDBRANCH   4  17
TORSDOF 12
ENDMDL
MODEL 4
REMARK VINA RESULT:      -5.7      5.106      7.996
REMARK  12 active torsions:
REMARK  status: ('A' for Active; 'I' for Inactive)
REMARK       I    between atoms: C_1  and  N_27 
REMARK    1  A    between atoms: C_1  and  C_3 
REMARK    2  A    between atoms: N_2  and  C_12 
REMARK    3  A    between atoms: C_3  and  C_11 
REMARK    4  A    between atoms: C_3  and  N_4 
REMARK    5  A    between atoms: P_5  and  O_9 
REMARK    6  A    between atoms: P_5  and  O_20 
REMARK    7  A    between atoms: O_9  and  C_14 
REMARK    8  A    between atoms: C_11  and  C_21 
REMARK    9  A    between atoms: C_12  and  C_21 
REMARK   10  A    between atoms: C_14  and  C_25 
REMARK   11  A    between atoms: C_24  and  C_25 
REMARK   12  A    between atoms: C_25  and  N_27 
ROOT
HETATM    1  C           1     -21.598  -5.480  -6.018  0.00  0.00     0.249 C 
HETATM    2  H           1     -20.013  -6.567  -5.251  0.00  0.00     0.163 HD
HETATM    3  O           1     -22.795  -5.322  -5.992  0.00  0.00    -0.271 OA
HETATM    4  N           1     -21.016  -6.435  -5.229  0.00  0.00    -0.343 N 
ENDROOT
BRANCH   1   5
HETATM    5  C           1     -20.744  -4.624  -6.921  0.00  0.00     0.274 C 
BRANCH   5   6
HETATM    6  C           1     -21.631  -3.657  -7.693  0.00  0.00     0.044 C 
BRANCH   6   7
HETATM    7  C           1     -21.742  -4.114  -9.142  0.00  0.00     0.030 C 
BRANCH   7   8
HETATM    8  C           1     -23.204  -4.357  -9.489  0.00  0.00     0.230 C 
BRANCH   8   9
HETATM    9  N           1     -24.070  -3.903  -8.351  0.00  0.00    -0.079 N 
HETATM   10  H           1     -24.039  -2.860  -8.284  0.00  0.00     0.274 HD
HETATM   11  H           1     -23.718  -4.318  -7.459  0.00  0.00     0.274 HD
HETATM   12  H           1     -25.054  -4.212  -8.518  0.00  0.00     0.274 HD
ENDBRANCH   8   9
ENDBRANCH   7   8
ENDBRANCH   6   7
ENDBRANCH   5   6
BRANCH   5  13
HETATM   13  N           1     -20.003  -5.501  -7.886  0.00  0.00    -0.067 N 
HETATM   14  H           1     -20.173  -6.504  -7.647  0.00  0.00     0.275 HD
HETATM   15  H           1     -20.340  -5.314  -8.857  0.00  0.00     0.275 HD
HETATM   16  H           1     -18.979  -5.298  -7.826  0.00  0.00     0.275 HD
ENDBRANCH   5  13
ENDBRANCH   1   5
BRANCH   4  17
HETATM   17  C           1     -21.838  -7.257  -4.362  0.00  0.00     0.210 C 
BRANCH  17  18
HETATM   18  C           1     -21.450  -8.720  -4.534  0.00  0.00     0.217 C 
BRANCH  18  19
HETATM   19  O           1     -20.476  -8.831  -5.536  0.00  0.00    -0.287 OA
BRANCH  19  20
HETATM   20  P           1     -19.120  -9.604  -5.121  0.00  0.00     0.406 P 
HETATM   21  O           1     -18.093  -9.398  -6.168  0.00  0.00    -0.624 OA
HETATM   22  O           1     -19.399 -11.050  -4.982  0.00  0.00    -0.624 OA
BRANCH  20  23
HETATM   23  O           1     -18.578  -9.021  -3.716  0.00  0.00    -0.300 OA
HETATM   24  H           1     -18.136  -9.744  -3.306  0.00  0.00     0.223 HD
ENDBRANCH  20  23
ENDBRANCH  19  20
ENDBRANCH  18  19
ENDBRANCH  17  18
BRANCH  17  25
HETATM   25  C           1     -21.622  -6.845  -2.926  0.00  0.00     0.198 C 
HETATM   26  O           1     -20.732  -7.397  -2.244  0.00  0.00    -0.646 OA
HETATM   27  O           1     -22.333  -5.950  -2.419  0.00  0.00    -0.646 OA
ENDBRANCH  17  25
ENDBRANCH   4  17
TORSDOF 12
ENDMDL
MODEL 5
REMARK VINA RESULT:      -5.3      5.808      8.831
REMARK  12 active torsions:
REMARK  status: ('A' for Active; 'I' for Inactive)
REMARK       I    between atoms: C_1  and  N_27 
REMARK    1  A    between atoms: C_1  and  C_3 
REMARK    2  A    between atoms: N_2  and  C_12 
REMARK    3  A    between atoms: C_3  and  C_11 
REMARK    4  A    between atoms: C_3  and  N_4 
REMARK    5  A    between atoms: P_5  and  O_9 
REMARK    6  A    between atoms: P_5  and  O_20 
REMARK    7  A    between atoms: O_9  and  C_14 
REMARK    8  A    between atoms: C_11  and  C_21 
REMARK    9  A    between atoms: C_12  and  C_21 
REMARK   10  A    between atoms: C_14  and  C_25 
REMARK   11  A    between atoms: C_24  and  C_25 
REMARK   12  A    between atoms: C_25  and  N_27 
ROOT
HETATM    1  C           1     -21.379  -5.630  -5.633  0.00  0.00     0.249 C 
HETATM    2  H           1     -19.785  -6.570  -4.706  0.00  0.00     0.163 HD
HETATM    3  O           1     -22.582  -5.571  -5.716  0.00  0.00    -0.271 OA
HETATM    4  N           1     -20.794  -6.521  -4.775  0.00  0.00    -0.343 N 
ENDROOT
BRANCH   1   5
HETATM    5  C           1     -20.520  -4.719  -6.477  0.00  0.00     0.274 C 
BRANCH   5   6
HETATM    6  C           1     -21.405  -3.726  -7.216  0.00  0.00     0.044 C 
BRANCH   6   7
HETATM    7  C           1     -21.456  -4.091  -8.694  0.00  0.00     0.030 C 
BRANCH   7   8
HETATM    8  C           1     -22.896  -4.032  -9.184  0.00  0.00     0.230 C 
BRANCH   8   9
HETATM    9  N           1     -23.826  -4.055  -8.007  0.00  0.00    -0.079 N 
HETATM   10  H           1     -24.602  -3.372  -8.162  0.00  0.00     0.274 HD
HETATM   11  H           1     -23.299  -3.793  -7.143  0.00  0.00     0.274 HD
HETATM   12  H           1     -24.223  -5.015  -7.896  0.00  0.00     0.274 HD
ENDBRANCH   8   9
ENDBRANCH   7   8
ENDBRANCH   6   7
ENDBRANCH   5   6
BRANCH   5  13
HETATM   13  N           1     -19.751  -5.538  -7.470  0.00  0.00    -0.067 N 
HETATM   14  H           1     -20.410  -6.145  -8.008  0.00  0.00     0.275 HD
HETATM   15  H           1     -19.246  -4.904  -8.129  0.00  0.00     0.275 HD
HETATM   16  H           1     -19.059  -6.139  -6.965  0.00  0.00     0.275 HD
ENDBRANCH   5  13
ENDBRANCH   1   5
BRANCH   4  17
HETATM   17  C           1     -21.620  -7.395  -3.965  0.00  0.00     0.210 C 
BRANCH  17  18
HETATM   18  C           1     -21.043  -8.805  -3.989  0.00  0.00     0.217 C 
BRANCH  18  19
HETATM   19  O           1     -22.086  -9.739  -3.902  0.00  0.00    -0.287 OA
BRANCH  19  20
HETATM   20  P           1     -21.950 -10.842  -2.731  0.00  0.00     0.406 P 
HETATM   21  O           1     -20.548 -10.894  -2.260  0.00  0.00    -0.624 OA
HETATM   22  O           1     -22.343 -12.169  -3.256  0.00  0.00    -0.624 OA
BRANCH  20  23
HETATM   23  O           1     -22.917 -10.441  -1.500  0.00  0.00    -0.300 OA
HETATM   24  H           1     -23.664 -10.031  -1.900  0.00  0.00     0.223 HD
ENDBRANCH  20  23
ENDBRANCH  19  20
ENDBRANCH  18  19
ENDBRANCH  17  18
BRANCH  17  25
HETATM   25  C           1     -21.647  -6.887  -2.544  0.00  0.00     0.198 C 
HETATM   26  O           1     -22.395  -5.935  -2.235  0.00  0.00    -0.646 OA
HETATM   27  O           1     -20.920  -7.418  -1.676  0.00  0.00    -0.646 OA
ENDBRANCH  17  25
ENDBRANCH   4  17
TORSDOF 12
ENDMDL
MODEL 6
REMARK VINA RESULT:      -5.2      5.254      8.736
REMARK  12 active torsions:
REMARK  status: ('A' for Active; 'I' for Inactive)
REMARK       I    between atoms: C_1  and  N_27 
REMARK    1  A    between atoms: C_1  and  C_3 
REMARK    2  A    between atoms: N_2  and  C_12 
REMARK    3  A    between atoms: C_3  and  C_11 
REMARK    4  A    between atoms: C_3  and  N_4 
REMARK    5  A    between atoms: P_5  and  O_9 
REMARK    6  A    between atoms: P_5  and  O_20 
REMARK    7  A    between atoms: O_9  and  C_14 
REMARK    8  A    between atoms: C_11  and  C_21 
REMARK    9  A    between atoms: C_12  and  C_21 
REMARK   10  A    between atoms: C_14  and  C_25 
REMARK   11  A    between atoms: C_24  and  C_25 
REMARK   12  A    between atoms: C_25  and  N_27 
ROOT
HETATM    1  C           1     -21.188  -5.313  -7.111  0.00  0.00     0.249 C 
HETATM    2  H           1     -22.598  -6.302  -5.962  0.00  0.00     0.163 HD
HETATM    3  O           1     -20.023  -5.010  -7.203  0.00  0.00    -0.271 OA
HETATM    4  N           1     -21.622  -6.047  -6.040  0.00  0.00    -0.343 N 
ENDROOT
BRANCH   1   5
HETATM    5  C           1     -22.166  -4.884  -8.177  0.00  0.00     0.274 C 
BRANCH   5   6
HETATM    6  C           1     -21.489  -3.901  -9.122  0.00  0.00     0.044 C 
BRANCH   6   7
HETATM    7  C           1     -22.258  -3.848 -10.437  0.00  0.00     0.030 C 
BRANCH   7   8
HETATM    8  C           1     -21.282  -3.950 -11.601  0.00  0.00     0.230 C 
BRANCH   8   9
HETATM    9  N           1     -21.989  -3.605 -12.878  0.00  0.00    -0.079 N 
HETATM   10  H           1     -21.596  -4.177 -13.660  0.00  0.00     0.274 HD
HETATM   11  H           1     -21.853  -2.590 -13.088  0.00  0.00     0.274 HD
HETATM   12  H           1     -23.009  -3.808 -12.777  0.00  0.00     0.274 HD
ENDBRANCH   8   9
ENDBRANCH   7   8
ENDBRANCH   6   7
ENDBRANCH   5   6
BRANCH   5  13
HETATM   13  N           1     -23.348  -4.224  -7.533  0.00  0.00    -0.067 N 
HETATM   14  H           1     -23.058  -3.800  -6.622  0.00  0.00     0.275 HD
HETATM   15  H           1     -23.717  -3.476  -8.163  0.00  0.00     0.275 HD
HETATM   16  H           1     -24.095  -4.936  -7.363  0.00  0.00     0.275 HD
ENDBRANCH   5  13
ENDBRANCH   1   5
BRANCH   4  17
HETATM   17  C           1     -20.681  -6.459  -5.015  0.00  0.00     0.210 C 
BRANCH  17  18
HETATM   18  C           1     -21.286  -6.209  -3.641  0.00  0.00     0.217 C 
BRANCH  18  19
HETATM   19  O           1     -21.916  -7.377  -3.186  0.00  0.00    -0.287 OA
BRANCH  19  20
HETATM   20  P           1     -21.665  -7.759  -1.638  0.00  0.00     0.406 P 
HETATM   21  O           1     -22.307  -6.747  -0.769  0.00  0.00    -0.624 OA
HETATM   22  O           1     -20.210  -7.789  -1.367  0.00  0.00    -0.624 OA
BRANCH  20  23
HETATM   23  O           1     -22.301  -9.212  -1.332  0.00  0.00    -0.300 OA
HETATM   24  H           1     -22.198  -9.333  -0.404  0.00  0.00     0.223 HD
ENDBRANCH  20  23
ENDBRANCH  19  20
ENDBRANCH  18  19
ENDBRANCH  17  18
BRANCH  17  25
HETATM   25  C           1     -20.380  -7.930  -5.173  0.00  0.00     0.198 C 
HETATM   26  O           1     -21.124  -8.649  -5.875  0.00  0.00    -0.646 OA
HETATM   27  O           1     -19.387  -8.429  -4.600  0.00  0.00    -0.646 OA
ENDBRANCH  17  25
ENDBRANCH   4  17
TORSDOF 12
ENDMDL
MODEL 7
REMARK VINA RESULT:      -5.1      2.888      4.745
REMARK  12 active torsions:
REMARK  status: ('A' for Active; 'I' for Inactive)
REMARK       I    between atoms: C_1  and  N_27 
REMARK    1  A    between atoms: C_1  and  C_3 
REMARK    2  A    between atoms: N_2  and  C_12 
REMARK    3  A    between atoms: C_3  and  C_11 
REMARK    4  A    between atoms: C_3  and  N_4 
REMARK    5  A    between atoms: P_5  and  O_9 
REMARK    6  A    between atoms: P_5  and  O_20 
REMARK    7  A    between atoms: O_9  and  C_14 
REMARK    8  A    between atoms: C_11  and  C_21 
REMARK    9  A    between atoms: C_12  and  C_21 
REMARK   10  A    between atoms: C_14  and  C_25 
REMARK   11  A    between atoms: C_24  and  C_25 
REMARK   12  A    between atoms: C_25  and  N_27 
ROOT
HETATM    1  C           1     -20.830  -7.614  -5.265  0.00  0.00     0.249 C 
HETATM    2  H           1     -22.202  -6.070  -5.131  0.00  0.00     0.163 HD
HETATM    3  O           1     -19.918  -8.074  -5.909  0.00  0.00    -0.271 OA
HETATM    4  N           1     -21.438  -6.456  -5.670  0.00  0.00    -0.343 N 
ENDROOT
BRANCH   1   5
HETATM    5  C           1     -21.299  -8.315  -4.014  0.00  0.00     0.274 C 
BRANCH   5   6
HETATM    6  C           1     -20.153  -8.392  -3.014  0.00  0.00     0.044 C 
BRANCH   6   7
HETATM    7  C           1     -20.686  -8.137  -1.610  0.00  0.00     0.030 C 
BRANCH   7   8
HETATM    8  C           1     -21.854  -7.163  -1.678  0.00  0.00     0.230 C 
BRANCH   8   9
HETATM    9  N           1     -22.634  -7.225  -0.398  0.00  0.00    -0.079 N 
HETATM   10  H           1     -23.333  -8.001  -0.453  0.00  0.00     0.274 HD
HETATM   11  H           1     -23.132  -6.319  -0.249  0.00  0.00     0.274 HD
HETATM   12  H           1     -21.981  -7.401   0.399  0.00  0.00     0.274 HD
ENDBRANCH   8   9
ENDBRANCH   7   8
ENDBRANCH   6   7
ENDBRANCH   5   6
BRANCH   5  13
HETATM   13  N           1     -21.754  -9.701  -4.360  0.00  0.00    -0.067 N 
HETATM   14  H           1     -21.213 -10.051  -5.183  0.00  0.00     0.275 HD
HETATM   15  H           1     -21.595 -10.335  -3.544  0.00  0.00     0.275 HD
HETATM   16  H           1     -22.773  -9.685  -4.595  0.00  0.00     0.275 HD
ENDBRANCH   5  13
ENDBRANCH   1   5
BRANCH   4  17
HETATM   17  C           1     -20.986  -5.783  -6.873  0.00  0.00     0.210 C 
BRANCH  17  18
HETATM   18  C           1     -22.135  -4.977  -7.465  0.00  0.00     0.217 C 
BRANCH  18  19
HETATM   19  O           1     -21.995  -4.918  -8.859  0.00  0.00    -0.287 OA
BRANCH  19  20
HETATM   20  P           1     -23.224  -4.250  -9.665  0.00  0.00     0.406 P 
HETATM   21  O           1     -23.922  -5.291 -10.453  0.00  0.00    -0.624 OA
HETATM   22  O           1     -22.707  -3.206 -10.577  0.00  0.00    -0.624 OA
BRANCH  20  23
HETATM   23  O           1     -24.258  -3.587  -8.616  0.00  0.00    -0.300 OA
HETATM   24  H           1     -23.961  -2.701  -8.508  0.00  0.00     0.223 HD
ENDBRANCH  20  23
ENDBRANCH  19  20
ENDBRANCH  18  19
ENDBRANCH  17  18
BRANCH  17  25
HETATM   25  C           1     -19.845  -4.856  -6.531  0.00  0.00     0.198 C 
HETATM   26  O           1     -19.733  -4.403  -5.371  0.00  0.00    -0.646 OA
HETATM   27  O           1     -19.011  -4.541  -7.408  0.00  0.00    -0.646 OA
ENDBRANCH  17  25
ENDBRANCH   4  17
TORSDOF 12
ENDMDL
MODEL 8
REMARK VINA RESULT:      -5.1      6.023      8.440
REMARK  12 active torsions:
REMARK  status: ('A' for Active; 'I' for Inactive)
REMARK       I    between atoms: C_1  and  N_27 
REMARK    1  A    between atoms: C_1  and  C_3 
REMARK    2  A    between atoms: N_2  and  C_12 
REMARK    3  A    between atoms: C_3  and  C_11 
REMARK    4  A    between atoms: C_3  and  N_4 
REMARK    5  A    between atoms: P_5  and  O_9 
REMARK    6  A    between atoms: P_5  and  O_20 
REMARK    7  A    between atoms: O_9  and  C_14 
REMARK    8  A    between atoms: C_11  and  C_21 
REMARK    9  A    between atoms: C_12  and  C_21 
REMARK   10  A    between atoms: C_14  and  C_25 
REMARK   11  A    between atoms: C_24  and  C_25 
REMARK   12  A    between atoms: C_25  and  N_27 
ROOT
HETATM    1  C           1     -20.235  -5.589  -5.988  0.00  0.00     0.249 C 
HETATM    2  H           1     -19.891  -7.398  -6.934  0.00  0.00     0.163 HD
HETATM    3  O           1     -20.446  -5.050  -4.928  0.00  0.00    -0.271 OA
HETATM    4  N           1     -20.067  -6.946  -6.045  0.00  0.00    -0.343 N 
ENDROOT
BRANCH   1   5
HETATM    5  C           1     -20.157  -4.765  -7.251  0.00  0.00     0.274 C 
BRANCH   5   6
HETATM    6  C           1     -21.355  -3.828  -7.322  0.00  0.00     0.044 C 
BRANCH   6   7
HETATM    7  C           1     -21.914  -3.825  -8.739  0.00  0.00     0.030 C 
BRANCH   7   8
HETATM    8  C           1     -23.417  -4.060  -8.694  0.00  0.00     0.230 C 
BRANCH   8   9
HETATM    9  N           1     -23.835  -4.356  -7.283  0.00  0.00    -0.079 N 
HETATM   10  H           1     -23.080  -4.054  -6.626  0.00  0.00     0.274 HD
HETATM   11  H           1     -23.996  -5.383  -7.177  0.00  0.00     0.274 HD
HETATM   12  H           1     -24.715  -3.839  -7.065  0.00  0.00     0.274 HD
ENDBRANCH   8   9
ENDBRANCH   7   8
ENDBRANCH   6   7
ENDBRANCH   5   6
BRANCH   5  13
HETATM   13  N           1     -20.163  -5.676  -8.442  0.00  0.00    -0.067 N 
HETATM   14  H           1     -20.754  -5.260  -9.197  0.00  0.00     0.275 HD
HETATM   15  H           1     -19.186  -5.798  -8.793  0.00  0.00     0.275 HD
HETATM   16  H           1     -20.553  -6.606  -8.167  0.00  0.00     0.275 HD
ENDBRANCH   5  13
ENDBRANCH   1   5
BRANCH   4  17
HETATM   17  C           1     -20.143  -7.737  -4.832  0.00  0.00     0.210 C 
BRANCH  17  18
HETATM   18  C           1     -21.596  -8.091  -4.547  0.00  0.00     0.217 C 
BRANCH  18  19
HETATM   19  O           1     -21.693  -8.686  -3.280  0.00  0.00    -0.287 OA
BRANCH  19  20
HETATM   20  P           1     -21.497  -7.699  -2.018  0.00  0.00     0.406 P 
HETATM   21  O           1     -20.104  -7.795  -1.527  0.00  0.00    -0.624 OA
HETATM   22  O           1     -22.429  -8.090  -0.936  0.00  0.00    -0.624 OA
BRANCH  20  23
HETATM   23  O           1     -21.803  -6.179  -2.471  0.00  0.00    -0.300 OA
HETATM   24  H           1     -22.728  -6.067  -2.338  0.00  0.00     0.223 HD
ENDBRANCH  20  23
ENDBRANCH  19  20
ENDBRANCH  18  19
ENDBRANCH  17  18
BRANCH  17  25
HETATM   25  C           1     -19.341  -9.004  -5.007  0.00  0.00     0.198 C 
HETATM   26  O           1     -18.363  -9.233  -4.264  0.00  0.00    -0.646 OA
HETATM   27  O           1     -19.656  -9.825  -5.897  0.00  0.00    -0.646 OA
ENDBRANCH  17  25
ENDBRANCH   4  17
TORSDOF 12
ENDMDL
MODEL 9
REMARK VINA RESULT:      -5.1      6.947      9.753
REMARK  12 active torsions:
REMARK  status: ('A' for Active; 'I' for Inactive)
REMARK       I    between atoms: C_1  and  N_27 
REMARK    1  A    between atoms: C_1  and  C_3 
REMARK    2  A    between atoms: N_2  and  C_12 
REMARK    3  A    between atoms: C_3  and  C_11 
REMARK    4  A    between atoms: C_3  and  N_4 
REMARK    5  A    between atoms: P_5  and  O_9 
REMARK    6  A    between atoms: P_5  and  O_20 
REMARK    7  A    between atoms: O_9  and  C_14 
REMARK    8  A    between atoms: C_11  and  C_21 
REMARK    9  A    between atoms: C_12  and  C_21 
REMARK   10  A    between atoms: C_14  and  C_25 
REMARK   11  A    between atoms: C_24  and  C_25 
REMARK   12  A    between atoms: C_25  and  N_27 
ROOT
HETATM    1  C           1     -21.217  -8.262  -4.946  0.00  0.00     0.249 C 
HETATM    2  H           1     -22.297  -8.217  -3.181  0.00  0.00     0.163 HD
HETATM    3  O           1     -20.431  -8.895  -5.610  0.00  0.00    -0.271 OA
HETATM    4  N           1     -21.639  -8.747  -3.737  0.00  0.00    -0.343 N 
ENDROOT
BRANCH   1   5
HETATM    5  C           1     -21.736  -6.938  -5.451  0.00  0.00     0.274 C 
BRANCH   5   6
HETATM    6  C           1     -20.696  -6.297  -6.359  0.00  0.00     0.044 C 
BRANCH   6   7
HETATM    7  C           1     -20.494  -4.842  -5.954  0.00  0.00     0.030 C 
BRANCH   7   8
HETATM    8  C           1     -20.806  -3.936  -7.137  0.00  0.00     0.230 C 
BRANCH   8   9
HETATM    9  N           1     -22.288  -3.907  -7.367  0.00  0.00    -0.079 N 
HETATM   10  H           1     -22.754  -3.409  -6.574  0.00  0.00     0.274 HD
HETATM   11  H           1     -22.651  -4.886  -7.422  0.00  0.00     0.274 HD
HETATM   12  H           1     -22.492  -3.407  -8.261  0.00  0.00     0.274 HD
ENDBRANCH   8   9
ENDBRANCH   7   8
ENDBRANCH   6   7
ENDBRANCH   5   6
BRANCH   5  13
HETATM   13  N           1     -22.009  -6.033  -4.287  0.00  0.00    -0.067 N 
HETATM   14  H           1     -22.496  -6.570  -3.534  0.00  0.00     0.275 HD
HETATM   15  H           1     -21.106  -5.658  -3.917  0.00  0.00     0.275 HD
HETATM   16  H           1     -22.615  -5.239  -4.596  0.00  0.00     0.275 HD
ENDBRANCH   5  13
ENDBRANCH   1   5
BRANCH   4  17
HETATM   17  C           1     -21.139 -10.019  -3.253  0.00  0.00     0.210 C 
BRANCH  17  18
HETATM   18  C           1     -20.808  -9.904  -1.771  0.00  0.00     0.217 C 
BRANCH  18  19
HETATM   19  O           1     -20.932  -8.566  -1.367  0.00  0.00    -0.287 OA
BRANCH  19  20
HETATM   20  P           1     -22.091  -8.259  -0.286  0.00  0.00     0.406 P 
HETATM   21  O           1     -22.776  -6.996  -0.641  0.00  0.00    -0.624 OA
HETATM   22  O           1     -21.489  -8.132   1.060  0.00  0.00    -0.624 OA
BRANCH  20  23
HETATM   23  O           1     -23.161  -9.469  -0.286  0.00  0.00    -0.300 OA
HETATM   24  H           1     -23.626  -9.383  -1.100  0.00  0.00     0.223 HD
ENDBRANCH  20  23
ENDBRANCH  19  20
ENDBRANCH  18  19
ENDBRANCH  17  18
BRANCH  17  25
HETATM   25  C           1     -22.194 -11.081  -3.452  0.00  0.00     0.198 C 
HETATM   26  O           1     -23.150 -11.170  -2.651  0.00  0.00    -0.646 OA
HETATM   27  O           1     -22.111 -11.871  -4.417  0.00  0.00    -0.646 OA
ENDBRANCH  17  25
ENDBRANCH   4  17
TORSDOF 12
ENDMDL
