MODEL 1
REMARK VINA RESULT:      -7.1      0.000      0.000
REMARK  12 active torsions:
REMARK  status: ('A' for Active; 'I' for Inactive)
REMARK    1  A    between atoms: C_1  and  C_31 
REMARK    2  A    between atoms: C_1  and  C_28 
REMARK       I    between atoms: N_2  and  C_29 
REMARK    3  A    between atoms: N_2  and  C_23 
REMARK       I    between atoms: N_3  and  C_29 
REMARK    4  A    between atoms: C_5  and  C_32 
REMARK    5  A    between atoms: C_5  and  C_6 
REMARK    6  A    between atoms: C_5  and  N_18 
REMARK    7  A    between atoms: C_6  and  C_7 
REMARK    8  A    between atoms: C_7  and  C_11 
REMARK    9  A    between atoms: C_11  and  N_19 
REMARK   10  A    between atoms: C_23  and  C_31 
REMARK   11  A    between atoms: N_25  and  C_28 
REMARK       I    between atoms: N_25  and  C_32 
REMARK   12  A    between atoms: C_27  and  C_28 
ROOT
HETATM    1  H           1     -36.134  -2.265 -12.759  0.00  0.00     0.163 HD
HETATM    2  O           1     -33.462  -2.320 -11.115  0.00  0.00    -0.271 OA
HETATM    3  N           1     -35.403  -1.924 -12.147  0.00  0.00    -0.345 N 
HETATM    4  C           1     -34.334  -2.726 -11.846  0.00  0.00     0.249 C 
ENDROOT
BRANCH   3   5
HETATM    5  C           1     -35.488  -0.589 -11.588  0.00  0.00     0.185 C 
BRANCH   5   6
HETATM    6  C           1     -35.234   0.436 -12.684  0.00  0.00     0.038 C 
BRANCH   6   7
HETATM    7  C           1     -36.288   0.289 -13.773  0.00  0.00     0.023 C 
BRANCH   7   8
HETATM    8  C           1     -35.639   0.476 -15.138  0.00  0.00     0.138 C 
BRANCH   8   9
HETATM    9  N           1     -34.936  -0.757 -15.519  0.00  0.00    -0.227 N 
HETATM   10  C           1     -35.284  -1.388 -16.560  0.00  0.00     0.665 C 
HETATM   11  N           1     -36.238  -0.958 -17.271  0.00  0.00    -0.235 N 
HETATM   12  N           1     -34.662  -2.479 -16.897  0.00  0.00    -0.235 N 
HETATM   13  H           1     -36.740  -0.077 -16.998  0.00  0.00     0.174 HD
HETATM   14  H           1     -36.528  -1.481 -18.134  0.00  0.00     0.174 HD
HETATM   15  H           1     -33.874  -2.835 -16.310  0.00  0.00     0.174 HD
HETATM   16  H           1     -34.950  -3.001 -17.756  0.00  0.00     0.174 HD
HETATM   17  H           1     -34.144  -1.114 -14.929  0.00  0.00     0.177 HD
ENDBRANCH   8   9
ENDBRANCH   7   8
ENDBRANCH   6   7
ENDBRANCH   5   6
BRANCH   5  18
HETATM   18  C           1     -36.864  -0.374 -11.007  0.00  0.00     0.196 C 
HETATM   19  O           1     -37.106   0.654 -10.339  0.00  0.00    -0.646 OA
HETATM   20  O           1     -37.761  -1.224 -11.193  0.00  0.00    -0.646 OA
ENDBRANCH   5  18
ENDBRANCH   3   5
BRANCH   4  21
HETATM   21  C           1     -34.246  -4.115 -12.428  0.00  0.00     0.274 C 
BRANCH  21  22
HETATM   22  C           1     -33.405  -4.997 -11.513  0.00  0.00     0.044 C 
BRANCH  22  23
HETATM   23  C           1     -34.289  -5.580 -10.418  0.00  0.00     0.030 C 
BRANCH  23  24
HETATM   24  C           1     -34.399  -7.088 -10.604  0.00  0.00     0.230 C 
BRANCH  24  25
HETATM   25  N           1     -35.140  -7.683  -9.443  0.00  0.00    -0.079 N 
HETATM   26  H           1     -35.875  -8.336  -9.796  0.00  0.00     0.274 HD
HETATM   27  H           1     -34.470  -8.208  -8.835  0.00  0.00     0.274 HD
HETATM   28  H           1     -35.590  -6.920  -8.889  0.00  0.00     0.274 HD
ENDBRANCH  24  25
ENDBRANCH  23  24
ENDBRANCH  22  23
ENDBRANCH  21  22
BRANCH  21  29
HETATM   29  N           1     -33.606  -4.050 -13.783  0.00  0.00    -0.067 N 
HETATM   30  H           1     -32.635  -3.676 -13.691  0.00  0.00     0.275 HD
HETATM   31  H           1     -34.166  -3.421 -14.401  0.00  0.00     0.275 HD
HETATM   32  H           1     -33.572  -5.008 -14.199  0.00  0.00     0.275 HD
ENDBRANCH  21  29
ENDBRANCH   4  21
TORSDOF 12
ENDMDL
MODEL 2
REMARK VINA RESULT:      -7.1     11.990     13.517
REMARK  12 active torsions:
REMARK  status: ('A' for Active; 'I' for Inactive)
REMARK    1  A    between atoms: C_1  and  C_31 
REMARK    2  A    between atoms: C_1  and  C_28 
REMARK       I    between atoms: N_2  and  C_29 
REMARK    3  A    between atoms: N_2  and  C_23 
REMARK       I    between atoms: N_3  and  C_29 
REMARK    4  A    between atoms: C_5  and  C_32 
REMARK    5  A    between atoms: C_5  and  C_6 
REMARK    6  A    between atoms: C_5  and  N_18 
REMARK    7  A    between atoms: C_6  and  C_7 
REMARK    8  A    between atoms: C_7  and  C_11 
REMARK    9  A    between atoms: C_11  and  N_19 
REMARK   10  A    between atoms: C_23  and  C_31 
REMARK   11  A    between atoms: N_25  and  C_28 
REMARK       I    between atoms: N_25  and  C_32 
REMARK   12  A    between atoms: C_27  and  C_28 
ROOT
HETATM    1  H           1     -22.544  -5.852  -9.024  0.00  0.00     0.163 HD
HETATM    2  O           1     -21.212  -3.515  -7.409  0.00  0.00    -0.271 OA
HETATM    3  N           1     -22.284  -4.901  -8.794  0.00  0.00    -0.345 N 
HETATM    4  C           1     -21.522  -4.650  -7.684  0.00  0.00     0.249 C 
ENDROOT
BRANCH   3   5
HETATM    5  C           1     -22.721  -3.806  -9.637  0.00  0.00     0.185 C 
BRANCH   5   6
HETATM    6  C           1     -22.098  -3.949 -11.018  0.00  0.00     0.038 C 
BRANCH   6   7
HETATM    7  C           1     -22.351  -2.682 -11.824  0.00  0.00     0.023 C 
BRANCH   7   8
HETATM    8  C           1     -23.110  -3.033 -13.097  0.00  0.00     0.138 C 
BRANCH   8   9
HETATM    9  N           1     -23.919  -1.881 -13.519  0.00  0.00    -0.227 N 
HETATM   10  C           1     -23.735  -1.361 -14.658  0.00  0.00     0.665 C 
HETATM   11  N           1     -22.854  -1.834 -15.434  0.00  0.00    -0.235 N 
HETATM   12  N           1     -24.451  -0.342 -15.031  0.00  0.00    -0.235 N 
HETATM   13  H           1     -22.275  -2.656 -15.132  0.00  0.00     0.174 HD
HETATM   14  H           1     -22.701  -1.402 -16.379  0.00  0.00     0.174 HD
HETATM   15  H           1     -25.179   0.048 -14.390  0.00  0.00     0.174 HD
HETATM   16  H           1     -24.299   0.087 -15.972  0.00  0.00     0.174 HD
HETATM   17  H           1     -24.651  -1.489 -12.874  0.00  0.00     0.177 HD
ENDBRANCH   8   9
ENDBRANCH   7   8
ENDBRANCH   6   7
ENDBRANCH   5   6
BRANCH   5  18
HETATM   18  C           1     -24.226  -3.833  -9.757  0.00  0.00     0.196 C 
HETATM   19  O           1     -24.804  -4.881 -10.118  0.00  0.00    -0.646 OA
HETATM   20  O           1     -24.893  -2.809  -9.496  0.00  0.00    -0.646 OA
ENDBRANCH   5  18
ENDBRANCH   3   5
BRANCH   4  21
HETATM   21  C           1     -21.067  -5.790  -6.807  0.00  0.00     0.274 C 
BRANCH  21  22
HETATM   22  C           1     -20.932  -5.303  -5.370  0.00  0.00     0.044 C 
BRANCH  22  23
HETATM   23  C           1     -20.864  -6.501  -4.432  0.00  0.00     0.030 C 
BRANCH  23  24
HETATM   24  C           1     -22.208  -6.682  -3.740  0.00  0.00     0.230 C 
BRANCH  24  25
HETATM   25  N           1     -22.175  -6.015  -2.397  0.00  0.00    -0.079 N 
HETATM   26  H           1     -22.087  -6.740  -1.650  0.00  0.00     0.274 HD
HETATM   27  H           1     -21.357  -5.366  -2.351  0.00  0.00     0.274 HD
HETATM   28  H           1     -23.058  -5.475  -2.255  0.00  0.00     0.274 HD
ENDBRANCH  24  25
ENDBRANCH  23  24
ENDBRANCH  22  23
ENDBRANCH  21  22
BRANCH  21  29
HETATM   29  N           1     -19.739  -6.293  -7.290  0.00  0.00    -0.067 N 
HETATM   30  H           1     -19.491  -5.815  -8.186  0.00  0.00     0.275 HD
HETATM   31  H           1     -19.795  -7.324  -7.447  0.00  0.00     0.275 HD
HETATM   32  H           1     -19.007  -6.089  -6.573  0.00  0.00     0.275 HD
ENDBRANCH  21  29
ENDBRANCH   4  21
TORSDOF 12
ENDMDL
MODEL 3
REMARK VINA RESULT:      -6.9      1.612      6.390
REMARK  12 active torsions:
REMARK  status: ('A' for Active; 'I' for Inactive)
REMARK    1  A    between atoms: C_1  and  C_31 
REMARK    2  A    between atoms: C_1  and  C_28 
REMARK       I    between atoms: N_2  and  C_29 
REMARK    3  A    between atoms: N_2  and  C_23 
REMARK       I    between atoms: N_3  and  C_29 
REMARK    4  A    between atoms: C_5  and  C_32 
REMARK    5  A    between atoms: C_5  and  C_6 
REMARK    6  A    between atoms: C_5  and  N_18 
REMARK    7  A    between atoms: C_6  and  C_7 
REMARK    8  A    between atoms: C_7  and  C_11 
REMARK    9  A    between atoms: C_11  and  N_19 
REMARK   10  A    between atoms: C_23  and  C_31 
REMARK   11  A    between atoms: N_25  and  C_28 
REMARK       I    between atoms: N_25  and  C_32 
REMARK   12  A    between atoms: C_27  and  C_28 
ROOT
HETATM    1  H           1     -33.917  -1.435 -13.622  0.00  0.00     0.163 HD
HETATM    2  O           1     -36.912  -1.045 -12.769  0.00  0.00    -0.271 OA
HETATM    3  N           1     -34.764  -1.572 -13.084  0.00  0.00    -0.345 N 
HETATM    4  C           1     -35.901  -0.882 -13.411  0.00  0.00     0.249 C 
ENDROOT
BRANCH   3   5
HETATM    5  C           1     -34.773  -2.497 -11.968  0.00  0.00     0.185 C 
BRANCH   5   6
HETATM    6  C           1     -33.783  -3.622 -12.235  0.00  0.00     0.038 C 
BRANCH   6   7
HETATM    7  C           1     -33.591  -4.441 -10.965  0.00  0.00     0.023 C 
BRANCH   7   8
HETATM    8  C           1     -34.568  -5.608 -10.959  0.00  0.00     0.138 C 
BRANCH   8   9
HETATM    9  N           1     -33.822  -6.874 -10.940  0.00  0.00    -0.227 N 
HETATM   10  C           1     -34.214  -7.829 -10.208  0.00  0.00     0.665 C 
HETATM   11  N           1     -35.249  -7.694  -9.492  0.00  0.00    -0.235 N 
HETATM   12  N           1     -33.553  -8.949 -10.191  0.00  0.00    -0.235 N 
HETATM   13  H           1     -35.782  -6.789  -9.506  0.00  0.00     0.174 HD
HETATM   14  H           1     -35.574  -8.486  -8.884  0.00  0.00     0.174 HD
HETATM   15  H           1     -32.698  -9.061 -10.782  0.00  0.00     0.174 HD
HETATM   16  H           1     -33.877  -9.737  -9.586  0.00  0.00     0.174 HD
HETATM   17  H           1     -32.962  -6.986 -11.534  0.00  0.00     0.177 HD
ENDBRANCH   8   9
ENDBRANCH   7   8
ENDBRANCH   6   7
ENDBRANCH   5   6
BRANCH   5  18
HETATM   18  C           1     -34.379  -1.767 -10.707  0.00  0.00     0.196 C 
HETATM   19  O           1     -33.173  -1.543 -10.467  0.00  0.00    -0.646 OA
HETATM   20  O           1     -35.258  -1.385  -9.905  0.00  0.00    -0.646 OA
ENDBRANCH   5  18
ENDBRANCH   3   5
BRANCH   4  21
HETATM   21  C           1     -35.892   0.081 -14.573  0.00  0.00     0.274 C 
BRANCH  21  22
HETATM   22  C           1     -36.440  -0.613 -15.813  0.00  0.00     0.044 C 
BRANCH  22  23
HETATM   23  C           1     -35.286  -1.007 -16.725  0.00  0.00     0.030 C 
BRANCH  23  24
HETATM   24  C           1     -35.009  -2.498 -16.579  0.00  0.00     0.230 C 
BRANCH  24  25
HETATM   25  N           1     -33.734  -2.844 -17.289  0.00  0.00    -0.079 N 
HETATM   26  H           1     -33.030  -2.088 -17.131  0.00  0.00     0.274 HD
HETATM   27  H           1     -33.364  -3.748 -16.917  0.00  0.00     0.274 HD
HETATM   28  H           1     -33.920  -2.937 -18.313  0.00  0.00     0.274 HD
ENDBRANCH  24  25
ENDBRANCH  23  24
ENDBRANCH  22  23
ENDBRANCH  21  22
BRANCH  21  29
HETATM   29  N           1     -34.485   0.535 -14.834  0.00  0.00    -0.067 N 
HETATM   30  H           1     -34.214   1.251 -14.125  0.00  0.00     0.275 HD
HETATM   31  H           1     -34.427   0.950 -15.791  0.00  0.00     0.275 HD
HETATM   32  H           1     -33.838  -0.283 -14.769  0.00  0.00     0.275 HD
ENDBRANCH  21  29
ENDBRANCH   4  21
TORSDOF 12
ENDMDL
MODEL 4
REMARK VINA RESULT:      -6.8      2.717      6.496
REMARK  12 active torsions:
REMARK  status: ('A' for Active; 'I' for Inactive)
REMARK    1  A    between atoms: C_1  and  C_31 
REMARK    2  A    between atoms: C_1  and  C_28 
REMARK       I    between atoms: N_2  and  C_29 
REMARK    3  A    between atoms: N_2  and  C_23 
REMARK       I    between atoms: N_3  and  C_29 
REMARK    4  A    between atoms: C_5  and  C_32 
REMARK    5  A    between atoms: C_5  and  C_6 
REMARK    6  A    between atoms: C_5  and  N_18 
REMARK    7  A    between atoms: C_6  and  C_7 
REMARK    8  A    between atoms: C_7  and  C_11 
REMARK    9  A    between atoms: C_11  and  N_19 
REMARK   10  A    between atoms: C_23  and  C_31 
REMARK   11  A    between atoms: N_25  and  C_28 
REMARK       I    between atoms: N_25  and  C_32 
REMARK   12  A    between atoms: C_27  and  C_28 
ROOT
HETATM    1  H           1     -35.249  -2.810 -11.282  0.00  0.00     0.163 HD
HETATM    2  O           1     -34.633  -0.778 -13.592  0.00  0.00    -0.271 OA
HETATM    3  N           1     -34.804  -2.444 -12.114  0.00  0.00    -0.345 N 
HETATM    4  C           1     -35.164  -1.215 -12.598  0.00  0.00     0.249 C 
ENDROOT
BRANCH   3   5
HETATM    5  C           1     -33.785  -3.220 -12.793  0.00  0.00     0.185 C 
BRANCH   5   6
HETATM    6  C           1     -33.070  -4.109 -11.786  0.00  0.00     0.038 C 
BRANCH   6   7
HETATM    7  C           1     -33.889  -4.188 -10.504  0.00  0.00     0.023 C 
BRANCH   7   8
HETATM    8  C           1     -34.759  -5.436 -10.533  0.00  0.00     0.138 C 
BRANCH   8   9
HETATM    9  N           1     -33.916  -6.617 -10.770  0.00  0.00    -0.227 N 
HETATM   10  C           1     -34.194  -7.716 -10.208  0.00  0.00     0.665 C 
HETATM   11  N           1     -35.198  -7.799  -9.442  0.00  0.00    -0.235 N 
HETATM   12  N           1     -33.448  -8.760 -10.418  0.00  0.00    -0.235 N 
HETATM   13  H           1     -35.801  -6.956  -9.273  0.00  0.00     0.174 HD
HETATM   14  H           1     -35.430  -8.712  -8.976  0.00  0.00     0.174 HD
HETATM   15  H           1     -32.619  -8.692 -11.050  0.00  0.00     0.174 HD
HETATM   16  H           1     -33.678  -9.669  -9.954  0.00  0.00     0.174 HD
HETATM   17  H           1     -33.082  -6.548 -11.405  0.00  0.00     0.177 HD
ENDBRANCH   8   9
ENDBRANCH   7   8
ENDBRANCH   6   7
ENDBRANCH   5   6
BRANCH   5  18
HETATM   18  C           1     -34.432  -4.078 -13.853  0.00  0.00     0.196 C 
HETATM   19  O           1     -35.040  -5.121 -13.528  0.00  0.00    -0.646 OA
HETATM   20  O           1     -34.360  -3.746 -15.056  0.00  0.00    -0.646 OA
ENDBRANCH   5  18
ENDBRANCH   3   5
BRANCH   4  21
HETATM   21  C           1     -36.224  -0.406 -11.892  0.00  0.00     0.274 C 
BRANCH  21  22
HETATM   22  C           1     -36.633  -1.115 -10.607  0.00  0.00     0.044 C 
BRANCH  22  23
HETATM   23  C           1     -37.701  -0.297  -9.893  0.00  0.00     0.030 C 
BRANCH  23  24
HETATM   24  C           1     -37.213   0.067  -8.497  0.00  0.00     0.230 C 
BRANCH  24  25
HETATM   25  N           1     -36.275   1.235  -8.582  0.00  0.00    -0.079 N 
HETATM   26  H           1     -35.815   1.245  -9.520  0.00  0.00     0.274 HD
HETATM   27  H           1     -36.812   2.122  -8.448  0.00  0.00     0.274 HD
HETATM   28  H           1     -35.547   1.151  -7.838  0.00  0.00     0.274 HD
ENDBRANCH  24  25
ENDBRANCH  23  24
ENDBRANCH  22  23
ENDBRANCH  21  22
BRANCH  21  29
HETATM   29  N           1     -37.422  -0.263 -12.785  0.00  0.00    -0.067 N 
HETATM   30  H           1     -38.247  -0.719 -12.335  0.00  0.00     0.275 HD
HETATM   31  H           1     -37.225  -0.720 -13.703  0.00  0.00     0.275 HD
HETATM   32  H           1     -37.624   0.751 -12.936  0.00  0.00     0.275 HD
ENDBRANCH  21  29
ENDBRANCH   4  21
TORSDOF 12
ENDMDL
MODEL 5
REMARK VINA RESULT:      -6.7      9.258     11.127
REMARK  12 active torsions:
REMARK  status: ('A' for Active; 'I' for Inactive)
REMARK    1  A    between atoms: C_1  and  C_31 
REMARK    2  A    between atoms: C_1  and  C_28 
REMARK       I    between atoms: N_2  and  C_29 
REMARK    3  A    between atoms: N_2  and  C_23 
REMARK       I    between atoms: N_3  and  C_29 
REMARK    4  A    between atoms: C_5  and  C_32 
REMARK    5  A    between atoms: C_5  and  C_6 
REMARK    6  A    between atoms: C_5  and  N_18 
REMARK    7  A    between atoms: C_6  and  C_7 
REMARK    8  A    between atoms: C_7  and  C_11 
REMARK    9  A    between atoms: C_11  and  N_19 
REMARK   10  A    between atoms: C_23  and  C_31 
REMARK   11  A    between atoms: N_25  and  C_28 
REMARK       I    between atoms: N_25  and  C_32 
REMARK   12  A    between atoms: C_27  and  C_28 
ROOT
HETATM    1  H           1     -26.248  -7.216 -17.015  0.00  0.00     0.163 HD
HETATM    2  O           1     -27.493  -6.027 -19.638  0.00  0.00    -0.271 OA
HETATM    3  N           1     -26.957  -6.822 -17.621  0.00  0.00    -0.345 N 
HETATM    4  C           1     -26.647  -6.498 -18.915  0.00  0.00     0.249 C 
ENDROOT
BRANCH   3   5
HETATM    5  C           1     -28.298  -6.599 -17.118  0.00  0.00     0.185 C 
BRANCH   5   6
HETATM    6  C           1     -29.196  -7.753 -17.541  0.00  0.00     0.038 C 
BRANCH   6   7
HETATM    7  C           1     -30.469  -7.203 -18.171  0.00  0.00     0.023 C 
BRANCH   7   8
HETATM    8  C           1     -30.596  -5.720 -17.849  0.00  0.00     0.138 C 
BRANCH   8   9
HETATM    9  N           1     -31.625  -5.529 -16.817  0.00  0.00    -0.227 N 
HETATM   10  C           1     -32.200  -4.408 -16.697  0.00  0.00     0.665 C 
HETATM   11  N           1     -31.888  -3.452 -17.465  0.00  0.00    -0.235 N 
HETATM   12  N           1     -33.110  -4.239 -15.784  0.00  0.00    -0.235 N 
HETATM   13  H           1     -31.153  -3.588 -18.202  0.00  0.00     0.174 HD
HETATM   14  H           1     -32.365  -2.521 -17.365  0.00  0.00     0.174 HD
HETATM   15  H           1     -33.367  -5.028 -15.149  0.00  0.00     0.174 HD
HETATM   16  H           1     -33.585  -3.313 -15.684  0.00  0.00     0.174 HD
HETATM   17  H           1     -31.883  -6.323 -16.180  0.00  0.00     0.177 HD
ENDBRANCH   8   9
ENDBRANCH   7   8
ENDBRANCH   6   7
ENDBRANCH   5   6
BRANCH   5  18
HETATM   18  C           1     -28.263  -6.514 -15.612  0.00  0.00     0.196 C 
HETATM   19  O           1     -28.737  -5.512 -15.032  0.00  0.00    -0.646 OA
HETATM   20  O           1     -27.763  -7.444 -14.944  0.00  0.00    -0.646 OA
ENDBRANCH   5  18
ENDBRANCH   3   5
BRANCH   4  21
HETATM   21  C           1     -25.251  -6.730 -19.438  0.00  0.00     0.274 C 
BRANCH  21  22
HETATM   22  C           1     -25.300  -7.714 -20.599  0.00  0.00     0.044 C 
BRANCH  22  23
HETATM   23  C           1     -24.544  -7.135 -21.788  0.00  0.00     0.030 C 
BRANCH  23  24
HETATM   24  C           1     -23.569  -8.174 -22.325  0.00  0.00     0.230 C 
BRANCH  24  25
HETATM   25  N           1     -23.000  -8.965 -21.184  0.00  0.00    -0.079 N 
HETATM   26  H           1     -23.206  -8.477 -20.284  0.00  0.00     0.274 HD
HETATM   27  H           1     -23.433  -9.917 -21.171  0.00  0.00     0.274 HD
HETATM   28  H           1     -21.966  -9.053 -21.303  0.00  0.00     0.274 HD
ENDBRANCH  24  25
ENDBRANCH  23  24
ENDBRANCH  22  23
ENDBRANCH  21  22
BRANCH  21  29
HETATM   29  N           1     -24.395  -7.294 -18.342  0.00  0.00    -0.067 N 
HETATM   30  H           1     -24.919  -7.261 -17.439  0.00  0.00     0.275 HD
HETATM   31  H           1     -23.520  -6.728 -18.260  0.00  0.00     0.275 HD
HETATM   32  H           1     -24.150  -8.285 -18.566  0.00  0.00     0.275 HD
ENDBRANCH  21  29
ENDBRANCH   4  21
TORSDOF 12
ENDMDL
MODEL 6
REMARK VINA RESULT:      -6.5      2.490      3.906
REMARK  12 active torsions:
REMARK  status: ('A' for Active; 'I' for Inactive)
REMARK    1  A    between atoms: C_1  and  C_31 
REMARK    2  A    between atoms: C_1  and  C_28 
REMARK       I    between atoms: N_2  and  C_29 
REMARK    3  A    between atoms: N_2  and  C_23 
REMARK       I    between atoms: N_3  and  C_29 
REMARK    4  A    between atoms: C_5  and  C_32 
REMARK    5  A    between atoms: C_5  and  C_6 
REMARK    6  A    between atoms: C_5  and  N_18 
REMARK    7  A    between atoms: C_6  and  C_7 
REMARK    8  A    between atoms: C_7  and  C_11 
REMARK    9  A    between atoms: C_11  and  N_19 
REMARK   10  A    between atoms: C_23  and  C_31 
REMARK   11  A    between atoms: N_25  and  C_28 
REMARK       I    between atoms: N_25  and  C_32 
REMARK   12  A    between atoms: C_27  and  C_28 
ROOT
HETATM    1  H           1     -35.460  -2.015 -14.158  0.00  0.00     0.163 HD
HETATM    2  O           1     -34.957   0.861 -13.010  0.00  0.00    -0.271 OA
HETATM    3  N           1     -35.440  -1.003 -14.141  0.00  0.00    -0.345 N 
HETATM    4  C           1     -34.980  -0.346 -13.031  0.00  0.00     0.249 C 
ENDROOT
BRANCH   3   5
HETATM    5  C           1     -35.900  -0.249 -15.290  0.00  0.00     0.185 C 
BRANCH   5   6
HETATM    6  C           1     -35.542  -1.000 -16.566  0.00  0.00     0.038 C 
BRANCH   6   7
HETATM    7  C           1     -35.051  -2.397 -16.212  0.00  0.00     0.023 C 
BRANCH   7   8
HETATM    8  C           1     -34.015  -2.845 -17.234  0.00  0.00     0.138 C 
BRANCH   8   9
HETATM    9  N           1     -33.282  -4.008 -16.712  0.00  0.00    -0.227 N 
HETATM   10  C           1     -32.047  -4.139 -16.956  0.00  0.00     0.665 C 
HETATM   11  N           1     -31.443  -3.269 -17.649  0.00  0.00    -0.235 N 
HETATM   12  N           1     -31.399  -5.167 -16.495  0.00  0.00    -0.235 N 
HETATM   13  H           1     -31.967  -2.439 -18.022  0.00  0.00     0.174 HD
HETATM   14  H           1     -30.418  -3.378 -17.852  0.00  0.00     0.174 HD
HETATM   15  H           1     -31.898  -5.886 -15.922  0.00  0.00     0.174 HD
HETATM   16  H           1     -30.380  -5.276 -16.696  0.00  0.00     0.174 HD
HETATM   17  H           1     -33.784  -4.730 -16.137  0.00  0.00     0.177 HD
ENDBRANCH   8   9
ENDBRANCH   7   8
ENDBRANCH   6   7
ENDBRANCH   5   6
BRANCH   5  18
HETATM   18  C           1     -37.397  -0.074 -15.211  0.00  0.00     0.196 C 
HETATM   19  O           1     -38.069  -0.790 -14.438  0.00  0.00    -0.646 OA
HETATM   20  O           1     -37.964   0.786 -15.918  0.00  0.00    -0.646 OA
ENDBRANCH   5  18
ENDBRANCH   3   5
BRANCH   4  21
HETATM   21  C           1     -34.501  -1.131 -11.834  0.00  0.00     0.274 C 
BRANCH  21  22
HETATM   22  C           1     -34.302  -2.589 -12.228  0.00  0.00     0.044 C 
BRANCH  22  23
HETATM   23  C           1     -33.317  -3.244 -11.269  0.00  0.00     0.030 C 
BRANCH  23  24
HETATM   24  C           1     -32.641  -4.420 -11.961  0.00  0.00     0.230 C 
BRANCH  24  25
HETATM   25  N           1     -33.299  -5.699 -11.535  0.00  0.00    -0.079 N 
HETATM   26  H           1     -33.041  -6.462 -12.200  0.00  0.00     0.274 HD
HETATM   27  H           1     -32.977  -5.952 -10.573  0.00  0.00     0.274 HD
HETATM   28  H           1     -34.336  -5.574 -11.535  0.00  0.00     0.274 HD
ENDBRANCH  24  25
ENDBRANCH  23  24
ENDBRANCH  22  23
ENDBRANCH  21  22
BRANCH  21  29
HETATM   29  N           1     -35.524  -1.045 -10.739  0.00  0.00    -0.067 N 
HETATM   30  H           1     -35.669  -1.993 -10.324  0.00  0.00     0.275 HD
HETATM   31  H           1     -36.425  -0.693 -11.133  0.00  0.00     0.275 HD
HETATM   32  H           1     -35.187  -0.389  -9.999  0.00  0.00     0.275 HD
ENDBRANCH  21  29
ENDBRANCH   4  21
TORSDOF 12
ENDMDL
MODEL 7
REMARK VINA RESULT:      -6.3     12.764     15.925
REMARK  12 active torsions:
REMARK  status: ('A' for Active; 'I' for Inactive)
REMARK    1  A    between atoms: C_1  and  C_31 
REMARK    2  A    between atoms: C_1  and  C_28 
REMARK       I    between atoms: N_2  and  C_29 
REMARK    3  A    between atoms: N_2  and  C_23 
REMARK       I    between atoms: N_3  and  C_29 
REMARK    4  A    between atoms: C_5  and  C_32 
REMARK    5  A    between atoms: C_5  and  C_6 
REMARK    6  A    between atoms: C_5  and  N_18 
REMARK    7  A    between atoms: C_6  and  C_7 
REMARK    8  A    between atoms: C_7  and  C_11 
REMARK    9  A    between atoms: C_11  and  N_19 
REMARK   10  A    between atoms: C_23  and  C_31 
REMARK   11  A    between atoms: N_25  and  C_28 
REMARK       I    between atoms: N_25  and  C_32 
REMARK   12  A    between atoms: C_27  and  C_28 
ROOT
HETATM    1  H           1     -22.252  -5.886  -8.332  0.00  0.00     0.163 HD
HETATM    2  O           1     -22.787  -2.905  -9.151  0.00  0.00    -0.271 OA
HETATM    3  N           1     -22.123  -4.882  -8.353  0.00  0.00    -0.345 N 
HETATM    4  C           1     -22.942  -4.103  -9.126  0.00  0.00     0.249 C 
ENDROOT
BRANCH   3   5
HETATM    5  C           1     -21.070  -4.270  -7.567  0.00  0.00     0.185 C 
BRANCH   5   6
HETATM    6  C           1     -21.021  -4.920  -6.191  0.00  0.00     0.038 C 
BRANCH   6   7
HETATM    7  C           1     -21.246  -6.420  -6.329  0.00  0.00     0.023 C 
BRANCH   7   8
HETATM    8  C           1     -21.139  -7.078  -4.961  0.00  0.00     0.138 C 
BRANCH   8   9
HETATM    9  N           1     -21.853  -6.263  -3.967  0.00  0.00    -0.227 N 
HETATM   10  C           1     -21.692  -6.486  -2.732  0.00  0.00     0.665 C 
HETATM   11  N           1     -20.917  -7.412  -2.352  0.00  0.00    -0.235 N 
HETATM   12  N           1     -22.324  -5.766  -1.854  0.00  0.00    -0.235 N 
HETATM   13  H           1     -20.407  -7.994  -3.061  0.00  0.00     0.174 HD
HETATM   14  H           1     -20.784  -7.598  -1.327  0.00  0.00     0.174 HD
HETATM   15  H           1     -22.964  -5.001  -2.167  0.00  0.00     0.174 HD
HETATM   16  H           1     -22.192  -5.950  -0.833  0.00  0.00     0.174 HD
HETATM   17  H           1     -22.496  -5.495  -4.283  0.00  0.00     0.177 HD
ENDBRANCH   8   9
ENDBRANCH   7   8
ENDBRANCH   6   7
ENDBRANCH   5   6
BRANCH   5  18
HETATM   18  C           1     -19.745  -4.464  -8.264  0.00  0.00     0.196 C 
HETATM   19  O           1     -18.678  -4.316  -7.629  0.00  0.00    -0.646 OA
HETATM   20  O           1     -19.714  -4.773  -9.474  0.00  0.00    -0.646 OA
ENDBRANCH   5  18
ENDBRANCH   3   5
BRANCH   4  21
HETATM   21  C           1     -24.038  -4.740  -9.944  0.00  0.00     0.274 C 
BRANCH  21  22
HETATM   22  C           1     -23.665  -4.690 -11.420  0.00  0.00     0.044 C 
BRANCH  22  23
HETATM   23  C           1     -24.196  -3.402 -12.035  0.00  0.00     0.030 C 
BRANCH  23  24
HETATM   24  C           1     -23.288  -2.974 -13.180  0.00  0.00     0.230 C 
BRANCH  24  25
HETATM   25  N           1     -21.910  -3.523 -12.960  0.00  0.00    -0.079 N 
HETATM   26  H           1     -21.734  -4.304 -13.632  0.00  0.00     0.274 HD
HETATM   27  H           1     -21.205  -2.766 -13.113  0.00  0.00     0.274 HD
HETATM   28  H           1     -21.830  -3.882 -11.982  0.00  0.00     0.274 HD
ENDBRANCH  24  25
ENDBRANCH  23  24
ENDBRANCH  22  23
ENDBRANCH  21  22
BRANCH  21  29
HETATM   29  N           1     -25.321  -3.993  -9.728  0.00  0.00    -0.067 N 
HETATM   30  H           1     -26.047  -4.648  -9.362  0.00  0.00     0.275 HD
HETATM   31  H           1     -25.642  -3.585 -10.635  0.00  0.00     0.275 HD
HETATM   32  H           1     -25.164  -3.225  -9.037  0.00  0.00     0.275 HD
ENDBRANCH  21  29
ENDBRANCH   4  21
TORSDOF 12
ENDMDL
MODEL 8
REMARK VINA RESULT:      -6.2      1.859      6.959
REMARK  12 active torsions:
REMARK  status: ('A' for Active; 'I' for Inactive)
REMARK    1  A    between atoms: C_1  and  C_31 
REMARK    2  A    between atoms: C_1  and  C_28 
REMARK       I    between atoms: N_2  and  C_29 
REMARK    3  A    between atoms: N_2  and  C_23 
REMARK       I    between atoms: N_3  and  C_29 
REMARK    4  A    between atoms: C_5  and  C_32 
REMARK    5  A    between atoms: C_5  and  C_6 
REMARK    6  A    between atoms: C_5  and  N_18 
REMARK    7  A    between atoms: C_6  and  C_7 
REMARK    8  A    between atoms: C_7  and  C_11 
REMARK    9  A    between atoms: C_11  and  N_19 
REMARK   10  A    between atoms: C_23  and  C_31 
REMARK   11  A    between atoms: N_25  and  C_28 
REMARK       I    between atoms: N_25  and  C_32 
REMARK   12  A    between atoms: C_27  and  C_28 
ROOT
HETATM    1  H           1     -35.353  -1.960 -14.010  0.00  0.00     0.163 HD
HETATM    2  O           1     -34.188  -0.991 -11.262  0.00  0.00    -0.271 OA
HETATM    3  N           1     -34.857  -2.019 -13.129  0.00  0.00    -0.345 N 
HETATM    4  C           1     -34.780  -0.922 -12.313  0.00  0.00     0.249 C 
ENDROOT
BRANCH   3   5
HETATM    5  C           1     -34.228  -3.263 -12.732  0.00  0.00     0.185 C 
BRANCH   5   6
HETATM    6  C           1     -34.956  -3.837 -11.525  0.00  0.00     0.038 C 
BRANCH   6   7
HETATM    7  C           1     -33.987  -4.670 -10.696  0.00  0.00     0.023 C 
BRANCH   7   8
HETATM    8  C           1     -34.690  -5.928 -10.205  0.00  0.00     0.138 C 
BRANCH   8   9
HETATM    9  N           1     -33.976  -7.114 -10.700  0.00  0.00    -0.227 N 
HETATM   10  C           1     -34.002  -8.191 -10.037  0.00  0.00     0.665 C 
HETATM   11  N           1     -34.644  -8.248  -8.947  0.00  0.00    -0.235 N 
HETATM   12  N           1     -33.371  -9.240 -10.474  0.00  0.00    -0.235 N 
HETATM   13  H           1     -35.154  -7.401  -8.594  0.00  0.00     0.174 HD
HETATM   14  H           1     -34.666  -9.142  -8.396  0.00  0.00     0.174 HD
HETATM   15  H           1     -32.841  -9.193 -11.374  0.00  0.00     0.174 HD
HETATM   16  H           1     -33.392 -10.130  -9.927  0.00  0.00     0.174 HD
HETATM   17  H           1     -33.443  -7.066 -11.604  0.00  0.00     0.177 HD
ENDBRANCH   8   9
ENDBRANCH   7   8
ENDBRANCH   6   7
ENDBRANCH   5   6
BRANCH   5  18
HETATM   18  C           1     -34.294  -4.246 -13.875  0.00  0.00     0.196 C 
HETATM   19  O           1     -34.993  -5.277 -13.772  0.00  0.00    -0.646 OA
HETATM   20  O           1     -33.651  -4.029 -14.925  0.00  0.00    -0.646 OA
ENDBRANCH   5  18
ENDBRANCH   3   5
BRANCH   4  21
HETATM   21  C           1     -35.435   0.374 -12.725  0.00  0.00     0.274 C 
BRANCH  21  22
HETATM   22  C           1     -36.568   0.083 -13.701  0.00  0.00     0.044 C 
BRANCH  22  23
HETATM   23  C           1     -36.186   0.587 -15.087  0.00  0.00     0.030 C 
BRANCH  23  24
HETATM   24  C           1     -35.703  -0.581 -15.937  0.00  0.00     0.230 C 
BRANCH  24  25
HETATM   25  N           1     -36.569  -0.707 -17.155  0.00  0.00    -0.079 N 
HETATM   26  H           1     -37.512  -0.304 -16.956  0.00  0.00     0.274 HD
HETATM   27  H           1     -36.129  -0.188 -17.950  0.00  0.00     0.274 HD
HETATM   28  H           1     -36.668  -1.716 -17.409  0.00  0.00     0.274 HD
ENDBRANCH  24  25
ENDBRANCH  23  24
ENDBRANCH  22  23
ENDBRANCH  21  22
BRANCH  21  29
HETATM   29  N           1     -34.420   1.257 -13.388  0.00  0.00    -0.067 N 
HETATM   30  H           1     -34.910   1.999 -13.937  0.00  0.00     0.275 HD
HETATM   31  H           1     -33.825   0.684 -14.027  0.00  0.00     0.275 HD
HETATM   32  H           1     -33.819   1.704 -12.659  0.00  0.00     0.275 HD
ENDBRANCH  21  29
ENDBRANCH   4  21
TORSDOF 12
ENDMDL
MODEL 9
REMARK VINA RESULT:      -6.1     13.135     15.009
REMARK  12 active torsions:
REMARK  status: ('A' for Active; 'I' for Inactive)
REMARK    1  A    between atoms: C_1  and  C_31 
REMARK    2  A    between atoms: C_1  and  C_28 
REMARK       I    between atoms: N_2  and  C_29 
REMARK    3  A    between atoms: N_2  and  C_23 
REMARK       I    between atoms: N_3  and  C_29 
REMARK    4  A    between atoms: C_5  and  C_32 
REMARK    5  A    between atoms: C_5  and  C_6 
REMARK    6  A    between atoms: C_5  and  N_18 
REMARK    7  A    between atoms: C_6  and  C_7 
REMARK    8  A    between atoms: C_7  and  C_11 
REMARK    9  A    between atoms: C_11  and  N_19 
REMARK   10  A    between atoms: C_23  and  C_31 
REMARK   11  A    between atoms: N_25  and  C_28 
REMARK       I    between atoms: N_25  and  C_32 
REMARK   12  A    between atoms: C_27  and  C_28 
ROOT
HETATM    1  H           1     -22.895  -5.689  -6.803  0.00  0.00     0.163 HD
HETATM    2  O           1     -19.944  -6.742  -6.960  0.00  0.00    -0.271 OA
HETATM    3  N           1     -21.947  -5.772  -7.147  0.00  0.00    -0.345 N 
HETATM    4  C           1     -21.076  -6.643  -6.549  0.00  0.00     0.249 C 
ENDROOT
BRANCH   3   5
HETATM    5  C           1     -21.510  -4.967  -8.271  0.00  0.00     0.185 C 
BRANCH   5   6
HETATM    6  C           1     -22.725  -4.480  -9.049  0.00  0.00     0.038 C 
BRANCH   6   7
HETATM    7  C           1     -22.481  -4.665 -10.541  0.00  0.00     0.023 C 
BRANCH   7   8
HETATM    8  C           1     -21.879  -3.392 -11.119  0.00  0.00     0.138 C 
BRANCH   8   9
HETATM    9  N           1     -21.817  -3.499 -12.583  0.00  0.00    -0.227 N 
HETATM   10  C           1     -22.704  -2.945 -13.297  0.00  0.00     0.665 C 
HETATM   11  N           1     -23.644  -2.298 -12.748  0.00  0.00    -0.235 N 
HETATM   12  N           1     -22.649  -3.040 -14.592  0.00  0.00    -0.235 N 
HETATM   13  H           1     -23.688  -2.221 -11.702  0.00  0.00     0.174 HD
HETATM   14  H           1     -24.380  -1.838 -13.340  0.00  0.00     0.174 HD
HETATM   15  H           1     -21.873  -3.574 -15.045  0.00  0.00     0.174 HD
HETATM   16  H           1     -23.381  -2.583 -15.181  0.00  0.00     0.174 HD
HETATM   17  H           1     -21.037  -4.036 -13.038  0.00  0.00     0.177 HD
ENDBRANCH   8   9
ENDBRANCH   7   8
ENDBRANCH   6   7
ENDBRANCH   5   6
BRANCH   5  18
HETATM   18  C           1     -20.726  -3.781  -7.766  0.00  0.00     0.196 C 
HETATM   19  O           1     -19.553  -3.596  -8.156  0.00  0.00    -0.646 OA
HETATM   20  O           1     -21.251  -2.982  -6.960  0.00  0.00    -0.646 OA
ENDBRANCH   5  18
ENDBRANCH   3   5
BRANCH   4  21
HETATM   21  C           1     -21.530  -7.480  -5.379  0.00  0.00     0.274 C 
BRANCH  21  22
HETATM   22  C           1     -21.181  -6.769  -4.079  0.00  0.00     0.044 C 
BRANCH  22  23
HETATM   23  C           1     -21.105  -7.786  -2.947  0.00  0.00     0.030 C 
BRANCH  23  24
HETATM   24  C           1     -21.697  -7.182  -1.681  0.00  0.00     0.230 C 
BRANCH  24  25
HETATM   25  N           1     -22.374  -5.885  -2.013  0.00  0.00    -0.079 N 
HETATM   26  H           1     -21.751  -5.313  -2.627  0.00  0.00     0.274 HD
HETATM   27  H           1     -23.272  -6.078  -2.511  0.00  0.00     0.274 HD
HETATM   28  H           1     -22.569  -5.359  -1.131  0.00  0.00     0.274 HD
ENDBRANCH  24  25
ENDBRANCH  23  24
ENDBRANCH  22  23
ENDBRANCH  21  22
BRANCH  21  29
HETATM   29  N           1     -20.840  -8.812  -5.420  0.00  0.00    -0.067 N 
HETATM   30  H           1     -20.495  -9.054  -4.464  0.00  0.00     0.275 HD
HETATM   31  H           1     -20.033  -8.764  -6.082  0.00  0.00     0.275 HD
HETATM   32  H           1     -21.512  -9.543  -5.744  0.00  0.00     0.275 HD
ENDBRANCH  21  29
ENDBRANCH   4  21
TORSDOF 12
ENDMDL
