MODEL 1
REMARK VINA RESULT:      -6.5      0.000      0.000
REMARK  4 active torsions:
REMARK  status: ('A' for Active; 'I' for Inactive)
REMARK    1  A    between atoms: C_2  and  C_3 
REMARK    2  A    between atoms: C_3  and  C_15 
REMARK    3  A    between atoms: C_3  and  N_7 
REMARK       I    between atoms: N_7  and  C_13 
REMARK    4  A    between atoms: C_9  and  C_13 
ROOT
HETATM    1  O           1     -22.357  -3.621  -7.345  0.00  0.00    -0.271 OA
HETATM    2  H           1     -21.951  -5.615  -9.733  0.00  0.00     0.163 HD
HETATM    3  N           1     -22.238  -4.769  -9.258  0.00  0.00    -0.344 N 
HETATM    4  C           1     -22.015  -4.631  -7.913  0.00  0.00     0.251 C 
ENDROOT
BRANCH   3   5
HETATM    5  C           1     -22.884  -3.703  -9.999  0.00  0.00     0.189 C 
BRANCH   5   6
HETATM    6  C           1     -22.504  -3.804 -11.470  0.00  0.00     0.010 C 
HETATM    7  C           1     -20.994  -3.958 -11.597  0.00  0.00     0.012 C 
HETATM    8  C           1     -22.948  -2.541 -12.195  0.00  0.00     0.012 C 
ENDBRANCH   5   6
BRANCH   5   9
HETATM    9  C           1     -24.380  -3.827  -9.857  0.00  0.00     0.197 C 
HETATM   10  O           1     -24.932  -4.940 -10.004  0.00  0.00    -0.646 OA
HETATM   11  O           1     -25.069  -2.819  -9.592  0.00  0.00    -0.646 OA
ENDBRANCH   5   9
ENDBRANCH   3   5
BRANCH   4  12
HETATM   12  C           1     -21.342  -5.741  -7.143  0.00  0.00     0.311 C 
HETATM   13  N           1     -19.978  -5.951  -7.620  0.00  0.00     0.097 N 
HETATM   14  C           1     -19.196  -4.878  -7.012  0.00  0.00     0.271 C 
HETATM   15  H           1     -19.620  -6.853  -7.306  0.00  0.00     0.317 HD
HETATM   16  C           1     -19.749  -4.781  -5.601  0.00  0.00     0.033 C 
HETATM   17  C           1     -21.159  -5.352  -5.686  0.00  0.00     0.047 C 
ENDBRANCH   4  12
TORSDOF 4
ENDMDL
MODEL 2
REMARK VINA RESULT:      -5.5      3.381      6.406
REMARK  4 active torsions:
REMARK  status: ('A' for Active; 'I' for Inactive)
REMARK    1  A    between atoms: C_2  and  C_3 
REMARK    2  A    between atoms: C_3  and  C_15 
REMARK    3  A    between atoms: C_3  and  N_7 
REMARK       I    between atoms: N_7  and  C_13 
REMARK    4  A    between atoms: C_9  and  C_13 
ROOT
HETATM    1  O           1     -22.549  -5.567  -5.736  0.00  0.00    -0.271 OA
HETATM    2  H           1     -19.712  -6.129  -4.521  0.00  0.00     0.163 HD
HETATM    3  N           1     -20.704  -6.249  -4.678  0.00  0.00    -0.344 N 
HETATM    4  C           1     -21.364  -5.424  -5.549  0.00  0.00     0.251 C 
ENDROOT
BRANCH   3   5
HETATM    5  C           1     -21.428  -7.293  -3.979  0.00  0.00     0.189 C 
BRANCH   5   6
HETATM    6  C           1     -20.617  -8.582  -4.010  0.00  0.00     0.010 C 
HETATM    7  C           1     -19.559  -8.492  -5.101  0.00  0.00     0.012 C 
HETATM    8  C           1     -21.544  -9.756  -4.297  0.00  0.00     0.012 C 
ENDBRANCH   5   6
BRANCH   5   9
HETATM    9  C           1     -21.655  -6.877  -2.547  0.00  0.00     0.197 C 
HETATM   10  O           1     -22.458  -5.955  -2.285  0.00  0.00    -0.646 OA
HETATM   11  O           1     -21.041  -7.451  -1.623  0.00  0.00    -0.646 OA
ENDBRANCH   5   9
ENDBRANCH   3   5
BRANCH   4  12
HETATM   12  C           1     -20.610  -4.338  -6.277  0.00  0.00     0.311 C 
HETATM   13  N           1     -19.493  -4.898  -7.032  0.00  0.00     0.097 N 
HETATM   14  C           1     -20.098  -5.463  -8.235  0.00  0.00     0.271 C 
HETATM   15  H           1     -18.832  -4.167  -7.295  0.00  0.00     0.317 HD
HETATM   16  C           1     -21.148  -4.440  -8.630  0.00  0.00     0.033 C 
HETATM   17  C           1     -21.482  -3.696  -7.342  0.00  0.00     0.047 C 
ENDBRANCH   4  12
TORSDOF 4
ENDMDL
MODEL 3
REMARK VINA RESULT:      -5.5     17.216     18.948
REMARK  4 active torsions:
REMARK  status: ('A' for Active; 'I' for Inactive)
REMARK    1  A    between atoms: C_2  and  C_3 
REMARK    2  A    between atoms: C_3  and  C_15 
REMARK    3  A    between atoms: C_3  and  N_7 
REMARK       I    between atoms: N_7  and  C_13 
REMARK    4  A    between atoms: C_9  and  C_13 
ROOT
HETATM    1  O           1     -12.926   7.589 -21.609  0.00  0.00    -0.271 OA
HETATM    2  H           1     -11.910   5.705 -19.316  0.00  0.00     0.163 HD
HETATM    3  N           1     -12.408   5.976 -20.154  0.00  0.00    -0.344 N 
HETATM    4  C           1     -12.332   7.266 -20.608  0.00  0.00     0.251 C 
ENDROOT
BRANCH   3   5
HETATM    5  C           1     -13.202   4.999 -20.874  0.00  0.00     0.189 C 
BRANCH   5   6
HETATM    6  C           1     -12.622   3.609 -20.652  0.00  0.00     0.010 C 
HETATM    7  C           1     -11.151   3.603 -21.045  0.00  0.00     0.012 C 
HETATM    8  C           1     -13.380   2.602 -21.506  0.00  0.00     0.012 C 
ENDBRANCH   5   6
BRANCH   5   9
HETATM    9  C           1     -14.624   5.037 -20.370  0.00  0.00     0.197 C 
HETATM   10  O           1     -14.870   4.762 -19.175  0.00  0.00    -0.646 OA
HETATM   11  O           1     -15.554   5.343 -21.145  0.00  0.00    -0.646 OA
ENDBRANCH   5   9
ENDBRANCH   3   5
BRANCH   4  12
HETATM   12  C           1     -11.504   8.282 -19.859  0.00  0.00     0.311 C 
HETATM   13  N           1     -10.191   7.737 -19.526  0.00  0.00     0.097 N 
HETATM   14  C           1      -9.420   7.828 -20.762  0.00  0.00     0.271 C 
HETATM   15  H           1      -9.741   8.297 -18.802  0.00  0.00     0.317 HD
HETATM   16  C           1      -9.817   9.176 -21.339  0.00  0.00     0.033 C 
HETATM   17  C           1     -11.187   9.476 -20.742  0.00  0.00     0.047 C 
ENDBRANCH   4  12
TORSDOF 4
ENDMDL
MODEL 4
REMARK VINA RESULT:      -5.2      6.390      9.373
REMARK  4 active torsions:
REMARK  status: ('A' for Active; 'I' for Inactive)
REMARK    1  A    between atoms: C_2  and  C_3 
REMARK    2  A    between atoms: C_3  and  C_15 
REMARK    3  A    between atoms: C_3  and  N_7 
REMARK       I    between atoms: N_7  and  C_13 
REMARK    4  A    between atoms: C_9  and  C_13 
ROOT
HETATM    1  O           1     -22.345  -6.681  -1.757  0.00  0.00    -0.271 OA
HETATM    2  H           1     -20.826  -9.406  -2.085  0.00  0.00     0.163 HD
HETATM    3  N           1     -21.490  -8.743  -1.706  0.00  0.00    -0.344 N 
HETATM    4  C           1     -21.551  -7.471  -2.210  0.00  0.00     0.251 C 
ENDROOT
BRANCH   3   5
HETATM    5  C           1     -22.377  -9.141  -0.630  0.00  0.00     0.189 C 
BRANCH   5   6
HETATM    6  C           1     -22.738 -10.613  -0.785  0.00  0.00     0.010 C 
HETATM    7  C           1     -22.829 -10.961  -2.264  0.00  0.00     0.012 C 
HETATM    8  C           1     -24.080 -10.878  -0.116  0.00  0.00     0.012 C 
ENDBRANCH   5   6
BRANCH   5   9
HETATM    9  C           1     -21.688  -8.929   0.695  0.00  0.00     0.197 C 
HETATM   10  O           1     -20.864  -9.772   1.112  0.00  0.00    -0.646 OA
HETATM   11  O           1     -21.939  -7.912   1.376  0.00  0.00    -0.646 OA
ENDBRANCH   5   9
ENDBRANCH   3   5
BRANCH   4  12
HETATM   12  C           1     -20.628  -7.059  -3.330  0.00  0.00     0.311 C 
HETATM   13  N           1     -20.448  -8.151  -4.283  0.00  0.00     0.097 N 
HETATM   14  C           1     -21.657  -8.141  -5.101  0.00  0.00     0.271 C 
HETATM   15  H           1     -19.635  -7.983  -4.875  0.00  0.00     0.317 HD
HETATM   16  C           1     -21.932  -6.665  -5.326  0.00  0.00     0.033 C 
HETATM   17  C           1     -21.252  -5.952  -4.163  0.00  0.00     0.047 C 
ENDBRANCH   4  12
TORSDOF 4
ENDMDL
MODEL 5
REMARK VINA RESULT:      -5.2     17.945     19.363
REMARK  4 active torsions:
REMARK  status: ('A' for Active; 'I' for Inactive)
REMARK    1  A    between atoms: C_2  and  C_3 
REMARK    2  A    between atoms: C_3  and  C_15 
REMARK    3  A    between atoms: C_3  and  N_7 
REMARK       I    between atoms: N_7  and  C_13 
REMARK    4  A    between atoms: C_9  and  C_13 
ROOT
HETATM    1  O           1     -13.297   6.932 -19.448  0.00  0.00    -0.271 OA
HETATM    2  H           1     -11.087   6.236 -21.563  0.00  0.00     0.163 HD
HETATM    3  N           1     -11.795   6.071 -20.860  0.00  0.00    -0.344 N 
HETATM    4  C           1     -12.450   7.129 -20.288  0.00  0.00     0.251 C 
ENDROOT
BRANCH   3   5
HETATM    5  C           1     -12.117   4.715 -20.459  0.00  0.00     0.189 C 
BRANCH   5   6
HETATM    6  C           1     -12.580   3.921 -21.673  0.00  0.00     0.010 C 
HETATM    7  C           1     -11.759   4.327 -22.890  0.00  0.00     0.012 C 
HETATM    8  C           1     -14.052   4.210 -21.935  0.00  0.00     0.012 C 
ENDBRANCH   5   6
BRANCH   5   9
HETATM    9  C           1     -10.893   4.062 -19.868  0.00  0.00     0.197 C 
HETATM   10  O           1      -9.987   4.766 -19.371  0.00  0.00    -0.646 OA
HETATM   11  O           1     -10.783   2.817 -19.875  0.00  0.00    -0.646 OA
ENDBRANCH   5   9
ENDBRANCH   3   5
BRANCH   4  12
HETATM   12  C           1     -12.115   8.540 -20.707  0.00  0.00     0.311 C 
HETATM   13  N           1     -11.869   9.383 -19.540  0.00  0.00     0.097 N 
HETATM   14  C           1     -10.514   9.050 -19.113  0.00  0.00     0.271 C 
HETATM   15  H           1     -11.913  10.370 -19.793  0.00  0.00     0.317 HD
HETATM   16  C           1      -9.746   8.911 -20.416  0.00  0.00     0.033 C 
HETATM   17  C           1     -10.800   8.579 -21.466  0.00  0.00     0.047 C 
ENDBRANCH   4  12
TORSDOF 4
ENDMDL
MODEL 6
REMARK VINA RESULT:      -5.1      6.077      8.075
REMARK  4 active torsions:
REMARK  status: ('A' for Active; 'I' for Inactive)
REMARK    1  A    between atoms: C_2  and  C_3 
REMARK    2  A    between atoms: C_3  and  C_15 
REMARK    3  A    between atoms: C_3  and  N_7 
REMARK       I    between atoms: N_7  and  C_13 
REMARK    4  A    between atoms: C_9  and  C_13 
ROOT
HETATM    1  O           1     -19.697  -8.166  -1.308  0.00  0.00    -0.271 OA
HETATM    2  H           1     -22.423  -8.887  -2.683  0.00  0.00     0.163 HD
HETATM    3  N           1     -21.514  -8.456  -2.574  0.00  0.00    -0.344 N 
HETATM    4  C           1     -20.783  -8.681  -1.438  0.00  0.00     0.251 C 
ENDROOT
BRANCH   3   5
HETATM    5  C           1     -20.987  -7.601  -3.619  0.00  0.00     0.189 C 
BRANCH   5   6
HETATM    6  C           1     -20.842  -8.401  -4.907  0.00  0.00     0.010 C 
HETATM    7  C           1     -21.532  -9.749  -4.749  0.00  0.00     0.012 C 
HETATM    8  C           1     -19.364  -8.619  -5.203  0.00  0.00     0.012 C 
ENDBRANCH   5   6
BRANCH   5   9
HETATM    9  C           1     -21.930  -6.447  -3.849  0.00  0.00     0.197 C 
HETATM   10  O           1     -22.532  -5.931  -2.882  0.00  0.00    -0.646 OA
HETATM   11  O           1     -22.110  -6.006  -5.004  0.00  0.00    -0.646 OA
ENDBRANCH   5   9
ENDBRANCH   3   5
BRANCH   4  12
HETATM   12  C           1     -21.332  -9.572  -0.351  0.00  0.00     0.311 C 
HETATM   13  N           1     -21.106  -8.984   0.966  0.00  0.00     0.097 N 
HETATM   14  C           1     -22.137  -7.960   1.104  0.00  0.00     0.271 C 
HETATM   15  H           1     -21.221  -9.684   1.699  0.00  0.00     0.317 HD
HETATM   16  C           1     -23.374  -8.607   0.507  0.00  0.00     0.033 C 
HETATM   17  C           1     -22.845  -9.671  -0.448  0.00  0.00     0.047 C 
ENDBRANCH   4  12
TORSDOF 4
ENDMDL
MODEL 7
REMARK VINA RESULT:      -5.1      6.099      8.416
REMARK  4 active torsions:
REMARK  status: ('A' for Active; 'I' for Inactive)
REMARK    1  A    between atoms: C_2  and  C_3 
REMARK    2  A    between atoms: C_3  and  C_15 
REMARK    3  A    between atoms: C_3  and  N_7 
REMARK       I    between atoms: N_7  and  C_13 
REMARK    4  A    between atoms: C_9  and  C_13 
ROOT
HETATM    1  O           1     -22.335 -10.470  -3.239  0.00  0.00    -0.271 OA
HETATM    2  H           1     -20.457  -8.318  -1.940  0.00  0.00     0.163 HD
HETATM    3  N           1     -20.997  -8.777  -2.663  0.00  0.00    -0.344 N 
HETATM    4  C           1     -21.690  -9.923  -2.376  0.00  0.00     0.251 C 
ENDROOT
BRANCH   3   5
HETATM    5  C           1     -21.036  -8.221  -4.002  0.00  0.00     0.189 C 
BRANCH   5   6
HETATM    6  C           1     -21.326  -6.728  -3.925  0.00  0.00     0.010 C 
HETATM    7  C           1     -21.857  -6.383  -2.540  0.00  0.00     0.012 C 
HETATM    8  C           1     -22.365  -6.359  -4.974  0.00  0.00     0.012 C 
ENDBRANCH   5   6
BRANCH   5   9
HETATM    9  C           1     -19.705  -8.441  -4.677  0.00  0.00     0.197 C 
HETATM   10  O           1     -19.557  -8.133  -5.880  0.00  0.00    -0.646 OA
HETATM   11  O           1     -18.752  -8.932  -4.036  0.00  0.00    -0.646 OA
ENDBRANCH   5   9
ENDBRANCH   3   5
BRANCH   4  12
HETATM   12  C           1     -21.649 -10.500  -0.982  0.00  0.00     0.311 C 
HETATM   13  N           1     -21.757  -9.443   0.021  0.00  0.00     0.097 N 
HETATM   14  C           1     -23.176  -9.105   0.062  0.00  0.00     0.271 C 
HETATM   15  H           1     -21.461  -9.782   0.936  0.00  0.00     0.317 HD
HETATM   16  C           1     -23.873 -10.451  -0.039  0.00  0.00     0.033 C 
HETATM   17  C           1     -22.867 -11.370  -0.722  0.00  0.00     0.047 C 
ENDBRANCH   4  12
TORSDOF 4
ENDMDL
MODEL 8
REMARK VINA RESULT:      -5.1      8.484     10.459
REMARK  4 active torsions:
REMARK  status: ('A' for Active; 'I' for Inactive)
REMARK    1  A    between atoms: C_2  and  C_3 
REMARK    2  A    between atoms: C_3  and  C_15 
REMARK    3  A    between atoms: C_3  and  N_7 
REMARK       I    between atoms: N_7  and  C_13 
REMARK    4  A    between atoms: C_9  and  C_13 
ROOT
HETATM    1  O           1     -22.873 -10.954  -2.965  0.00  0.00    -0.271 OA
HETATM    2  H           1     -22.676  -9.960   0.004  0.00  0.00     0.163 HD
HETATM    3  N           1     -22.528  -9.957  -0.996  0.00  0.00    -0.344 N 
HETATM    4  C           1     -23.051 -10.959  -1.769  0.00  0.00     0.251 C 
ENDROOT
BRANCH   3   5
HETATM    5  C           1     -21.761  -8.891  -1.612  0.00  0.00     0.189 C 
BRANCH   5   6
HETATM    6  C           1     -21.848  -7.638  -0.750  0.00  0.00     0.010 C 
HETATM    7  C           1     -22.888  -7.844   0.343  0.00  0.00     0.012 C 
HETATM    8  C           1     -22.252  -6.454  -1.618  0.00  0.00     0.012 C 
ENDBRANCH   5   6
BRANCH   5   9
HETATM    9  C           1     -20.319  -9.316  -1.737  0.00  0.00     0.197 C 
HETATM   10  O           1     -19.865 -10.212  -0.992  0.00  0.00    -0.646 OA
HETATM   11  O           1     -19.578  -8.772  -2.583  0.00  0.00    -0.646 OA
ENDBRANCH   5   9
ENDBRANCH   3   5
BRANCH   4  12
HETATM   12  C           1     -23.849 -12.067  -1.128  0.00  0.00     0.311 C 
HETATM   13  N           1     -23.284 -13.372  -1.459  0.00  0.00     0.097 N 
HETATM   14  C           1     -22.130 -13.517  -0.576  0.00  0.00     0.271 C 
HETATM   15  H           1     -23.955 -14.116  -1.266  0.00  0.00     0.317 HD
HETATM   16  C           1     -22.611 -12.952   0.748  0.00  0.00     0.033 C 
HETATM   17  C           1     -23.745 -12.001   0.386  0.00  0.00     0.047 C 
ENDBRANCH   4  12
TORSDOF 4
ENDMDL
MODEL 9
REMARK VINA RESULT:      -5.0      7.450      9.642
REMARK  4 active torsions:
REMARK  status: ('A' for Active; 'I' for Inactive)
REMARK    1  A    between atoms: C_2  and  C_3 
REMARK    2  A    between atoms: C_3  and  C_15 
REMARK    3  A    between atoms: C_3  and  N_7 
REMARK       I    between atoms: N_7  and  C_13 
REMARK    4  A    between atoms: C_9  and  C_13 
ROOT
HETATM    1  O           1     -19.544 -10.538  -1.566  0.00  0.00    -0.271 OA
HETATM    2  H           1     -21.832  -8.518  -2.292  0.00  0.00     0.163 HD
HETATM    3  N           1     -21.344  -9.230  -1.765  0.00  0.00    -0.344 N 
HETATM    4  C           1     -20.127  -9.687  -2.196  0.00  0.00     0.251 C 
ENDROOT
BRANCH   3   5
HETATM    5  C           1     -21.933  -9.767  -0.553  0.00  0.00     0.189 C 
BRANCH   5   6
HETATM    6  C           1     -22.270  -8.626   0.397  0.00  0.00     0.010 C 
HETATM    7  C           1     -22.325  -7.316  -0.379  0.00  0.00     0.012 C 
HETATM    8  C           1     -21.200  -8.533   1.476  0.00  0.00     0.012 C 
ENDBRANCH   5   6
BRANCH   5   9
HETATM    9  C           1     -23.192 -10.523  -0.898  0.00  0.00     0.197 C 
HETATM   10  O           1     -24.070 -10.704  -0.027  0.00  0.00    -0.646 OA
HETATM   11  O           1     -23.357 -10.969  -2.054  0.00  0.00    -0.646 OA
ENDBRANCH   5   9
ENDBRANCH   3   5
BRANCH   4  12
HETATM   12  C           1     -19.514  -9.127  -3.456  0.00  0.00     0.311 C 
HETATM   13  N           1     -19.293 -10.184  -4.440  0.00  0.00     0.097 N 
HETATM   14  C           1     -20.606 -10.428  -5.031  0.00  0.00     0.271 C 
HETATM   15  H           1     -18.646  -9.873  -5.164  0.00  0.00     0.317 HD
HETATM   16  C           1     -21.200  -9.039  -5.185  0.00  0.00     0.033 C 
HETATM   17  C           1     -20.479  -8.182  -4.151  0.00  0.00     0.047 C 
ENDBRANCH   4  12
TORSDOF 4
ENDMDL
