MODEL 1
REMARK VINA RESULT:      -6.2      0.000      0.000
REMARK  7 active torsions:
REMARK  status: ('A' for Active; 'I' for Inactive)
REMARK    1  A    between atoms: C_4  and  C_15 
REMARK    2  A    between atoms: N_7  and  C_20 
REMARK       I    between atoms: C_9  and  N_19 
REMARK    3  A    between atoms: C_9  and  C_20 
REMARK    4  A    between atoms: C_13  and  C_15 
REMARK    5  A    between atoms: C_15  and  N_19 
REMARK    6  A    between atoms: C_17  and  C_20 
REMARK    7  A    between atoms: C_17  and  C_18 
ROOT
HETATM    1  H           1     -22.104  -5.739  -8.987  0.00  0.00     0.163 HD
HETATM    2  O           1     -21.585  -3.207  -7.208  0.00  0.00    -0.271 OA
HETATM    3  C           1     -21.595  -4.376  -7.515  0.00  0.00     0.249 C 
HETATM    4  N           1     -22.095  -4.760  -8.731  0.00  0.00    -0.344 N 
ENDROOT
BRANCH   3   5
HETATM    5  C           1     -21.057  -5.412  -6.558  0.00  0.00     0.284 C 
BRANCH   5   6
HETATM    6  N           1     -20.072  -4.768  -5.628  0.00  0.00    -0.066 N 
HETATM    7  H           1     -20.545  -4.538  -4.725  0.00  0.00     0.275 HD
HETATM    8  H           1     -19.704  -3.892  -6.061  0.00  0.00     0.275 HD
HETATM    9  H           1     -19.281  -5.428  -5.448  0.00  0.00     0.275 HD
ENDBRANCH   5   6
BRANCH   5  10
HETATM   10  C           1     -22.206  -6.003  -5.751  0.00  0.00     0.155 C 
BRANCH  10  11
HETATM   11  C           1     -21.681  -6.524  -4.436  0.00  0.00     0.175 C 
HETATM   12  O           1     -20.869  -7.474  -4.419  0.00  0.00    -0.648 OA
HETATM   13  O           1     -22.060  -6.006  -3.362  0.00  0.00    -0.648 OA
ENDBRANCH  10  11
ENDBRANCH   5  10
ENDBRANCH   3   5
BRANCH   4  14
HETATM   14  C           1     -22.611  -3.765  -9.649  0.00  0.00     0.189 C 
BRANCH  14  15
HETATM   15  C           1     -24.115  -3.872  -9.712  0.00  0.00     0.197 C 
HETATM   16  O           1     -24.652  -4.961 -10.011  0.00  0.00    -0.646 OA
HETATM   17  O           1     -24.825  -2.874  -9.465  0.00  0.00    -0.646 OA
ENDBRANCH  14  15
BRANCH  14  18
HETATM   18  C           1     -22.026  -4.002 -11.035  0.00  0.00     0.010 C 
HETATM   19  C           1     -22.395  -2.839 -11.947  0.00  0.00     0.012 C 
HETATM   20  C           1     -20.510  -4.109 -10.934  0.00  0.00     0.012 C 
ENDBRANCH  14  18
ENDBRANCH   4  14
TORSDOF 7
ENDMDL
MODEL 2
REMARK VINA RESULT:      -6.1      2.894      6.551
REMARK  7 active torsions:
REMARK  status: ('A' for Active; 'I' for Inactive)
REMARK    1  A    between atoms: C_4  and  C_15 
REMARK    2  A    between atoms: N_7  and  C_20 
REMARK       I    between atoms: C_9  and  N_19 
REMARK    3  A    between atoms: C_9  and  C_20 
REMARK    4  A    between atoms: C_13  and  C_15 
REMARK    5  A    between atoms: C_15  and  N_19 
REMARK    6  A    between atoms: C_17  and  C_20 
REMARK    7  A    between atoms: C_17  and  C_18 
ROOT
HETATM    1  H           1     -21.907  -3.102 -10.714  0.00  0.00     0.163 HD
HETATM    2  O           1     -23.787  -5.613 -10.777  0.00  0.00    -0.271 OA
HETATM    3  C           1     -23.307  -4.565 -11.141  0.00  0.00     0.249 C 
HETATM    4  N           1     -22.309  -3.979 -10.409  0.00  0.00    -0.344 N 
ENDROOT
BRANCH   3   5
HETATM    5  C           1     -23.807  -3.903 -12.401  0.00  0.00     0.284 C 
BRANCH   5   6
HETATM    6  N           1     -25.021  -3.081 -12.085  0.00  0.00    -0.066 N 
HETATM    7  H           1     -25.624  -3.597 -11.406  0.00  0.00     0.275 HD
HETATM    8  H           1     -25.560  -2.902 -12.963  0.00  0.00     0.275 HD
HETATM    9  H           1     -24.725  -2.170 -11.666  0.00  0.00     0.275 HD
ENDBRANCH   5   6
BRANCH   5  10
HETATM   10  C           1     -22.718  -3.002 -12.969  0.00  0.00     0.155 C 
BRANCH  10  11
HETATM   11  C           1     -23.134  -2.505 -14.331  0.00  0.00     0.175 C 
HETATM   12  O           1     -22.528  -2.896 -15.352  0.00  0.00    -0.648 OA
HETATM   13  O           1     -24.086  -1.701 -14.439  0.00  0.00    -0.648 OA
ENDBRANCH  10  11
ENDBRANCH   5  10
ENDBRANCH   3   5
BRANCH   4  14
HETATM   14  C           1     -21.829  -4.615  -9.198  0.00  0.00     0.189 C 
BRANCH  14  15
HETATM   15  C           1     -22.451  -3.944  -7.998  0.00  0.00     0.197 C 
HETATM   16  O           1     -23.593  -4.281  -7.617  0.00  0.00    -0.646 OA
HETATM   17  O           1     -21.825  -3.053  -7.385  0.00  0.00    -0.646 OA
ENDBRANCH  14  15
BRANCH  14  18
HETATM   18  C           1     -20.313  -4.485  -9.124  0.00  0.00     0.010 C 
HETATM   19  C           1     -19.767  -5.490  -8.119  0.00  0.00     0.012 C 
HETATM   20  C           1     -19.713  -4.759 -10.497  0.00  0.00     0.012 C 
ENDBRANCH  14  18
ENDBRANCH   4  14
TORSDOF 7
ENDMDL
MODEL 3
REMARK VINA RESULT:      -5.5      2.033      6.020
REMARK  7 active torsions:
REMARK  status: ('A' for Active; 'I' for Inactive)
REMARK    1  A    between atoms: C_4  and  C_15 
REMARK    2  A    between atoms: N_7  and  C_20 
REMARK       I    between atoms: C_9  and  N_19 
REMARK    3  A    between atoms: C_9  and  C_20 
REMARK    4  A    between atoms: C_13  and  C_15 
REMARK    5  A    between atoms: C_15  and  N_19 
REMARK    6  A    between atoms: C_17  and  C_20 
REMARK    7  A    between atoms: C_17  and  C_18 
ROOT
HETATM    1  H           1     -23.147  -4.754  -7.483  0.00  0.00     0.163 HD
HETATM    2  O           1     -21.217  -4.800  -9.956  0.00  0.00    -0.271 OA
HETATM    3  C           1     -22.233  -4.600  -9.334  0.00  0.00     0.249 C 
HETATM    4  N           1     -22.296  -4.921  -8.004  0.00  0.00    -0.344 N 
ENDROOT
BRANCH   3   5
HETATM    5  C           1     -23.433  -3.995 -10.022  0.00  0.00     0.284 C 
BRANCH   5   6
HETATM    6  N           1     -24.290  -3.298  -9.007  0.00  0.00    -0.066 N 
HETATM    7  H           1     -23.768  -3.219  -8.105  0.00  0.00     0.275 HD
HETATM    8  H           1     -25.167  -3.846  -8.855  0.00  0.00     0.275 HD
HETATM    9  H           1     -24.533  -2.342  -9.354  0.00  0.00     0.275 HD
ENDBRANCH   5   6
BRANCH   5  10
HETATM   10  C           1     -22.966  -2.990 -11.067  0.00  0.00     0.155 C 
BRANCH  10  11
HETATM   11  C           1     -23.977  -2.918 -12.184  0.00  0.00     0.175 C 
HETATM   12  O           1     -25.193  -3.076 -11.938  0.00  0.00    -0.648 OA
HETATM   13  O           1     -23.599  -2.702 -13.356  0.00  0.00    -0.648 OA
ENDBRANCH  10  11
ENDBRANCH   5  10
ENDBRANCH   3   5
BRANCH   4  14
HETATM   14  C           1     -21.144  -5.503  -7.344  0.00  0.00     0.189 C 
BRANCH  14  15
HETATM   15  C           1     -21.608  -6.398  -6.221  0.00  0.00     0.197 C 
HETATM   16  O           1     -21.091  -7.526  -6.067  0.00  0.00    -0.646 OA
HETATM   17  O           1     -22.507  -6.011  -5.444  0.00  0.00    -0.646 OA
ENDBRANCH  14  15
BRANCH  14  18
HETATM   18  C           1     -20.269  -4.392  -6.780  0.00  0.00     0.010 C 
HETATM   19  C           1     -20.034  -4.635  -5.295  0.00  0.00     0.012 C 
HETATM   20  C           1     -18.932  -4.379  -7.511  0.00  0.00     0.012 C 
ENDBRANCH  14  18
ENDBRANCH   4  14
TORSDOF 7
ENDMDL
MODEL 4
REMARK VINA RESULT:      -5.3     10.658     13.057
REMARK  7 active torsions:
REMARK  status: ('A' for Active; 'I' for Inactive)
REMARK    1  A    between atoms: C_4  and  C_15 
REMARK    2  A    between atoms: N_7  and  C_20 
REMARK       I    between atoms: C_9  and  N_19 
REMARK    3  A    between atoms: C_9  and  C_20 
REMARK    4  A    between atoms: C_13  and  C_15 
REMARK    5  A    between atoms: C_15  and  N_19 
REMARK    6  A    between atoms: C_17  and  C_20 
REMARK    7  A    between atoms: C_17  and  C_18 
ROOT
HETATM    1  H           1     -27.030  -7.615 -17.407  0.00  0.00     0.163 HD
HETATM    2  O           1     -27.902  -5.327 -19.368  0.00  0.00    -0.271 OA
HETATM    3  C           1     -27.210  -6.205 -18.912  0.00  0.00     0.249 C 
HETATM    4  N           1     -27.609  -6.879 -17.789  0.00  0.00    -0.344 N 
ENDROOT
BRANCH   3   5
HETATM    5  C           1     -25.904  -6.561 -19.581  0.00  0.00     0.284 C 
BRANCH   5   6
HETATM    6  N           1     -24.931  -7.048 -18.548  0.00  0.00    -0.066 N 
HETATM    7  H           1     -24.936  -8.093 -18.531  0.00  0.00     0.275 HD
HETATM    8  H           1     -25.208  -6.683 -17.608  0.00  0.00     0.275 HD
HETATM    9  H           1     -23.972  -6.708 -18.786  0.00  0.00     0.275 HD
ENDBRANCH   5   6
BRANCH   5  10
HETATM   10  C           1     -26.142  -7.658 -20.610  0.00  0.00     0.155 C 
BRANCH  10  11
HETATM   11  C           1     -24.859  -7.942 -21.350  0.00  0.00     0.175 C 
HETATM   12  O           1     -24.828  -7.875 -22.598  0.00  0.00    -0.648 OA
HETATM   13  O           1     -23.825  -8.245 -20.715  0.00  0.00    -0.648 OA
ENDBRANCH  10  11
ENDBRANCH   5  10
ENDBRANCH   3   5
BRANCH   4  14
HETATM   14  C           1     -28.864  -6.538 -17.147  0.00  0.00     0.189 C 
BRANCH  14  15
HETATM   15  C           1     -28.665  -6.490 -15.651  0.00  0.00     0.197 C 
HETATM   16  O           1     -28.025  -7.397 -15.077  0.00  0.00    -0.646 OA
HETATM   17  O           1     -29.139  -5.543 -14.987  0.00  0.00    -0.646 OA
ENDBRANCH  14  15
BRANCH  14  18
HETATM   18  C           1     -29.911  -7.590 -17.487  0.00  0.00     0.010 C 
HETATM   19  C           1     -31.297  -6.962 -17.433  0.00  0.00     0.012 C 
HETATM   20  C           1     -29.651  -8.128 -18.888  0.00  0.00     0.012 C 
ENDBRANCH  14  18
ENDBRANCH   4  14
TORSDOF 7
ENDMDL
MODEL 5
REMARK VINA RESULT:      -5.3      3.158      6.887
REMARK  7 active torsions:
REMARK  status: ('A' for Active; 'I' for Inactive)
REMARK    1  A    between atoms: C_4  and  C_15 
REMARK    2  A    between atoms: N_7  and  C_20 
REMARK       I    between atoms: C_9  and  N_19 
REMARK    3  A    between atoms: C_9  and  C_20 
REMARK    4  A    between atoms: C_13  and  C_15 
REMARK    5  A    between atoms: C_15  and  N_19 
REMARK    6  A    between atoms: C_17  and  C_20 
REMARK    7  A    between atoms: C_17  and  C_18 
ROOT
HETATM    1  H           1     -22.709  -4.875 -10.268  0.00  0.00     0.163 HD
HETATM    2  O           1     -21.284  -2.349 -11.462  0.00  0.00    -0.271 OA
HETATM    3  C           1     -22.003  -3.319 -11.436  0.00  0.00     0.249 C 
HETATM    4  N           1     -22.107  -4.063 -10.290  0.00  0.00    -0.344 N 
ENDROOT
BRANCH   3   5
HETATM    5  C           1     -22.786  -3.713 -12.664  0.00  0.00     0.284 C 
BRANCH   5   6
HETATM    6  N           1     -23.562  -4.965 -12.381  0.00  0.00    -0.066 N 
HETATM    7  H           1     -23.553  -5.578 -13.227  0.00  0.00     0.275 HD
HETATM    8  H           1     -24.549  -4.717 -12.141  0.00  0.00     0.275 HD
HETATM    9  H           1     -23.124  -5.472 -11.578  0.00  0.00     0.275 HD
ENDBRANCH   5   6
BRANCH   5  10
HETATM   10  C           1     -23.749  -2.592 -13.033  0.00  0.00     0.155 C 
BRANCH  10  11
HETATM   11  C           1     -23.505  -2.168 -14.460  0.00  0.00     0.175 C 
HETATM   12  O           1     -22.663  -2.773 -15.158  0.00  0.00    -0.648 OA
HETATM   13  O           1     -24.145  -1.209 -14.946  0.00  0.00    -0.648 OA
ENDBRANCH  10  11
ENDBRANCH   5  10
ENDBRANCH   3   5
BRANCH   4  14
HETATM   14  C           1     -21.354  -3.685  -9.110  0.00  0.00     0.189 C 
BRANCH  14  15
HETATM   15  C           1     -20.031  -4.411  -9.104  0.00  0.00     0.197 C 
HETATM   16  O           1     -19.211  -4.208  -8.183  0.00  0.00    -0.646 OA
HETATM   17  O           1     -19.757  -5.216 -10.020  0.00  0.00    -0.646 OA
ENDBRANCH  14  15
BRANCH  14  18
HETATM   18  C           1     -22.145  -4.059  -7.863  0.00  0.00     0.010 C 
HETATM   19  C           1     -23.629  -4.108  -8.200  0.00  0.00     0.012 C 
HETATM   20  C           1     -21.690  -5.425  -7.366  0.00  0.00     0.012 C 
ENDBRANCH  14  18
ENDBRANCH   4  14
TORSDOF 7
ENDMDL
MODEL 6
REMARK VINA RESULT:      -5.3      2.578      5.954
REMARK  7 active torsions:
REMARK  status: ('A' for Active; 'I' for Inactive)
REMARK    1  A    between atoms: C_4  and  C_15 
REMARK    2  A    between atoms: N_7  and  C_20 
REMARK       I    between atoms: C_9  and  N_19 
REMARK    3  A    between atoms: C_9  and  C_20 
REMARK    4  A    between atoms: C_13  and  C_15 
REMARK    5  A    between atoms: C_15  and  N_19 
REMARK    6  A    between atoms: C_17  and  C_20 
REMARK    7  A    between atoms: C_17  and  C_18 
ROOT
HETATM    1  H           1     -22.321  -6.018  -8.442  0.00  0.00     0.163 HD
HETATM    2  O           1     -22.825  -2.950  -8.860  0.00  0.00    -0.271 OA
HETATM    3  C           1     -22.991  -4.139  -8.994  0.00  0.00     0.249 C 
HETATM    4  N           1     -22.182  -5.022  -8.330  0.00  0.00    -0.344 N 
ENDROOT
BRANCH   3   5
HETATM    5  C           1     -24.091  -4.651  -9.891  0.00  0.00     0.284 C 
BRANCH   5   6
HETATM    6  N           1     -25.272  -3.729  -9.811  0.00  0.00    -0.066 N 
HETATM    7  H           1     -26.077  -4.149 -10.327  0.00  0.00     0.275 HD
HETATM    8  H           1     -25.025  -2.809 -10.240  0.00  0.00     0.275 HD
HETATM    9  H           1     -25.535  -3.588  -8.809  0.00  0.00     0.275 HD
ENDBRANCH   5   6
BRANCH   5  10
HETATM   10  C           1     -23.589  -4.707 -11.328  0.00  0.00     0.155 C 
BRANCH  10  11
HETATM   11  C           1     -23.986  -3.444 -12.051  0.00  0.00     0.175 C 
HETATM   12  O           1     -25.067  -3.395 -12.676  0.00  0.00    -0.648 OA
HETATM   13  O           1     -23.233  -2.446 -12.024  0.00  0.00    -0.648 OA
ENDBRANCH  10  11
ENDBRANCH   5  10
ENDBRANCH   3   5
BRANCH   4  14
HETATM   14  C           1     -21.125  -4.529  -7.468  0.00  0.00     0.189 C 
BRANCH  14  15
HETATM   15  C           1     -19.818  -4.536  -8.222  0.00  0.00     0.197 C 
HETATM   16  O           1     -19.789  -4.897  -9.418  0.00  0.00    -0.646 OA
HETATM   17  O           1     -18.765  -4.181  -7.651  0.00  0.00    -0.646 OA
ENDBRANCH  14  15
BRANCH  14  18
HETATM   18  C           1     -21.010  -5.427  -6.243  0.00  0.00     0.010 C 
HETATM   19  C           1     -22.403  -5.836  -5.782  0.00  0.00     0.012 C 
HETATM   20  C           1     -20.207  -6.672  -6.601  0.00  0.00     0.012 C 
ENDBRANCH  14  18
ENDBRANCH   4  14
TORSDOF 7
ENDMDL
MODEL 7
REMARK VINA RESULT:      -5.2      9.872     12.266
REMARK  7 active torsions:
REMARK  status: ('A' for Active; 'I' for Inactive)
REMARK    1  A    between atoms: C_4  and  C_15 
REMARK    2  A    between atoms: N_7  and  C_20 
REMARK       I    between atoms: C_9  and  N_19 
REMARK    3  A    between atoms: C_9  and  C_20 
REMARK    4  A    between atoms: C_13  and  C_15 
REMARK    5  A    between atoms: C_15  and  N_19 
REMARK    6  A    between atoms: C_17  and  C_20 
REMARK    7  A    between atoms: C_17  and  C_18 
ROOT
HETATM    1  H           1     -28.001  -5.207 -16.964  0.00  0.00     0.163 HD
HETATM    2  O           1     -29.085  -8.151 -17.010  0.00  0.00    -0.271 OA
HETATM    3  C           1     -29.117  -6.948 -16.891  0.00  0.00     0.249 C 
HETATM    4  N           1     -27.974  -6.213 -17.064  0.00  0.00    -0.344 N 
ENDROOT
BRANCH   3   5
HETATM    5  C           1     -30.415  -6.257 -16.554  0.00  0.00     0.284 C 
BRANCH   5   6
HETATM    6  N           1     -30.229  -5.420 -15.322  0.00  0.00    -0.066 N 
HETATM    7  H           1     -30.320  -4.410 -15.572  0.00  0.00     0.275 HD
HETATM    8  H           1     -29.280  -5.596 -14.921  0.00  0.00     0.275 HD
HETATM    9  H           1     -30.958  -5.672 -14.617  0.00  0.00     0.275 HD
ENDBRANCH   5   6
BRANCH   5  10
HETATM   10  C           1     -30.832  -5.365 -17.715  0.00  0.00     0.155 C 
BRANCH  10  11
HETATM   11  C           1     -31.598  -4.177 -17.188  0.00  0.00     0.175 C 
HETATM   12  O           1     -32.624  -4.351 -16.495  0.00  0.00    -0.648 OA
HETATM   13  O           1     -31.207  -3.017 -17.445  0.00  0.00    -0.648 OA
ENDBRANCH  10  11
ENDBRANCH   5  10
ENDBRANCH   3   5
BRANCH   4  14
HETATM   14  C           1     -26.727  -6.878 -17.388  0.00  0.00     0.189 C 
BRANCH  14  15
HETATM   15  C           1     -25.749  -6.690 -16.254  0.00  0.00     0.197 C 
HETATM   16  O           1     -25.317  -5.549 -15.983  0.00  0.00    -0.646 OA
HETATM   17  O           1     -25.371  -7.676 -15.584  0.00  0.00    -0.646 OA
ENDBRANCH  14  15
BRANCH  14  18
HETATM   18  C           1     -26.149  -6.277 -18.662  0.00  0.00     0.010 C 
HETATM   19  C           1     -24.840  -6.976 -19.004  0.00  0.00     0.012 C 
HETATM   20  C           1     -27.139  -6.463 -19.805  0.00  0.00     0.012 C 
ENDBRANCH  14  18
ENDBRANCH   4  14
TORSDOF 7
ENDMDL
MODEL 8
REMARK VINA RESULT:      -5.2      4.176      8.133
REMARK  7 active torsions:
REMARK  status: ('A' for Active; 'I' for Inactive)
REMARK    1  A    between atoms: C_4  and  C_15 
REMARK    2  A    between atoms: N_7  and  C_20 
REMARK       I    between atoms: C_9  and  N_19 
REMARK    3  A    between atoms: C_9  and  C_20 
REMARK    4  A    between atoms: C_13  and  C_15 
REMARK    5  A    between atoms: C_15  and  N_19 
REMARK    6  A    between atoms: C_17  and  C_20 
REMARK    7  A    between atoms: C_17  and  C_18 
ROOT
HETATM    1  H           1     -22.307  -8.004  -3.249  0.00  0.00     0.163 HD
HETATM    2  O           1     -19.309  -8.914  -3.087  0.00  0.00    -0.271 OA
HETATM    3  C           1     -20.300  -8.405  -3.556  0.00  0.00     0.249 C 
HETATM    4  N           1     -21.477  -8.430  -2.857  0.00  0.00    -0.344 N 
ENDROOT
BRANCH   3   5
HETATM    5  C           1     -20.240  -7.743  -4.910  0.00  0.00     0.284 C 
BRANCH   5   6
HETATM    6  N           1     -21.224  -8.403  -5.832  0.00  0.00    -0.066 N 
HETATM    7  H           1     -21.030  -8.108  -6.815  0.00  0.00     0.275 HD
HETATM    8  H           1     -22.194  -8.118  -5.568  0.00  0.00     0.275 HD
HETATM    9  H           1     -21.132  -9.441  -5.754  0.00  0.00     0.275 HD
ENDBRANCH   5   6
BRANCH   5  10
HETATM   10  C           1     -20.588  -6.267  -4.770  0.00  0.00     0.155 C 
BRANCH  10  11
HETATM   11  C           1     -21.903  -5.992  -5.456  0.00  0.00     0.175 C 
HETATM   12  O           1     -22.978  -6.279  -4.887  0.00  0.00    -0.648 OA
HETATM   13  O           1     -21.918  -5.476  -6.596  0.00  0.00    -0.648 OA
ENDBRANCH  10  11
ENDBRANCH   5  10
ENDBRANCH   3   5
BRANCH   4  14
HETATM   14  C           1     -21.535  -9.066  -1.555  0.00  0.00     0.189 C 
BRANCH  14  15
HETATM   15  C           1     -22.200 -10.415  -1.685  0.00  0.00     0.197 C 
HETATM   16  O           1     -23.377 -10.571  -1.294  0.00  0.00    -0.646 OA
HETATM   17  O           1     -21.575 -11.375  -2.184  0.00  0.00    -0.646 OA
ENDBRANCH  14  15
BRANCH  14  18
HETATM   18  C           1     -22.337  -8.194  -0.599  0.00  0.00     0.010 C 
HETATM   19  C           1     -21.714  -8.258   0.789  0.00  0.00     0.012 C 
HETATM   20  C           1     -22.325  -6.754  -1.097  0.00  0.00     0.012 C 
ENDBRANCH  14  18
ENDBRANCH   4  14
TORSDOF 7
ENDMDL
MODEL 9
REMARK VINA RESULT:      -5.2      2.273      6.556
REMARK  7 active torsions:
REMARK  status: ('A' for Active; 'I' for Inactive)
REMARK    1  A    between atoms: C_4  and  C_15 
REMARK    2  A    between atoms: N_7  and  C_20 
REMARK       I    between atoms: C_9  and  N_19 
REMARK    3  A    between atoms: C_9  and  C_20 
REMARK    4  A    between atoms: C_13  and  C_15 
REMARK    5  A    between atoms: C_15  and  N_19 
REMARK    6  A    between atoms: C_17  and  C_20 
REMARK    7  A    between atoms: C_17  and  C_18 
ROOT
HETATM    1  H           1     -19.756  -6.808  -4.653  0.00  0.00     0.163 HD
HETATM    2  O           1     -22.590  -5.812  -5.557  0.00  0.00    -0.271 OA
HETATM    3  C           1     -21.384  -5.888  -5.540  0.00  0.00     0.249 C 
HETATM    4  N           1     -20.765  -6.744  -4.668  0.00  0.00    -0.344 N 
ENDROOT
BRANCH   3   5
HETATM    5  C           1     -20.561  -5.041  -6.479  0.00  0.00     0.284 C 
BRANCH   5   6
HETATM    6  N           1     -19.914  -5.921  -7.508  0.00  0.00    -0.066 N 
HETATM    7  H           1     -20.369  -5.764  -8.435  0.00  0.00     0.275 HD
HETATM    8  H           1     -20.026  -6.922  -7.230  0.00  0.00     0.275 HD
HETATM    9  H           1     -18.897  -5.689  -7.574  0.00  0.00     0.275 HD
ENDBRANCH   5   6
BRANCH   5  10
HETATM   10  C           1     -21.462  -4.028  -7.173  0.00  0.00     0.155 C 
BRANCH  10  11
HETATM   11  C           1     -21.461  -4.288  -8.659  0.00  0.00     0.175 C 
HETATM   12  O           1     -22.407  -4.911  -9.186  0.00  0.00    -0.648 OA
HETATM   13  O           1     -20.512  -3.880  -9.364  0.00  0.00    -0.648 OA
ENDBRANCH  10  11
ENDBRANCH   5  10
ENDBRANCH   3   5
BRANCH   4  14
HETATM   14  C           1     -21.556  -7.557  -3.766  0.00  0.00     0.189 C 
BRANCH  14  15
HETATM   15  C           1     -21.610  -6.896  -2.410  0.00  0.00     0.197 C 
HETATM   16  O           1     -20.952  -7.368  -1.458  0.00  0.00    -0.646 OA
HETATM   17  O           1     -22.311  -5.876  -2.240  0.00  0.00    -0.646 OA
ENDBRANCH  14  15
BRANCH  14  18
HETATM   18  C           1     -20.920  -8.934  -3.634  0.00  0.00     0.010 C 
HETATM   19  C           1     -21.951 -10.004  -3.971  0.00  0.00     0.012 C 
HETATM   20  C           1     -19.743  -9.042  -4.596  0.00  0.00     0.012 C 
ENDBRANCH  14  18
ENDBRANCH   4  14
TORSDOF 7
ENDMDL
