MODEL 1
REMARK VINA RESULT:      -6.4      0.000      0.000
REMARK  8 active torsions:
REMARK  status: ('A' for Active; 'I' for Inactive)
REMARK    1  A    between atoms: N_1  and  C_9 
REMARK    2  A    between atoms: O_3  and  C_4 
REMARK    3  A    between atoms: C_4  and  C_19 
REMARK    4  A    between atoms: N_7  and  C_19 
REMARK       I    between atoms: N_7  and  C_8 
REMARK    5  A    between atoms: C_8  and  C_9 
REMARK    6  A    between atoms: C_9  and  C_10 
REMARK    7  A    between atoms: C_10  and  C_11 
REMARK       I    between atoms: C_11  and  N_12 
REMARK    8  A    between atoms: C_18  and  C_19 
ROOT
HETATM    1  H           1     -34.071  -0.827 -14.227  0.00  0.00     0.163 HD
HETATM    2  N           1     -35.062  -0.739 -14.043  0.00  0.00    -0.343 N 
HETATM    3  C           1     -35.583  -1.204 -12.865  0.00  0.00     0.249 C 
HETATM    4  O           1     -36.766  -1.098 -12.644  0.00  0.00    -0.271 OA
ENDROOT
BRANCH   3   5
HETATM    5  C           1     -34.680  -1.848 -11.842  0.00  0.00     0.283 C 
BRANCH   5   6
HETATM    6  N           1     -35.052  -1.363 -10.472  0.00  0.00    -0.066 N 
HETATM    7  H           1     -36.074  -1.146 -10.444  0.00  0.00     0.275 HD
HETATM    8  H           1     -34.834  -2.106  -9.769  0.00  0.00     0.275 HD
HETATM    9  H           1     -34.506  -0.501 -10.248  0.00  0.00     0.275 HD
ENDBRANCH   5   6
BRANCH   5  10
HETATM   10  C           1     -34.839  -3.361 -11.905  0.00  0.00     0.145 C 
BRANCH  10  11
HETATM   11  C           1     -33.890  -3.925 -12.933  0.00  0.00     0.217 C 
HETATM   12  N           1     -32.732  -4.536 -12.533  0.00  0.00    -0.370 N 
HETATM   13  H           1     -32.095  -4.913 -13.223  0.00  0.00     0.159 HD
HETATM   14  H           1     -32.512  -4.609 -11.548  0.00  0.00     0.159 HD
HETATM   15  O           1     -34.151  -3.837 -14.109  0.00  0.00    -0.274 OA
ENDBRANCH  10  11
ENDBRANCH   5  10
ENDBRANCH   3   5
BRANCH   2  16
HETATM   16  C           1     -35.931  -0.120 -15.025  0.00  0.00     0.209 C 
BRANCH  16  17
HETATM   17  C           1     -35.496   1.323 -15.248  0.00  0.00     0.200 C 
BRANCH  17  18
HETATM   18  O           1     -36.410   1.962 -16.098  0.00  0.00    -0.398 OA
HETATM   19  H           1     -36.442   1.458 -16.893  0.00  0.00     0.209 HD
ENDBRANCH  17  18
ENDBRANCH  16  17
BRANCH  16  20
HETATM   20  C           1     -35.841  -0.880 -16.325  0.00  0.00     0.198 C 
HETATM   21  O           1     -34.847  -1.601 -16.560  0.00  0.00    -0.646 OA
HETATM   22  O           1     -36.759  -0.788 -17.168  0.00  0.00    -0.646 OA
ENDBRANCH  16  20
ENDBRANCH   2  16
TORSDOF 8
ENDMDL
MODEL 2
REMARK VINA RESULT:      -6.0     12.199     14.636
REMARK  8 active torsions:
REMARK  status: ('A' for Active; 'I' for Inactive)
REMARK    1  A    between atoms: N_1  and  C_9 
REMARK    2  A    between atoms: O_3  and  C_4 
REMARK    3  A    between atoms: C_4  and  C_19 
REMARK    4  A    between atoms: N_7  and  C_19 
REMARK       I    between atoms: N_7  and  C_8 
REMARK    5  A    between atoms: C_8  and  C_9 
REMARK    6  A    between atoms: C_9  and  C_10 
REMARK    7  A    between atoms: C_10  and  C_11 
REMARK       I    between atoms: C_11  and  N_12 
REMARK    8  A    between atoms: C_18  and  C_19 
ROOT
HETATM    1  H           1     -20.785  -3.398  -9.850  0.00  0.00     0.163 HD
HETATM    2  N           1     -21.573  -4.021  -9.725  0.00  0.00    -0.343 N 
HETATM    3  C           1     -22.606  -4.006 -10.623  0.00  0.00     0.249 C 
HETATM    4  O           1     -23.546  -4.751 -10.475  0.00  0.00    -0.271 OA
ENDROOT
BRANCH   3   5
HETATM    5  C           1     -22.572  -3.060 -11.798  0.00  0.00     0.283 C 
BRANCH   5   6
HETATM    6  N           1     -21.618  -3.582 -12.831  0.00  0.00    -0.066 N 
HETATM    7  H           1     -20.921  -4.214 -12.376  0.00  0.00     0.275 HD
HETATM    8  H           1     -22.149  -4.115 -13.557  0.00  0.00     0.275 HD
HETATM    9  H           1     -21.120  -2.782 -13.282  0.00  0.00     0.275 HD
ENDBRANCH   5   6
BRANCH   5  10
HETATM   10  C           1     -23.965  -2.951 -12.404  0.00  0.00     0.145 C 
BRANCH  10  11
HETATM   11  C           1     -23.857  -2.498 -13.839  0.00  0.00     0.217 C 
HETATM   12  N           1     -23.918  -1.165 -14.142  0.00  0.00    -0.370 N 
HETATM   13  H           1     -23.846  -0.860 -15.104  0.00  0.00     0.159 HD
HETATM   14  H           1     -24.035  -0.483 -13.403  0.00  0.00     0.159 HD
HETATM   15  O           1     -23.718  -3.311 -14.720  0.00  0.00    -0.274 OA
ENDBRANCH  10  11
ENDBRANCH   5  10
ENDBRANCH   3   5
BRANCH   2  16
HETATM   16  C           1     -21.607  -4.931  -8.597  0.00  0.00     0.209 C 
BRANCH  16  17
HETATM   17  C           1     -20.194  -5.412  -8.291  0.00  0.00     0.200 C 
BRANCH  17  18
HETATM   18  O           1     -20.214  -6.228  -7.151  0.00  0.00    -0.398 OA
HETATM   19  H           1     -20.535  -5.699  -6.442  0.00  0.00     0.209 HD
ENDBRANCH  17  18
ENDBRANCH  16  17
BRANCH  16  20
HETATM   20  C           1     -22.166  -4.215  -7.392  0.00  0.00     0.198 C 
HETATM   21  O           1     -23.313  -4.492  -6.977  0.00  0.00    -0.646 OA
HETATM   22  O           1     -21.484  -3.344  -6.809  0.00  0.00    -0.646 OA
ENDBRANCH  16  20
ENDBRANCH   2  16
TORSDOF 8
ENDMDL
MODEL 3
REMARK VINA RESULT:      -5.9      2.011      5.516
REMARK  8 active torsions:
REMARK  status: ('A' for Active; 'I' for Inactive)
REMARK    1  A    between atoms: N_1  and  C_9 
REMARK    2  A    between atoms: O_3  and  C_4 
REMARK    3  A    between atoms: C_4  and  C_19 
REMARK    4  A    between atoms: N_7  and  C_19 
REMARK       I    between atoms: N_7  and  C_8 
REMARK    5  A    between atoms: C_8  and  C_9 
REMARK    6  A    between atoms: C_9  and  C_10 
REMARK    7  A    between atoms: C_10  and  C_11 
REMARK       I    between atoms: C_11  and  N_12 
REMARK    8  A    between atoms: C_18  and  C_19 
ROOT
HETATM    1  H           1     -34.795  -1.426 -11.435  0.00  0.00     0.163 HD
HETATM    2  N           1     -34.755  -2.018 -12.255  0.00  0.00    -0.343 N 
HETATM    3  C           1     -35.065  -1.505 -13.486  0.00  0.00     0.249 C 
HETATM    4  O           1     -35.015  -2.211 -14.465  0.00  0.00    -0.271 OA
ENDROOT
BRANCH   3   5
HETATM    5  C           1     -35.468  -0.057 -13.621  0.00  0.00     0.283 C 
BRANCH   5   6
HETATM    6  N           1     -34.381   0.700 -14.324  0.00  0.00    -0.066 N 
HETATM    7  H           1     -34.510   0.618 -15.358  0.00  0.00     0.275 HD
HETATM    8  H           1     -34.423   1.707 -14.047  0.00  0.00     0.275 HD
HETATM    9  H           1     -33.451   0.304 -14.056  0.00  0.00     0.275 HD
ENDBRANCH   5   6
BRANCH   5  10
HETATM   10  C           1     -36.756   0.039 -14.427  0.00  0.00     0.145 C 
BRANCH  10  11
HETATM   11  C           1     -36.432   0.422 -15.851  0.00  0.00     0.217 C 
HETATM   12  N           1     -36.274  -0.549 -16.802  0.00  0.00    -0.370 N 
HETATM   13  H           1     -36.056  -0.293 -17.756  0.00  0.00     0.159 HD
HETATM   14  H           1     -36.375  -1.525 -16.551  0.00  0.00     0.159 HD
HETATM   15  O           1     -36.309   1.585 -16.150  0.00  0.00    -0.274 OA
ENDBRANCH  10  11
ENDBRANCH   5  10
ENDBRANCH   3   5
BRANCH   2  16
HETATM   16  C           1     -34.367  -3.409 -12.126  0.00  0.00     0.209 C 
BRANCH  16  17
HETATM   17  C           1     -32.915  -3.491 -11.672  0.00  0.00     0.200 C 
BRANCH  17  18
HETATM   18  O           1     -32.362  -4.709 -12.092  0.00  0.00    -0.398 OA
HETATM   19  H           1     -32.744  -4.908 -12.929  0.00  0.00     0.209 HD
ENDBRANCH  17  18
ENDBRANCH  16  17
BRANCH  16  20
HETATM   20  C           1     -35.252  -4.085 -11.108  0.00  0.00     0.198 C 
HETATM   21  O           1     -34.927  -5.196 -10.637  0.00  0.00    -0.646 OA
HETATM   22  O           1     -36.311  -3.534 -10.736  0.00  0.00    -0.646 OA
ENDBRANCH  16  20
ENDBRANCH   2  16
TORSDOF 8
ENDMDL
MODEL 4
REMARK VINA RESULT:      -5.8     12.336     14.732
REMARK  8 active torsions:
REMARK  status: ('A' for Active; 'I' for Inactive)
REMARK    1  A    between atoms: N_1  and  C_9 
REMARK    2  A    between atoms: O_3  and  C_4 
REMARK    3  A    between atoms: C_4  and  C_19 
REMARK    4  A    between atoms: N_7  and  C_19 
REMARK       I    between atoms: N_7  and  C_8 
REMARK    5  A    between atoms: C_8  and  C_9 
REMARK    6  A    between atoms: C_9  and  C_10 
REMARK    7  A    between atoms: C_10  and  C_11 
REMARK       I    between atoms: C_11  and  N_12 
REMARK    8  A    between atoms: C_18  and  C_19 
ROOT
HETATM    1  H           1     -23.337  -4.824  -8.127  0.00  0.00     0.163 HD
HETATM    2  N           1     -22.471  -4.843  -8.650  0.00  0.00    -0.343 N 
HETATM    3  C           1     -22.484  -4.642 -10.004  0.00  0.00     0.249 C 
HETATM    4  O           1     -21.450  -4.664 -10.628  0.00  0.00    -0.271 OA
ENDROOT
BRANCH   3   5
HETATM    5  C           1     -23.791  -4.393 -10.717  0.00  0.00     0.283 C 
BRANCH   5   6
HETATM    6  N           1     -24.914  -4.418  -9.724  0.00  0.00    -0.066 N 
HETATM    7  H           1     -25.807  -4.653 -10.212  0.00  0.00     0.275 HD
HETATM    8  H           1     -24.716  -5.140  -8.994  0.00  0.00     0.275 HD
HETATM    9  H           1     -25.001  -3.480  -9.272  0.00  0.00     0.275 HD
ENDBRANCH   5   6
BRANCH   5  10
HETATM   10  C           1     -23.746  -3.032 -11.399  0.00  0.00     0.145 C 
BRANCH  10  11
HETATM   11  C           1     -23.512  -3.217 -12.878  0.00  0.00     0.217 C 
HETATM   12  N           1     -22.236  -3.341 -13.358  0.00  0.00    -0.370 N 
HETATM   13  H           1     -22.079  -3.463 -14.350  0.00  0.00     0.159 HD
HETATM   14  H           1     -21.450  -3.309 -12.721  0.00  0.00     0.159 HD
HETATM   15  O           1     -24.449  -3.253 -13.638  0.00  0.00    -0.274 OA
ENDBRANCH  10  11
ENDBRANCH   5  10
ENDBRANCH   3   5
BRANCH   2  16
HETATM   16  C           1     -21.215  -5.082  -7.965  0.00  0.00     0.209 C 
BRANCH  16  17
HETATM   17  C           1     -20.610  -3.751  -7.536  0.00  0.00     0.200 C 
BRANCH  17  18
HETATM   18  O           1     -21.624  -2.906  -7.064  0.00  0.00    -0.398 OA
HETATM   19  H           1     -22.131  -3.406  -6.447  0.00  0.00     0.209 HD
ENDBRANCH  17  18
ENDBRANCH  16  17
BRANCH  16  20
HETATM   20  C           1     -21.462  -5.938  -6.748  0.00  0.00     0.198 C 
HETATM   21  O           1     -20.895  -7.047  -6.638  0.00  0.00    -0.646 OA
HETATM   22  O           1     -22.234  -5.540  -5.849  0.00  0.00    -0.646 OA
ENDBRANCH  16  20
ENDBRANCH   2  16
TORSDOF 8
ENDMDL
MODEL 5
REMARK VINA RESULT:      -5.7      2.344      3.642
REMARK  8 active torsions:
REMARK  status: ('A' for Active; 'I' for Inactive)
REMARK    1  A    between atoms: N_1  and  C_9 
REMARK    2  A    between atoms: O_3  and  C_4 
REMARK    3  A    between atoms: C_4  and  C_19 
REMARK    4  A    between atoms: N_7  and  C_19 
REMARK       I    between atoms: N_7  and  C_8 
REMARK    5  A    between atoms: C_8  and  C_9 
REMARK    6  A    between atoms: C_9  and  C_10 
REMARK    7  A    between atoms: C_10  and  C_11 
REMARK       I    between atoms: C_11  and  N_12 
REMARK    8  A    between atoms: C_18  and  C_19 
ROOT
HETATM    1  H           1     -35.528  -1.964 -13.720  0.00  0.00     0.163 HD
HETATM    2  N           1     -35.034  -1.663 -12.889  0.00  0.00    -0.343 N 
HETATM    3  C           1     -34.299  -2.564 -12.166  0.00  0.00     0.249 C 
HETATM    4  O           1     -33.709  -2.205 -11.174  0.00  0.00    -0.271 OA
ENDROOT
BRANCH   3   5
HETATM    5  C           1     -34.225  -4.005 -12.606  0.00  0.00     0.283 C 
BRANCH   5   6
HETATM    6  N           1     -33.513  -4.088 -13.924  0.00  0.00    -0.066 N 
HETATM    7  H           1     -34.064  -3.580 -14.651  0.00  0.00     0.275 HD
HETATM    8  H           1     -32.567  -3.653 -13.836  0.00  0.00     0.275 HD
HETATM    9  H           1     -33.411  -5.090 -14.202  0.00  0.00     0.275 HD
ENDBRANCH   5   6
BRANCH   5  10
HETATM   10  C           1     -33.464  -4.816 -11.566  0.00  0.00     0.145 C 
BRANCH  10  11
HETATM   11  C           1     -34.298  -5.999 -11.140  0.00  0.00     0.217 C 
HETATM   12  N           1     -34.980  -6.729 -12.077  0.00  0.00    -0.370 N 
HETATM   13  H           1     -35.540  -7.521 -11.791  0.00  0.00     0.159 HD
HETATM   14  H           1     -34.923  -6.475 -13.055  0.00  0.00     0.159 HD
HETATM   15  O           1     -34.366  -6.301  -9.973  0.00  0.00    -0.274 OA
ENDBRANCH  10  11
ENDBRANCH   5  10
ENDBRANCH   3   5
BRANCH   2  16
HETATM   16  C           1     -35.105  -0.278 -12.465  0.00  0.00     0.209 C 
BRANCH  16  17
HETATM   17  C           1     -35.136   0.626 -13.691  0.00  0.00     0.200 C 
BRANCH  17  18
HETATM   18  O           1     -36.431   0.641 -14.229  0.00  0.00    -0.398 OA
HETATM   19  H           1     -36.690   1.544 -14.291  0.00  0.00     0.209 HD
ENDBRANCH  17  18
ENDBRANCH  16  17
BRANCH  16  20
HETATM   20  C           1     -36.356  -0.066 -11.650  0.00  0.00     0.198 C 
HETATM   21  O           1     -36.311   0.610 -10.600  0.00  0.00    -0.646 OA
HETATM   22  O           1     -37.439  -0.567 -12.025  0.00  0.00    -0.646 OA
ENDBRANCH  16  20
ENDBRANCH   2  16
TORSDOF 8
ENDMDL
MODEL 6
REMARK VINA RESULT:      -5.6     13.041     14.936
REMARK  8 active torsions:
REMARK  status: ('A' for Active; 'I' for Inactive)
REMARK    1  A    between atoms: N_1  and  C_9 
REMARK    2  A    between atoms: O_3  and  C_4 
REMARK    3  A    between atoms: C_4  and  C_19 
REMARK    4  A    between atoms: N_7  and  C_19 
REMARK       I    between atoms: N_7  and  C_8 
REMARK    5  A    between atoms: C_8  and  C_9 
REMARK    6  A    between atoms: C_9  and  C_10 
REMARK    7  A    between atoms: C_10  and  C_11 
REMARK       I    between atoms: C_11  and  N_12 
REMARK    8  A    between atoms: C_18  and  C_19 
ROOT
HETATM    1  H           1     -22.198  -5.774  -9.443  0.00  0.00     0.163 HD
HETATM    2  N           1     -22.120  -4.830  -9.086  0.00  0.00    -0.343 N 
HETATM    3  C           1     -21.652  -4.615  -7.817  0.00  0.00     0.249 C 
HETATM    4  O           1     -21.558  -3.488  -7.391  0.00  0.00    -0.271 OA
ENDROOT
BRANCH   3   5
HETATM    5  C           1     -21.254  -5.784  -6.950  0.00  0.00     0.283 C 
BRANCH   5   6
HETATM    6  N           1     -19.917  -6.300  -7.393  0.00  0.00    -0.066 N 
HETATM    7  H           1     -20.051  -7.113  -8.036  0.00  0.00     0.275 HD
HETATM    8  H           1     -19.400  -5.542  -7.893  0.00  0.00     0.275 HD
HETATM    9  H           1     -19.367  -6.604  -6.558  0.00  0.00     0.275 HD
ENDBRANCH   5   6
BRANCH   5  10
HETATM   10  C           1     -21.169  -5.335  -5.498  0.00  0.00     0.145 C 
BRANCH  10  11
HETATM   11  C           1     -21.680  -6.434  -4.600  0.00  0.00     0.217 C 
HETATM   12  N           1     -22.080  -6.144  -3.323  0.00  0.00    -0.370 N 
HETATM   13  H           1     -22.422  -6.881  -2.720  0.00  0.00     0.159 HD
HETATM   14  H           1     -22.033  -5.192  -2.982  0.00  0.00     0.159 HD
HETATM   15  O           1     -21.736  -7.569  -5.006  0.00  0.00    -0.274 OA
ENDBRANCH  10  11
ENDBRANCH   5  10
ENDBRANCH   3   5
BRANCH   2  16
HETATM   16  C           1     -22.502  -3.705  -9.917  0.00  0.00     0.209 C 
BRANCH  16  17
HETATM   17  C           1     -21.633  -3.681 -11.168  0.00  0.00     0.200 C 
BRANCH  17  18
HETATM   18  O           1     -22.207  -4.496 -12.154  0.00  0.00    -0.398 OA
HETATM   19  H           1     -23.035  -4.110 -12.379  0.00  0.00     0.209 HD
ENDBRANCH  17  18
ENDBRANCH  16  17
BRANCH  16  20
HETATM   20  C           1     -23.951  -3.845 -10.315  0.00  0.00     0.198 C 
HETATM   21  O           1     -24.587  -4.877 -10.009  0.00  0.00    -0.646 OA
HETATM   22  O           1     -24.516  -2.928 -10.951  0.00  0.00    -0.646 OA
ENDBRANCH  16  20
ENDBRANCH   2  16
TORSDOF 8
ENDMDL
MODEL 7
REMARK VINA RESULT:      -5.6     12.769     14.612
REMARK  8 active torsions:
REMARK  status: ('A' for Active; 'I' for Inactive)
REMARK    1  A    between atoms: N_1  and  C_9 
REMARK    2  A    between atoms: O_3  and  C_4 
REMARK    3  A    between atoms: C_4  and  C_19 
REMARK    4  A    between atoms: N_7  and  C_19 
REMARK       I    between atoms: N_7  and  C_8 
REMARK    5  A    between atoms: C_8  and  C_9 
REMARK    6  A    between atoms: C_9  and  C_10 
REMARK    7  A    between atoms: C_10  and  C_11 
REMARK       I    between atoms: C_11  and  N_12 
REMARK    8  A    between atoms: C_18  and  C_19 
ROOT
HETATM    1  H           1     -22.894  -3.188  -9.019  0.00  0.00     0.163 HD
HETATM    2  N           1     -22.359  -3.774  -9.647  0.00  0.00    -0.343 N 
HETATM    3  C           1     -21.066  -4.105  -9.341  0.00  0.00     0.249 C 
HETATM    4  O           1     -20.428  -4.806 -10.091  0.00  0.00    -0.271 OA
ENDROOT
BRANCH   3   5
HETATM    5  C           1     -20.437  -3.594  -8.068  0.00  0.00     0.283 C 
BRANCH   5   6
HETATM    6  N           1     -21.513  -3.287  -7.069  0.00  0.00    -0.066 N 
HETATM    7  H           1     -21.240  -3.666  -6.135  0.00  0.00     0.275 HD
HETATM    8  H           1     -21.638  -2.251  -7.001  0.00  0.00     0.275 HD
HETATM    9  H           1     -22.409  -3.727  -7.376  0.00  0.00     0.275 HD
ENDBRANCH   5   6
BRANCH   5  10
HETATM   10  C           1     -19.506  -4.657  -7.500  0.00  0.00     0.145 C 
BRANCH  10  11
HETATM   11  C           1     -20.252  -5.491  -6.488  0.00  0.00     0.217 C 
HETATM   12  N           1     -20.860  -6.654  -6.875  0.00  0.00    -0.370 N 
HETATM   13  H           1     -21.362  -7.214  -6.197  0.00  0.00     0.159 HD
HETATM   14  H           1     -20.810  -6.955  -7.840  0.00  0.00     0.159 HD
HETATM   15  O           1     -20.313  -5.132  -5.337  0.00  0.00    -0.274 OA
ENDBRANCH  10  11
ENDBRANCH   5  10
ENDBRANCH   3   5
BRANCH   2  16
HETATM   16  C           1     -22.962  -4.266 -10.871  0.00  0.00     0.209 C 
BRANCH  16  17
HETATM   17  C           1     -24.041  -5.286 -10.530  0.00  0.00     0.200 C 
BRANCH  17  18
HETATM   18  O           1     -24.953  -4.721  -9.628  0.00  0.00    -0.398 OA
HETATM   19  H           1     -25.230  -3.901  -9.998  0.00  0.00     0.209 HD
ENDBRANCH  17  18
ENDBRANCH  16  17
BRANCH  16  20
HETATM   20  C           1     -23.580  -3.113 -11.624  0.00  0.00     0.198 C 
HETATM   21  O           1     -24.823  -3.034 -11.735  0.00  0.00    -0.646 OA
HETATM   22  O           1     -22.849  -2.239 -12.138  0.00  0.00    -0.646 OA
ENDBRANCH  16  20
ENDBRANCH   2  16
TORSDOF 8
ENDMDL
MODEL 8
REMARK VINA RESULT:      -5.6     13.056     15.545
REMARK  8 active torsions:
REMARK  status: ('A' for Active; 'I' for Inactive)
REMARK    1  A    between atoms: N_1  and  C_9 
REMARK    2  A    between atoms: O_3  and  C_4 
REMARK    3  A    between atoms: C_4  and  C_19 
REMARK    4  A    between atoms: N_7  and  C_19 
REMARK       I    between atoms: N_7  and  C_8 
REMARK    5  A    between atoms: C_8  and  C_9 
REMARK    6  A    between atoms: C_9  and  C_10 
REMARK    7  A    between atoms: C_10  and  C_11 
REMARK       I    between atoms: C_11  and  N_12 
REMARK    8  A    between atoms: C_18  and  C_19 
ROOT
HETATM    1  H           1     -22.288  -4.422  -8.618  0.00  0.00     0.163 HD
HETATM    2  N           1     -21.376  -4.697  -8.959  0.00  0.00    -0.343 N 
HETATM    3  C           1     -21.036  -4.469 -10.266  0.00  0.00     0.249 C 
HETATM    4  O           1     -19.946  -4.796 -10.672  0.00  0.00    -0.271 OA
ENDROOT
BRANCH   3   5
HETATM    5  C           1     -22.022  -3.809 -11.198  0.00  0.00     0.283 C 
BRANCH   5   6
HETATM    6  N           1     -21.400  -3.654 -12.554  0.00  0.00    -0.066 N 
HETATM    7  H           1     -22.089  -3.931 -13.288  0.00  0.00     0.275 HD
HETATM    8  H           1     -21.120  -2.657 -12.696  0.00  0.00     0.275 HD
HETATM    9  H           1     -20.555  -4.265 -12.621  0.00  0.00     0.275 HD
ENDBRANCH   5   6
BRANCH   5  10
HETATM   10  C           1     -23.272  -4.671 -11.309  0.00  0.00     0.145 C 
BRANCH  10  11
HETATM   11  C           1     -24.456  -3.915 -10.759  0.00  0.00     0.217 C 
HETATM   12  N           1     -24.978  -4.254  -9.540  0.00  0.00    -0.370 N 
HETATM   13  H           1     -25.773  -3.748  -9.171  0.00  0.00     0.159 HD
HETATM   14  H           1     -24.569  -5.011  -9.007  0.00  0.00     0.159 HD
HETATM   15  O           1     -24.945  -3.013 -11.395  0.00  0.00    -0.274 OA
ENDBRANCH  10  11
ENDBRANCH   5  10
ENDBRANCH   3   5
BRANCH   2  16
HETATM   16  C           1     -20.427  -5.331  -8.064  0.00  0.00     0.209 C 
BRANCH  16  17
HETATM   17  C           1     -19.482  -4.278  -7.498  0.00  0.00     0.200 C 
BRANCH  17  18
HETATM   18  O           1     -19.288  -4.511  -6.129  0.00  0.00    -0.398 OA
HETATM   19  H           1     -19.521  -3.716  -5.681  0.00  0.00     0.209 HD
ENDBRANCH  17  18
ENDBRANCH  16  17
BRANCH  16  20
HETATM   20  C           1     -21.172  -5.998  -6.934  0.00  0.00     0.198 C 
HETATM   21  O           1     -22.092  -5.389  -6.346  0.00  0.00    -0.646 OA
HETATM   22  O           1     -20.869  -7.160  -6.585  0.00  0.00    -0.646 OA
ENDBRANCH  16  20
ENDBRANCH   2  16
TORSDOF 8
ENDMDL
MODEL 9
REMARK VINA RESULT:      -5.6      1.921      2.460
REMARK  8 active torsions:
REMARK  status: ('A' for Active; 'I' for Inactive)
REMARK    1  A    between atoms: N_1  and  C_9 
REMARK    2  A    between atoms: O_3  and  C_4 
REMARK    3  A    between atoms: C_4  and  C_19 
REMARK    4  A    between atoms: N_7  and  C_19 
REMARK       I    between atoms: N_7  and  C_8 
REMARK    5  A    between atoms: C_8  and  C_9 
REMARK    6  A    between atoms: C_9  and  C_10 
REMARK    7  A    between atoms: C_10  and  C_11 
REMARK       I    between atoms: C_11  and  N_12 
REMARK    8  A    between atoms: C_18  and  C_19 
ROOT
HETATM    1  H           1     -34.863  -1.753 -14.618  0.00  0.00     0.163 HD
HETATM    2  N           1     -35.173  -1.388 -13.727  0.00  0.00    -0.343 N 
HETATM    3  C           1     -35.001  -2.127 -12.587  0.00  0.00     0.249 C 
HETATM    4  O           1     -35.370  -1.689 -11.522  0.00  0.00    -0.271 OA
ENDROOT
BRANCH   3   5
HETATM    5  C           1     -34.351  -3.487 -12.659  0.00  0.00     0.283 C 
BRANCH   5   6
HETATM    6  N           1     -33.944  -3.770 -14.074  0.00  0.00    -0.066 N 
HETATM    7  H           1     -32.958  -3.457 -14.223  0.00  0.00     0.275 HD
HETATM    8  H           1     -34.014  -4.797 -14.257  0.00  0.00     0.275 HD
HETATM    9  H           1     -34.576  -3.256 -14.728  0.00  0.00     0.275 HD
ENDBRANCH   5   6
BRANCH   5  10
HETATM   10  C           1     -33.121  -3.510 -11.762  0.00  0.00     0.145 C 
BRANCH  10  11
HETATM   11  C           1     -32.551  -4.907 -11.726  0.00  0.00     0.217 C 
HETATM   12  N           1     -31.337  -5.166 -12.303  0.00  0.00    -0.370 N 
HETATM   13  H           1     -30.955  -6.102 -12.279  0.00  0.00     0.159 HD
HETATM   14  H           1     -30.822  -4.420 -12.754  0.00  0.00     0.159 HD
HETATM   15  O           1     -33.166  -5.796 -11.189  0.00  0.00    -0.274 OA
ENDBRANCH  10  11
ENDBRANCH   5  10
ENDBRANCH   3   5
BRANCH   2  16
HETATM   16  C           1     -35.797  -0.081 -13.656  0.00  0.00     0.209 C 
BRANCH  16  17
HETATM   17  C           1     -34.824   0.974 -14.168  0.00  0.00     0.200 C 
BRANCH  17  18
HETATM   18  O           1     -34.071   0.444 -15.225  0.00  0.00    -0.398 OA
HETATM   19  H           1     -34.599   0.518 -16.001  0.00  0.00     0.209 HD
ENDBRANCH  17  18
ENDBRANCH  16  17
BRANCH  16  20
HETATM   20  C           1     -37.042  -0.073 -14.509  0.00  0.00     0.198 C 
HETATM   21  O           1     -38.072  -0.662 -14.115  0.00  0.00    -0.646 OA
HETATM   22  O           1     -37.043   0.521 -15.608  0.00  0.00    -0.646 OA
ENDBRANCH  16  20
ENDBRANCH   2  16
TORSDOF 8
ENDMDL
