MODEL 1
REMARK VINA RESULT:      -5.9      0.000      0.000
REMARK  9 active torsions:
REMARK  status: ('A' for Active; 'I' for Inactive)
REMARK    1  A    between atoms: N_5  and  C_19 
REMARK    2  A    between atoms: C_7  and  C_9 
REMARK    3  A    between atoms: C_7  and  C_8 
REMARK    4  A    between atoms: C_7  and  N_21 
REMARK    5  A    between atoms: C_9  and  S_17 
REMARK    6  A    between atoms: C_15  and  C_16 
REMARK    7  A    between atoms: C_16  and  C_18 
REMARK    8  A    between atoms: C_18  and  C_19 
REMARK    9  A    between atoms: C_19  and  C_20 
REMARK       I    between atoms: C_20  and  N_21 
ROOT
HETATM    1  H           1     -35.123  -0.187 -11.833  0.00  0.00     0.163 HD
HETATM    2  O           1     -34.665  -2.841 -13.440  0.00  0.00    -0.271 OA
HETATM    3  C           1     -34.522  -2.030 -12.557  0.00  0.00     0.249 C 
HETATM    4  N           1     -35.244  -0.867 -12.573  0.00  0.00    -0.344 N 
ENDROOT
BRANCH   3   5
HETATM    5  C           1     -33.548  -2.299 -11.436  0.00  0.00     0.275 C 
BRANCH   5   6
HETATM    6  N           1     -34.196  -1.974 -10.123  0.00  0.00    -0.066 N 
HETATM    7  H           1     -34.527  -2.856  -9.670  0.00  0.00     0.275 HD
HETATM    8  H           1     -33.503  -1.501  -9.500  0.00  0.00     0.275 HD
HETATM    9  H           1     -35.010  -1.339 -10.285  0.00  0.00     0.275 HD
ENDBRANCH   5   6
BRANCH   5  10
HETATM   10  C           1     -33.146  -3.767 -11.454  0.00  0.00     0.053 C 
BRANCH  10  11
HETATM   11  C           1     -33.996  -4.540 -10.456  0.00  0.00     0.115 C 
BRANCH  11  12
HETATM   12  C           1     -34.441  -5.843 -11.074  0.00  0.00     0.172 C 
HETATM   13  O           1     -34.852  -5.866 -12.254  0.00  0.00    -0.648 OA
HETATM   14  O           1     -34.398  -6.899 -10.406  0.00  0.00    -0.648 OA
ENDBRANCH  11  12
ENDBRANCH  10  11
ENDBRANCH   5  10
ENDBRANCH   3   5
BRANCH   4  15
HETATM   15  C           1     -36.180  -0.609 -13.650  0.00  0.00     0.194 C 
BRANCH  15  16
HETATM   16  C           1     -37.475  -0.051 -13.073  0.00  0.00     0.106 C 
BRANCH  16  17
HETATM   17  S           1     -37.418  -0.133 -11.261  0.00  0.00    -0.180 SA
HETATM   18  H           1     -36.997   1.130 -11.077  0.00  0.00     0.101 HD
ENDBRANCH  16  17
ENDBRANCH  15  16
BRANCH  15  19
HETATM   19  C           1     -35.581   0.394 -14.605  0.00  0.00     0.197 C 
HETATM   20  O           1     -34.394   0.758 -14.466  0.00  0.00    -0.646 OA
HETATM   21  O           1     -36.273   0.862 -15.536  0.00  0.00    -0.646 OA
ENDBRANCH  15  19
ENDBRANCH   4  15
TORSDOF 9
ENDMDL
MODEL 2
REMARK VINA RESULT:      -5.7      2.326      2.620
REMARK  9 active torsions:
REMARK  status: ('A' for Active; 'I' for Inactive)
REMARK    1  A    between atoms: N_5  and  C_19 
REMARK    2  A    between atoms: C_7  and  C_9 
REMARK    3  A    between atoms: C_7  and  C_8 
REMARK    4  A    between atoms: C_7  and  N_21 
REMARK    5  A    between atoms: C_9  and  S_17 
REMARK    6  A    between atoms: C_15  and  C_16 
REMARK    7  A    between atoms: C_16  and  C_18 
REMARK    8  A    between atoms: C_18  and  C_19 
REMARK    9  A    between atoms: C_19  and  C_20 
REMARK       I    between atoms: C_20  and  N_21 
ROOT
HETATM    1  H           1     -35.482  -1.962 -13.941  0.00  0.00     0.163 HD
HETATM    2  O           1     -33.795  -2.085 -11.300  0.00  0.00    -0.271 OA
HETATM    3  C           1     -34.347  -2.492 -12.294  0.00  0.00     0.249 C 
HETATM    4  N           1     -35.019  -1.621 -13.108  0.00  0.00    -0.344 N 
ENDROOT
BRANCH   3   5
HETATM    5  C           1     -34.297  -3.960 -12.637  0.00  0.00     0.275 C 
BRANCH   5   6
HETATM    6  N           1     -33.561  -4.146 -13.931  0.00  0.00    -0.066 N 
HETATM    7  H           1     -33.923  -3.467 -14.638  0.00  0.00     0.275 HD
HETATM    8  H           1     -32.541  -3.979 -13.778  0.00  0.00     0.275 HD
HETATM    9  H           1     -33.707  -5.121 -14.277  0.00  0.00     0.275 HD
ENDBRANCH   5   6
BRANCH   5  10
HETATM   10  C           1     -33.575  -4.716 -11.530  0.00  0.00     0.053 C 
BRANCH  10  11
HETATM   11  C           1     -34.593  -5.266 -10.541  0.00  0.00     0.115 C 
BRANCH  11  12
HETATM   12  C           1     -34.334  -6.735 -10.315  0.00  0.00     0.172 C 
HETATM   13  O           1     -33.242  -7.238 -10.659  0.00  0.00    -0.648 OA
HETATM   14  O           1     -35.212  -7.450  -9.782  0.00  0.00    -0.648 OA
ENDBRANCH  11  12
ENDBRANCH  10  11
ENDBRANCH   5  10
ENDBRANCH   3   5
BRANCH   4  15
HETATM   15  C           1     -35.067  -0.209 -12.779  0.00  0.00     0.194 C 
BRANCH  15  16
HETATM   16  C           1     -35.155   0.609 -14.061  0.00  0.00     0.106 C 
BRANCH  16  17
HETATM   17  S           1     -35.634  -0.472 -15.438  0.00  0.00    -0.180 SA
HETATM   18  H           1     -35.131  -1.601 -14.911  0.00  0.00     0.101 HD
ENDBRANCH  16  17
ENDBRANCH  15  16
BRANCH  15  19
HETATM   19  C           1     -36.278   0.065 -11.922  0.00  0.00     0.197 C 
HETATM   20  O           1     -36.136   0.423 -10.734  0.00  0.00    -0.646 OA
HETATM   21  O           1     -37.426  -0.067 -12.401  0.00  0.00    -0.646 OA
ENDBRANCH  15  19
ENDBRANCH   4  15
TORSDOF 9
ENDMDL
MODEL 3
REMARK VINA RESULT:      -5.7     13.020     14.466
REMARK  9 active torsions:
REMARK  status: ('A' for Active; 'I' for Inactive)
REMARK    1  A    between atoms: N_5  and  C_19 
REMARK    2  A    between atoms: C_7  and  C_9 
REMARK    3  A    between atoms: C_7  and  C_8 
REMARK    4  A    between atoms: C_7  and  N_21 
REMARK    5  A    between atoms: C_9  and  S_17 
REMARK    6  A    between atoms: C_15  and  C_16 
REMARK    7  A    between atoms: C_16  and  C_18 
REMARK    8  A    between atoms: C_18  and  C_19 
REMARK    9  A    between atoms: C_19  and  C_20 
REMARK       I    between atoms: C_20  and  N_21 
ROOT
HETATM    1  H           1     -22.236  -5.656  -9.356  0.00  0.00     0.163 HD
HETATM    2  O           1     -21.761  -3.634  -7.007  0.00  0.00    -0.271 OA
HETATM    3  C           1     -21.746  -4.689  -7.594  0.00  0.00     0.249 C 
HETATM    4  N           1     -22.248  -4.772  -8.864  0.00  0.00    -0.344 N 
ENDROOT
BRANCH   3   5
HETATM    5  C           1     -21.176  -5.916  -6.926  0.00  0.00     0.275 C 
BRANCH   5   6
HETATM    6  N           1     -19.812  -6.199  -7.482  0.00  0.00    -0.066 N 
HETATM    7  H           1     -19.900  -6.526  -8.471  0.00  0.00     0.275 HD
HETATM    8  H           1     -19.236  -5.327  -7.453  0.00  0.00     0.275 HD
HETATM    9  H           1     -19.350  -6.941  -6.909  0.00  0.00     0.275 HD
ENDBRANCH   5   6
BRANCH   5  10
HETATM   10  C           1     -21.072  -5.676  -5.426  0.00  0.00     0.053 C 
BRANCH  10  11
HETATM   11  C           1     -22.111  -6.519  -4.702  0.00  0.00     0.115 C 
BRANCH  11  12
HETATM   12  C           1     -21.783  -6.570  -3.229  0.00  0.00     0.172 C 
HETATM   13  O           1     -20.812  -7.247  -2.828  0.00  0.00    -0.648 OA
HETATM   14  O           1     -22.482  -5.932  -2.411  0.00  0.00    -0.648 OA
ENDBRANCH  11  12
ENDBRANCH  10  11
ENDBRANCH   5  10
ENDBRANCH   3   5
BRANCH   4  15
HETATM   15  C           1     -22.796  -3.593  -9.507  0.00  0.00     0.194 C 
BRANCH  15  16
HETATM   16  C           1     -22.155  -3.417 -10.878  0.00  0.00     0.106 C 
BRANCH  16  17
HETATM   17  S           1     -20.525  -4.214 -10.892  0.00  0.00    -0.180 SA
HETATM   18  H           1     -20.552  -4.612  -9.609  0.00  0.00     0.101 HD
ENDBRANCH  16  17
ENDBRANCH  15  16
BRANCH  15  19
HETATM   19  C           1     -24.287  -3.755  -9.665  0.00  0.00     0.197 C 
HETATM   20  O           1     -24.778  -4.892  -9.836  0.00  0.00    -0.646 OA
HETATM   21  O           1     -25.034  -2.753  -9.625  0.00  0.00    -0.646 OA
ENDBRANCH  15  19
ENDBRANCH   4  15
TORSDOF 9
ENDMDL
MODEL 4
REMARK VINA RESULT:      -5.6     12.167     14.075
REMARK  9 active torsions:
REMARK  status: ('A' for Active; 'I' for Inactive)
REMARK    1  A    between atoms: N_5  and  C_19 
REMARK    2  A    between atoms: C_7  and  C_9 
REMARK    3  A    between atoms: C_7  and  C_8 
REMARK    4  A    between atoms: C_7  and  N_21 
REMARK    5  A    between atoms: C_9  and  S_17 
REMARK    6  A    between atoms: C_15  and  C_16 
REMARK    7  A    between atoms: C_16  and  C_18 
REMARK    8  A    between atoms: C_18  and  C_19 
REMARK    9  A    between atoms: C_19  and  C_20 
REMARK       I    between atoms: C_20  and  N_21 
ROOT
HETATM    1  H           1     -21.647  -5.375  -9.634  0.00  0.00     0.163 HD
HETATM    2  O           1     -23.703  -4.026  -7.687  0.00  0.00    -0.271 OA
HETATM    3  C           1     -23.290  -4.525  -8.707  0.00  0.00     0.249 C 
HETATM    4  N           1     -21.994  -4.958  -8.779  0.00  0.00    -0.344 N 
ENDROOT
BRANCH   3   5
HETATM    5  C           1     -24.202  -4.670  -9.900  0.00  0.00     0.275 C 
BRANCH   5   6
HETATM    6  N           1     -25.293  -3.644  -9.821  0.00  0.00    -0.066 N 
HETATM    7  H           1     -26.212  -4.121  -9.682  0.00  0.00     0.275 HD
HETATM    8  H           1     -25.109  -3.001  -9.018  0.00  0.00     0.275 HD
HETATM    9  H           1     -25.317  -3.093 -10.709  0.00  0.00     0.275 HD
ENDBRANCH   5   6
BRANCH   5  10
HETATM   10  C           1     -23.403  -4.463 -11.179  0.00  0.00     0.053 C 
BRANCH  10  11
HETATM   11  C           1     -23.482  -3.002 -11.597  0.00  0.00     0.115 C 
BRANCH  11  12
HETATM   12  C           1     -24.308  -2.881 -12.855  0.00  0.00     0.172 C 
HETATM   13  O           1     -23.746  -2.831 -13.970  0.00  0.00    -0.648 OA
HETATM   14  O           1     -25.556  -2.831 -12.780  0.00  0.00    -0.648 OA
ENDBRANCH  11  12
ENDBRANCH  10  11
ENDBRANCH   5  10
ENDBRANCH   3   5
BRANCH   4  15
HETATM   15  C           1     -21.117  -4.819  -7.633  0.00  0.00     0.194 C 
BRANCH  15  16
HETATM   16  C           1     -20.936  -6.176  -6.964  0.00  0.00     0.106 C 
BRANCH  16  17
HETATM   17  S           1     -21.613  -6.118  -5.282  0.00  0.00    -0.180 SA
HETATM   18  H           1     -20.464  -5.768  -4.679  0.00  0.00     0.101 HD
ENDBRANCH  16  17
ENDBRANCH  15  16
BRANCH  15  19
HETATM   19  C           1     -19.775  -4.299  -8.088  0.00  0.00     0.197 C 
HETATM   20  O           1     -18.765  -4.465  -7.372  0.00  0.00    -0.646 OA
HETATM   21  O           1     -19.673  -3.701  -9.181  0.00  0.00    -0.646 OA
ENDBRANCH  15  19
ENDBRANCH   4  15
TORSDOF 9
ENDMDL
MODEL 5
REMARK VINA RESULT:      -5.3     12.802     14.276
REMARK  9 active torsions:
REMARK  status: ('A' for Active; 'I' for Inactive)
REMARK    1  A    between atoms: N_5  and  C_19 
REMARK    2  A    between atoms: C_7  and  C_9 
REMARK    3  A    between atoms: C_7  and  C_8 
REMARK    4  A    between atoms: C_7  and  N_21 
REMARK    5  A    between atoms: C_9  and  S_17 
REMARK    6  A    between atoms: C_15  and  C_16 
REMARK    7  A    between atoms: C_16  and  C_18 
REMARK    8  A    between atoms: C_18  and  C_19 
REMARK    9  A    between atoms: C_19  and  C_20 
REMARK       I    between atoms: C_20  and  N_21 
ROOT
HETATM    1  H           1     -22.927  -5.673  -8.214  0.00  0.00     0.163 HD
HETATM    2  O           1     -21.265  -3.277  -7.060  0.00  0.00    -0.271 OA
HETATM    3  C           1     -21.747  -4.384  -7.107  0.00  0.00     0.249 C 
HETATM    4  N           1     -22.523  -4.747  -8.175  0.00  0.00    -0.344 N 
ENDROOT
BRANCH   3   5
HETATM    5  C           1     -21.494  -5.365  -5.989  0.00  0.00     0.275 C 
BRANCH   5   6
HETATM    6  N           1     -22.805  -5.829  -5.427  0.00  0.00    -0.066 N 
HETATM    7  H           1     -23.513  -5.886  -6.194  0.00  0.00     0.275 HD
HETATM    8  H           1     -22.684  -6.773  -4.994  0.00  0.00     0.275 HD
HETATM    9  H           1     -23.131  -5.152  -4.701  0.00  0.00     0.275 HD
ENDBRANCH   5   6
BRANCH   5  10
HETATM   10  C           1     -20.721  -6.561  -6.527  0.00  0.00     0.053 C 
BRANCH  10  11
HETATM   11  C           1     -20.162  -7.370  -5.366  0.00  0.00     0.115 C 
BRANCH  11  12
HETATM   12  C           1     -21.011  -8.600  -5.154  0.00  0.00     0.172 C 
HETATM   13  O           1     -20.894  -9.580  -5.923  0.00  0.00    -0.648 OA
HETATM   14  O           1     -21.830  -8.640  -4.210  0.00  0.00    -0.648 OA
ENDBRANCH  11  12
ENDBRANCH  10  11
ENDBRANCH   5  10
ENDBRANCH   3   5
BRANCH   4  15
HETATM   15  C           1     -22.766  -3.804  -9.249  0.00  0.00     0.194 C 
BRANCH  15  16
HETATM   16  C           1     -21.925  -4.187 -10.461  0.00  0.00     0.106 C 
BRANCH  16  17
HETATM   17  S           1     -22.127  -2.935 -11.759  0.00  0.00    -0.180 SA
HETATM   18  H           1     -23.193  -2.331 -11.207  0.00  0.00     0.101 HD
ENDBRANCH  16  17
ENDBRANCH  15  16
BRANCH  15  19
HETATM   19  C           1     -24.228  -3.834  -9.622  0.00  0.00     0.197 C 
HETATM   20  O           1     -24.920  -2.798  -9.523  0.00  0.00    -0.646 OA
HETATM   21  O           1     -24.749  -4.895 -10.029  0.00  0.00    -0.646 OA
ENDBRANCH  15  19
ENDBRANCH   4  15
TORSDOF 9
ENDMDL
MODEL 6
REMARK VINA RESULT:      -5.2      2.742      3.497
REMARK  9 active torsions:
REMARK  status: ('A' for Active; 'I' for Inactive)
REMARK    1  A    between atoms: N_5  and  C_19 
REMARK    2  A    between atoms: C_7  and  C_9 
REMARK    3  A    between atoms: C_7  and  C_8 
REMARK    4  A    between atoms: C_7  and  N_21 
REMARK    5  A    between atoms: C_9  and  S_17 
REMARK    6  A    between atoms: C_15  and  C_16 
REMARK    7  A    between atoms: C_16  and  C_18 
REMARK    8  A    between atoms: C_18  and  C_19 
REMARK    9  A    between atoms: C_19  and  C_20 
REMARK       I    between atoms: C_20  and  N_21 
ROOT
HETATM    1  H           1     -35.773  -2.438 -12.429  0.00  0.00     0.163 HD
HETATM    2  O           1     -33.892  -1.550 -10.082  0.00  0.00    -0.271 OA
HETATM    3  C           1     -34.406  -2.294 -10.883  0.00  0.00     0.249 C 
HETATM    4  N           1     -35.342  -1.815 -11.759  0.00  0.00    -0.344 N 
ENDROOT
BRANCH   3   5
HETATM    5  C           1     -34.015  -3.751 -10.917  0.00  0.00     0.275 C 
BRANCH   5   6
HETATM    6  N           1     -35.251  -4.600 -10.881  0.00  0.00    -0.066 N 
HETATM    7  H           1     -34.983  -5.599 -10.737  0.00  0.00     0.275 HD
HETATM    8  H           1     -35.866  -4.286 -10.096  0.00  0.00     0.275 HD
HETATM    9  H           1     -35.765  -4.503 -11.786  0.00  0.00     0.275 HD
ENDBRANCH   5   6
BRANCH   5  10
HETATM   10  C           1     -33.239  -4.039 -12.196  0.00  0.00     0.053 C 
BRANCH  10  11
HETATM   11  C           1     -34.175  -4.641 -13.234  0.00  0.00     0.115 C 
BRANCH  11  12
HETATM   12  C           1     -34.132  -3.810 -14.493  0.00  0.00     0.172 C 
HETATM   13  O           1     -33.477  -4.206 -15.481  0.00  0.00    -0.648 OA
HETATM   14  O           1     -34.754  -2.726 -14.548  0.00  0.00    -0.648 OA
ENDBRANCH  11  12
ENDBRANCH  10  11
ENDBRANCH   5  10
ENDBRANCH   3   5
BRANCH   4  15
HETATM   15  C           1     -35.717  -0.414 -11.726  0.00  0.00     0.194 C 
BRANCH  15  16
HETATM   16  C           1     -36.175   0.021 -13.112  0.00  0.00     0.106 C 
BRANCH  16  17
HETATM   17  S           1     -34.831   0.918 -13.940  0.00  0.00    -0.180 SA
HETATM   18  H           1     -35.458   2.106 -13.978  0.00  0.00     0.101 HD
ENDBRANCH  16  17
ENDBRANCH  15  16
BRANCH  15  19
HETATM   19  C           1     -36.843  -0.220 -10.740  0.00  0.00     0.197 C 
HETATM   20  O           1     -36.740   0.634  -9.834  0.00  0.00    -0.646 OA
HETATM   21  O           1     -37.879  -0.914 -10.828  0.00  0.00    -0.646 OA
ENDBRANCH  15  19
ENDBRANCH   4  15
TORSDOF 9
ENDMDL
MODEL 7
REMARK VINA RESULT:      -5.1     25.592     26.900
REMARK  9 active torsions:
REMARK  status: ('A' for Active; 'I' for Inactive)
REMARK    1  A    between atoms: N_5  and  C_19 
REMARK    2  A    between atoms: C_7  and  C_9 
REMARK    3  A    between atoms: C_7  and  C_8 
REMARK    4  A    between atoms: C_7  and  N_21 
REMARK    5  A    between atoms: C_9  and  S_17 
REMARK    6  A    between atoms: C_15  and  C_16 
REMARK    7  A    between atoms: C_16  and  C_18 
REMARK    8  A    between atoms: C_18  and  C_19 
REMARK    9  A    between atoms: C_19  and  C_20 
REMARK       I    between atoms: C_20  and  N_21 
ROOT
HETATM    1  H           1     -10.681   4.423 -21.199  0.00  0.00     0.163 HD
HETATM    2  O           1     -12.474   6.296 -19.435  0.00  0.00    -0.271 OA
HETATM    3  C           1     -11.462   5.848 -19.919  0.00  0.00     0.249 C 
HETATM    4  N           1     -11.529   4.798 -20.794  0.00  0.00    -0.344 N 
ENDROOT
BRANCH   3   5
HETATM    5  C           1     -10.125   6.447 -19.558  0.00  0.00     0.275 C 
BRANCH   5   6
HETATM    6  N           1      -9.364   5.485 -18.695  0.00  0.00    -0.066 N 
HETATM    7  H           1     -10.031   4.823 -18.239  0.00  0.00     0.275 HD
HETATM    8  H           1      -8.687   4.948 -19.284  0.00  0.00     0.275 HD
HETATM    9  H           1      -8.842   6.015 -17.961  0.00  0.00     0.275 HD
ENDBRANCH   5   6
BRANCH   5  10
HETATM   10  C           1      -9.332   6.724 -20.829  0.00  0.00     0.053 C 
BRANCH  10  11
HETATM   11  C           1     -10.016   7.828 -21.624  0.00  0.00     0.115 C 
BRANCH  11  12
HETATM   12  C           1      -9.529   9.172 -21.141  0.00  0.00     0.172 C 
HETATM   13  O           1     -10.261   9.878 -20.414  0.00  0.00    -0.648 OA
HETATM   14  O           1      -8.392   9.579 -21.468  0.00  0.00    -0.648 OA
ENDBRANCH  11  12
ENDBRANCH  10  11
ENDBRANCH   5  10
ENDBRANCH   3   5
BRANCH   4  15
HETATM   15  C           1     -12.814   4.223 -21.141  0.00  0.00     0.194 C 
BRANCH  15  16
HETATM   16  C           1     -13.227   4.701 -22.527  0.00  0.00     0.106 C 
BRANCH  16  17
HETATM   17  S           1     -14.936   5.310 -22.474  0.00  0.00    -0.180 SA
HETATM   18  H           1     -14.660   6.441 -21.801  0.00  0.00     0.101 HD
ENDBRANCH  16  17
ENDBRANCH  15  16
BRANCH  15  19
HETATM   19  C           1     -12.706   2.718 -21.139  0.00  0.00     0.197 C 
HETATM   20  O           1     -11.609   2.169 -20.900  0.00  0.00    -0.646 OA
HETATM   21  O           1     -13.715   2.018 -21.377  0.00  0.00    -0.646 OA
ENDBRANCH  15  19
ENDBRANCH   4  15
TORSDOF 9
ENDMDL
MODEL 8
REMARK VINA RESULT:      -5.1     25.487     26.610
REMARK  9 active torsions:
REMARK  status: ('A' for Active; 'I' for Inactive)
REMARK    1  A    between atoms: N_5  and  C_19 
REMARK    2  A    between atoms: C_7  and  C_9 
REMARK    3  A    between atoms: C_7  and  C_8 
REMARK    4  A    between atoms: C_7  and  N_21 
REMARK    5  A    between atoms: C_9  and  S_17 
REMARK    6  A    between atoms: C_15  and  C_16 
REMARK    7  A    between atoms: C_16  and  C_18 
REMARK    8  A    between atoms: C_18  and  C_19 
REMARK    9  A    between atoms: C_19  and  C_20 
REMARK       I    between atoms: C_20  and  N_21 
ROOT
HETATM    1  H           1     -11.920   7.134 -21.150  0.00  0.00     0.163 HD
HETATM    2  O           1      -8.955   6.418 -20.417  0.00  0.00    -0.271 OA
HETATM    3  C           1     -10.094   6.235 -20.776  0.00  0.00     0.249 C 
HETATM    4  N           1     -10.965   7.287 -20.850  0.00  0.00    -0.344 N 
ENDROOT
BRANCH   3   5
HETATM    5  C           1     -10.555   4.845 -21.142  0.00  0.00     0.275 C 
BRANCH   5   6
HETATM    6  N           1     -10.832   4.066 -19.890  0.00  0.00    -0.066 N 
HETATM    7  H           1     -10.505   3.081 -20.013  0.00  0.00     0.275 HD
HETATM    8  H           1     -10.325   4.504 -19.088  0.00  0.00     0.275 HD
HETATM    9  H           1     -11.859   4.072 -19.698  0.00  0.00     0.275 HD
ENDBRANCH   5   6
BRANCH   5  10
HETATM   10  C           1     -11.826   4.934 -21.975  0.00  0.00     0.053 C 
BRANCH  10  11
HETATM   11  C           1     -12.965   4.242 -21.241  0.00  0.00     0.115 C 
BRANCH  11  12
HETATM   12  C           1     -13.922   5.278 -20.702  0.00  0.00     0.172 C 
HETATM   13  O           1     -13.546   6.073 -19.813  0.00  0.00    -0.648 OA
HETATM   14  O           1     -15.089   5.342 -21.146  0.00  0.00    -0.648 OA
ENDBRANCH  11  12
ENDBRANCH  10  11
ENDBRANCH   5  10
ENDBRANCH   3   5
BRANCH   4  15
HETATM   15  C           1     -10.522   8.622 -20.499  0.00  0.00     0.194 C 
BRANCH  15  16
HETATM   16  C           1     -11.172   9.635 -21.434  0.00  0.00     0.106 C 
BRANCH  16  17
HETATM   17  S           1     -12.467   8.818 -22.408  0.00  0.00    -0.180 SA
HETATM   18  H           1     -13.211   9.920 -22.603  0.00  0.00     0.101 HD
ENDBRANCH  16  17
ENDBRANCH  15  16
BRANCH  15  19
HETATM   19  C           1     -10.920   8.925 -19.075  0.00  0.00     0.197 C 
HETATM   20  O           1     -12.125   9.068 -18.779  0.00  0.00    -0.646 OA
HETATM   21  O           1     -10.043   9.033 -18.190  0.00  0.00    -0.646 OA
ENDBRANCH  15  19
ENDBRANCH   4  15
TORSDOF 9
ENDMDL
MODEL 9
REMARK VINA RESULT:      -5.0     13.672     16.006
REMARK  9 active torsions:
REMARK  status: ('A' for Active; 'I' for Inactive)
REMARK    1  A    between atoms: N_5  and  C_19 
REMARK    2  A    between atoms: C_7  and  C_9 
REMARK    3  A    between atoms: C_7  and  C_8 
REMARK    4  A    between atoms: C_7  and  N_21 
REMARK    5  A    between atoms: C_9  and  S_17 
REMARK    6  A    between atoms: C_15  and  C_16 
REMARK    7  A    between atoms: C_16  and  C_18 
REMARK    8  A    between atoms: C_18  and  C_19 
REMARK    9  A    between atoms: C_19  and  C_20 
REMARK       I    between atoms: C_20  and  N_21 
ROOT
HETATM    1  H           1     -21.358  -6.819  -6.965  0.00  0.00     0.163 HD
HETATM    2  O           1     -20.220  -4.351  -5.400  0.00  0.00    -0.271 OA
HETATM    3  C           1     -20.688  -4.968  -6.327  0.00  0.00     0.249 C 
HETATM    4  N           1     -20.967  -6.301  -6.189  0.00  0.00    -0.344 N 
ENDROOT
BRANCH   3   5
HETATM    5  C           1     -20.964  -4.270  -7.636  0.00  0.00     0.275 C 
BRANCH   5   6
HETATM    6  N           1     -20.187  -4.938  -8.731  0.00  0.00    -0.066 N 
HETATM    7  H           1     -19.506  -4.259  -9.139  0.00  0.00     0.275 HD
HETATM    8  H           1     -19.671  -5.759  -8.341  0.00  0.00     0.275 HD
HETATM    9  H           1     -20.845  -5.262  -9.476  0.00  0.00     0.275 HD
ENDBRANCH   5   6
BRANCH   5  10
HETATM   10  C           1     -22.452  -4.349  -7.949  0.00  0.00     0.053 C 
BRANCH  10  11
HETATM   11  C           1     -22.730  -3.654  -9.274  0.00  0.00     0.115 C 
BRANCH  11  12
HETATM   12  C           1     -24.190  -3.807  -9.627  0.00  0.00     0.172 C 
HETATM   13  O           1     -24.626  -4.911 -10.017  0.00  0.00    -0.648 OA
HETATM   14  O           1     -24.963  -2.828  -9.528  0.00  0.00    -0.648 OA
ENDBRANCH  11  12
ENDBRANCH  10  11
ENDBRANCH   5  10
ENDBRANCH   3   5
BRANCH   4  15
HETATM   15  C           1     -20.701  -6.972  -4.931  0.00  0.00     0.194 C 
BRANCH  15  16
HETATM   16  C           1     -21.991  -7.070  -4.126  0.00  0.00     0.106 C 
BRANCH  16  17
HETATM   17  S           1     -21.742  -6.328  -2.488  0.00  0.00    -0.180 SA
HETATM   18  H           1     -22.226  -7.368  -1.788  0.00  0.00     0.101 HD
ENDBRANCH  16  17
ENDBRANCH  15  16
BRANCH  15  19
HETATM   19  C           1     -20.171  -8.358  -5.204  0.00  0.00     0.197 C 
HETATM   20  O           1     -19.170  -8.512  -5.936  0.00  0.00    -0.646 OA
HETATM   21  O           1     -20.733  -9.354  -4.698  0.00  0.00    -0.646 OA
ENDBRANCH  15  19
ENDBRANCH   4  15
TORSDOF 9
ENDMDL
