MODEL 1
REMARK VINA RESULT:      -5.1      0.000      0.000
REMARK  6 active torsions:
REMARK  status: ('A' for Active; 'I' for Inactive)
REMARK    1  A    between atoms: N_1  and  C_3 
REMARK    2  A    between atoms: C_3  and  C_11 
REMARK    3  A    between atoms: S_4  and  C_5 
REMARK    4  A    between atoms: C_5  and  C_6 
REMARK    5  A    between atoms: C_6  and  C_7 
REMARK    6  A    between atoms: C_6  and  N_10 
REMARK       I    between atoms: N_10  and  C_11 
ROOT
HETATM    1  N           1     -22.427  -4.713  -8.406  0.00  0.00    -0.344 N 
HETATM    2  C           1     -21.704  -4.311  -7.315  0.00  0.00     0.248 C 
HETATM    3  O           1     -21.374  -3.154  -7.201  0.00  0.00    -0.271 OA
HETATM    4  H           1     -22.704  -5.681  -8.501  0.00  0.00     0.163 HD
ENDROOT
BRANCH   1   5
HETATM    5  C           1     -22.797  -3.750  -9.425  0.00  0.00     0.194 C 
BRANCH   5   6
HETATM    6  C           1     -22.060  -4.071 -10.718  0.00  0.00     0.106 C 
BRANCH   6   7
HETATM    7  S           1     -22.482  -2.835 -11.979  0.00  0.00    -0.180 SA
HETATM    8  H           1     -23.318  -3.626 -12.676  0.00  0.00     0.101 HD
ENDBRANCH   6   7
ENDBRANCH   5   6
BRANCH   5   9
HETATM    9  C           1     -24.286  -3.817  -9.663  0.00  0.00     0.197 C 
HETATM   10  O           1     -24.817  -4.898  -9.997  0.00  0.00    -0.646 OA
HETATM   11  O           1     -24.987  -2.791  -9.527  0.00  0.00    -0.646 OA
ENDBRANCH   5   9
ENDBRANCH   1   5
BRANCH   2  12
HETATM   12  C           1     -21.320  -5.314  -6.255  0.00  0.00     0.270 C 
HETATM   13  C           1     -20.174  -4.757  -5.421  0.00  0.00     0.050 C 
BRANCH  12  14
HETATM   14  N           1     -20.885  -6.592  -6.910  0.00  0.00    -0.067 N 
HETATM   15  H           1     -21.428  -7.390  -6.510  0.00  0.00     0.275 HD
HETATM   16  H           1     -21.059  -6.532  -7.939  0.00  0.00     0.275 HD
HETATM   17  H           1     -19.865  -6.742  -6.736  0.00  0.00     0.275 HD
ENDBRANCH  12  14
ENDBRANCH   2  12
TORSDOF 6
ENDMDL
MODEL 2
REMARK VINA RESULT:      -4.8      2.826      4.904
REMARK  6 active torsions:
REMARK  status: ('A' for Active; 'I' for Inactive)
REMARK    1  A    between atoms: N_1  and  C_3 
REMARK    2  A    between atoms: C_3  and  C_11 
REMARK    3  A    between atoms: S_4  and  C_5 
REMARK    4  A    between atoms: C_5  and  C_6 
REMARK    5  A    between atoms: C_6  and  C_7 
REMARK    6  A    between atoms: C_6  and  N_10 
REMARK       I    between atoms: N_10  and  C_11 
ROOT
HETATM    1  N           1     -21.731  -3.772  -9.995  0.00  0.00    -0.344 N 
HETATM    2  C           1     -22.780  -3.935 -10.857  0.00  0.00     0.248 C 
HETATM    3  O           1     -23.576  -4.827 -10.680  0.00  0.00    -0.271 OA
HETATM    4  H           1     -21.065  -3.024 -10.143  0.00  0.00     0.163 HD
ENDROOT
BRANCH   1   5
HETATM    5  C           1     -21.573  -4.670  -8.867  0.00  0.00     0.194 C 
BRANCH   5   6
HETATM    6  C           1     -20.093  -4.946  -8.641  0.00  0.00     0.106 C 
BRANCH   6   7
HETATM    7  S           1     -19.881  -5.914  -7.120  0.00  0.00    -0.180 SA
HETATM    8  H           1     -21.182  -5.924  -6.779  0.00  0.00     0.101 HD
ENDBRANCH   6   7
ENDBRANCH   5   6
BRANCH   5   9
HETATM    9  C           1     -22.160  -4.032  -7.631  0.00  0.00     0.197 C 
HETATM   10  O           1     -23.226  -4.470  -7.149  0.00  0.00    -0.646 OA
HETATM   11  O           1     -21.580  -3.066  -7.091  0.00  0.00    -0.646 OA
ENDBRANCH   5   9
ENDBRANCH   1   5
BRANCH   2  12
HETATM   12  C           1     -22.944  -3.000 -12.031  0.00  0.00     0.270 C 
HETATM   13  C           1     -24.396  -3.008 -12.488  0.00  0.00     0.050 C 
BRANCH  12  14
HETATM   14  N           1     -22.063  -3.453 -13.158  0.00  0.00    -0.067 N 
HETATM   15  H           1     -22.451  -3.107 -14.064  0.00  0.00     0.275 HD
HETATM   16  H           1     -21.100  -3.071 -13.021  0.00  0.00     0.275 HD
HETATM   17  H           1     -22.025  -4.498 -13.171  0.00  0.00     0.275 HD
ENDBRANCH  12  14
ENDBRANCH   2  12
TORSDOF 6
ENDMDL
MODEL 3
REMARK VINA RESULT:      -4.7     10.928     12.457
REMARK  6 active torsions:
REMARK  status: ('A' for Active; 'I' for Inactive)
REMARK    1  A    between atoms: N_1  and  C_3 
REMARK    2  A    between atoms: C_3  and  C_11 
REMARK    3  A    between atoms: S_4  and  C_5 
REMARK    4  A    between atoms: C_5  and  C_6 
REMARK    5  A    between atoms: C_6  and  C_7 
REMARK    6  A    between atoms: C_6  and  N_10 
REMARK       I    between atoms: N_10  and  C_11 
ROOT
HETATM    1  N           1     -27.267  -7.199 -19.132  0.00  0.00    -0.344 N 
HETATM    2  C           1     -28.175  -6.356 -18.549  0.00  0.00     0.248 C 
HETATM    3  O           1     -28.492  -5.331 -19.105  0.00  0.00    -0.271 OA
HETATM    4  H           1     -27.003  -8.058 -18.667  0.00  0.00     0.163 HD
ENDROOT
BRANCH   1   5
HETATM    5  C           1     -26.685  -6.861 -20.416  0.00  0.00     0.194 C 
BRANCH   5   6
HETATM    6  C           1     -25.299  -6.268 -20.205  0.00  0.00     0.106 C 
BRANCH   6   7
HETATM    7  S           1     -24.510  -7.062 -18.776  0.00  0.00    -0.180 SA
HETATM    8  H           1     -23.353  -7.351 -19.398  0.00  0.00     0.101 HD
ENDBRANCH   6   7
ENDBRANCH   5   6
BRANCH   5   9
HETATM    9  C           1     -26.576  -8.106 -21.262  0.00  0.00     0.197 C 
HETATM   10  O           1     -25.486  -8.408 -21.792  0.00  0.00    -0.646 OA
HETATM   11  O           1     -27.578  -8.835 -21.432  0.00  0.00    -0.646 OA
ENDBRANCH   5   9
ENDBRANCH   1   5
BRANCH   2  12
HETATM   12  C           1     -28.781  -6.709 -17.213  0.00  0.00     0.270 C 
HETATM   13  C           1     -27.707  -6.644 -16.135  0.00  0.00     0.050 C 
BRANCH  12  14
HETATM   14  N           1     -29.347  -8.097 -17.271  0.00  0.00    -0.067 N 
HETATM   15  H           1     -28.737  -8.745 -16.722  0.00  0.00     0.275 HD
HETATM   16  H           1     -30.310  -8.097 -16.866  0.00  0.00     0.275 HD
HETATM   17  H           1     -29.386  -8.415 -18.266  0.00  0.00     0.275 HD
ENDBRANCH  12  14
ENDBRANCH   2  12
TORSDOF 6
ENDMDL
MODEL 4
REMARK VINA RESULT:      -4.6      2.658      2.882
REMARK  6 active torsions:
REMARK  status: ('A' for Active; 'I' for Inactive)
REMARK    1  A    between atoms: N_1  and  C_3 
REMARK    2  A    between atoms: C_3  and  C_11 
REMARK    3  A    between atoms: S_4  and  C_5 
REMARK    4  A    between atoms: C_5  and  C_6 
REMARK    5  A    between atoms: C_6  and  C_7 
REMARK    6  A    between atoms: C_6  and  N_10 
REMARK       I    between atoms: N_10  and  C_11 
ROOT
HETATM    1  N           1     -21.884  -3.983  -9.631  0.00  0.00    -0.344 N 
HETATM    2  C           1     -20.662  -4.338  -9.127  0.00  0.00     0.248 C 
HETATM    3  O           1     -19.902  -4.999  -9.794  0.00  0.00    -0.271 OA
HETATM    4  H           1     -22.521  -3.428  -9.072  0.00  0.00     0.163 HD
ENDROOT
BRANCH   1   5
HETATM    5  C           1     -22.267  -4.401 -10.965  0.00  0.00     0.194 C 
BRANCH   5   6
HETATM    6  C           1     -23.742  -4.779 -10.976  0.00  0.00     0.106 C 
BRANCH   6   7
HETATM    7  S           1     -24.672  -3.621  -9.932  0.00  0.00    -0.180 SA
HETATM    8  H           1     -23.985  -3.867  -8.803  0.00  0.00     0.101 HD
ENDBRANCH   6   7
ENDBRANCH   5   6
BRANCH   5   9
HETATM    9  C           1     -22.031  -3.267 -11.934  0.00  0.00     0.197 C 
HETATM   10  O           1     -22.567  -3.287 -13.062  0.00  0.00    -0.646 OA
HETATM   11  O           1     -21.298  -2.309 -11.607  0.00  0.00    -0.646 OA
ENDBRANCH   5   9
ENDBRANCH   1   5
BRANCH   2  12
HETATM   12  C           1     -20.265  -3.903  -7.737  0.00  0.00     0.270 C 
HETATM   13  C           1     -19.712  -5.097  -6.970  0.00  0.00     0.050 C 
BRANCH  12  14
HETATM   14  N           1     -21.466  -3.362  -7.020  0.00  0.00    -0.067 N 
HETATM   15  H           1     -22.328  -3.585  -7.566  0.00  0.00     0.275 HD
HETATM   16  H           1     -21.530  -3.798  -6.072  0.00  0.00     0.275 HD
HETATM   17  H           1     -21.374  -2.325  -6.922  0.00  0.00     0.275 HD
ENDBRANCH  12  14
ENDBRANCH   2  12
TORSDOF 6
ENDMDL
MODEL 5
REMARK VINA RESULT:      -4.5      3.175      5.388
REMARK  6 active torsions:
REMARK  status: ('A' for Active; 'I' for Inactive)
REMARK    1  A    between atoms: N_1  and  C_3 
REMARK    2  A    between atoms: C_3  and  C_11 
REMARK    3  A    between atoms: S_4  and  C_5 
REMARK    4  A    between atoms: C_5  and  C_6 
REMARK    5  A    between atoms: C_6  and  C_7 
REMARK    6  A    between atoms: C_6  and  N_10 
REMARK       I    between atoms: N_10  and  C_11 
ROOT
HETATM    1  N           1     -22.804  -3.133 -11.381  0.00  0.00    -0.344 N 
HETATM    2  C           1     -23.284  -3.330 -12.648  0.00  0.00     0.248 C 
HETATM    3  O           1     -23.943  -4.311 -12.899  0.00  0.00    -0.271 OA
HETATM    4  H           1     -22.253  -2.311 -11.170  0.00  0.00     0.163 HD
ENDROOT
BRANCH   1   5
HETATM    5  C           1     -23.086  -4.103 -10.341  0.00  0.00     0.194 C 
BRANCH   5   6
HETATM    6  C           1     -22.098  -3.922  -9.196  0.00  0.00     0.106 C 
BRANCH   6   7
HETATM    7  S           1     -20.422  -4.309  -9.774  0.00  0.00    -0.180 SA
HETATM    8  H           1     -20.491  -5.630  -9.530  0.00  0.00     0.101 HD
ENDBRANCH   6   7
ENDBRANCH   5   6
BRANCH   5   9
HETATM    9  C           1     -24.492  -3.898  -9.830  0.00  0.00     0.197 C 
HETATM   10  O           1     -25.239  -4.883  -9.645  0.00  0.00    -0.646 OA
HETATM   11  O           1     -24.909  -2.744  -9.593  0.00  0.00    -0.646 OA
ENDBRANCH   5   9
ENDBRANCH   1   5
BRANCH   2  12
HETATM   12  C           1     -22.990  -2.320 -13.730  0.00  0.00     0.270 C 
HETATM   13  C           1     -24.283  -1.631 -14.146  0.00  0.00     0.050 C 
BRANCH  12  14
HETATM   14  N           1     -22.392  -3.017 -14.916  0.00  0.00    -0.067 N 
HETATM   15  H           1     -22.482  -2.408 -15.760  0.00  0.00     0.275 HD
HETATM   16  H           1     -21.381  -3.211 -14.731  0.00  0.00     0.275 HD
HETATM   17  H           1     -22.896  -3.918 -15.080  0.00  0.00     0.275 HD
ENDBRANCH  12  14
ENDBRANCH   2  12
TORSDOF 6
ENDMDL
MODEL 6
REMARK VINA RESULT:      -4.4     10.936     11.931
REMARK  6 active torsions:
REMARK  status: ('A' for Active; 'I' for Inactive)
REMARK    1  A    between atoms: N_1  and  C_3 
REMARK    2  A    between atoms: C_3  and  C_11 
REMARK    3  A    between atoms: S_4  and  C_5 
REMARK    4  A    between atoms: C_5  and  C_6 
REMARK    5  A    between atoms: C_6  and  C_7 
REMARK    6  A    between atoms: C_6  and  N_10 
REMARK       I    between atoms: N_10  and  C_11 
ROOT
HETATM    1  N           1     -27.793  -6.712 -18.739  0.00  0.00    -0.344 N 
HETATM    2  C           1     -26.540  -6.342 -18.332  0.00  0.00     0.248 C 
HETATM    3  O           1     -26.372  -5.896 -17.221  0.00  0.00    -0.271 OA
HETATM    4  H           1     -27.933  -7.086 -19.669  0.00  0.00     0.163 HD
ENDROOT
BRANCH   1   5
HETATM    5  C           1     -28.920  -6.570 -17.838  0.00  0.00     0.194 C 
BRANCH   5   6
HETATM    6  C           1     -29.833  -5.459 -18.338  0.00  0.00     0.106 C 
BRANCH   6   7
HETATM    7  S           1     -31.127  -5.136 -17.106  0.00  0.00    -0.180 SA
HETATM    8  H           1     -31.842  -4.293 -17.873  0.00  0.00     0.101 HD
ENDBRANCH   6   7
ENDBRANCH   5   6
BRANCH   5   9
HETATM    9  C           1     -29.689  -7.868 -17.785  0.00  0.00     0.197 C 
HETATM   10  O           1     -29.610  -8.600 -16.776  0.00  0.00    -0.646 OA
HETATM   11  O           1     -30.403  -8.211 -18.752  0.00  0.00    -0.646 OA
ENDBRANCH   5   9
ENDBRANCH   1   5
BRANCH   2  12
HETATM   12  C           1     -25.368  -6.490 -19.270  0.00  0.00     0.270 C 
HETATM   13  C           1     -25.848  -7.068 -20.595  0.00  0.00     0.050 C 
BRANCH  12  14
HETATM   14  N           1     -24.354  -7.413 -18.662  0.00  0.00    -0.067 N 
HETATM   15  H           1     -24.427  -8.355 -19.107  0.00  0.00     0.275 HD
HETATM   16  H           1     -23.395  -7.027 -18.818  0.00  0.00     0.275 HD
HETATM   17  H           1     -24.533  -7.498 -17.635  0.00  0.00     0.275 HD
ENDBRANCH  12  14
ENDBRANCH   2  12
TORSDOF 6
ENDMDL
MODEL 7
REMARK VINA RESULT:      -4.3      3.318      5.629
REMARK  6 active torsions:
REMARK  status: ('A' for Active; 'I' for Inactive)
REMARK    1  A    between atoms: N_1  and  C_3 
REMARK    2  A    between atoms: C_3  and  C_11 
REMARK    3  A    between atoms: S_4  and  C_5 
REMARK    4  A    between atoms: C_5  and  C_6 
REMARK    5  A    between atoms: C_6  and  C_7 
REMARK    6  A    between atoms: C_6  and  N_10 
REMARK       I    between atoms: N_10  and  C_11 
ROOT
HETATM    1  N           1     -22.238  -4.047 -11.562  0.00  0.00    -0.344 N 
HETATM    2  C           1     -22.520  -3.000 -12.397  0.00  0.00     0.248 C 
HETATM    3  O           1     -22.429  -1.864 -11.995  0.00  0.00    -0.271 OA
HETATM    4  H           1     -22.312  -4.998 -11.899  0.00  0.00     0.163 HD
ENDROOT
BRANCH   1   5
HETATM    5  C           1     -21.831  -3.794 -10.193  0.00  0.00     0.194 C 
BRANCH   5   6
HETATM    6  C           1     -22.829  -4.435  -9.240  0.00  0.00     0.106 C 
BRANCH   6   7
HETATM    7  S           1     -24.451  -3.645  -9.437  0.00  0.00    -0.180 SA
HETATM    8  H           1     -24.590  -3.286  -8.148  0.00  0.00     0.101 HD
ENDBRANCH   6   7
ENDBRANCH   5   6
BRANCH   5   9
HETATM    9  C           1     -20.461  -4.382  -9.959  0.00  0.00     0.197 C 
HETATM   10  O           1     -19.995  -4.439  -8.801  0.00  0.00    -0.646 OA
HETATM   11  O           1     -19.792  -4.810 -10.924  0.00  0.00    -0.646 OA
ENDBRANCH   5   9
ENDBRANCH   1   5
BRANCH   2  12
HETATM   12  C           1     -22.943  -3.265 -13.821  0.00  0.00     0.270 C 
HETATM   13  C           1     -23.433  -1.970 -14.455  0.00  0.00     0.050 C 
BRANCH  12  14
HETATM   14  N           1     -24.050  -4.277 -13.834  0.00  0.00    -0.067 N 
HETATM   15  H           1     -24.591  -4.191 -14.724  0.00  0.00     0.275 HD
HETATM   16  H           1     -23.644  -5.237 -13.764  0.00  0.00     0.275 HD
HETATM   17  H           1     -24.686  -4.107 -13.022  0.00  0.00     0.275 HD
ENDBRANCH  12  14
ENDBRANCH   2  12
TORSDOF 6
ENDMDL
MODEL 8
REMARK VINA RESULT:      -4.2      4.489      6.387
REMARK  6 active torsions:
REMARK  status: ('A' for Active; 'I' for Inactive)
REMARK    1  A    between atoms: N_1  and  C_3 
REMARK    2  A    between atoms: C_3  and  C_11 
REMARK    3  A    between atoms: S_4  and  C_5 
REMARK    4  A    between atoms: C_5  and  C_6 
REMARK    5  A    between atoms: C_6  and  C_7 
REMARK    6  A    between atoms: C_6  and  N_10 
REMARK       I    between atoms: N_10  and  C_11 
ROOT
HETATM    1  N           1     -20.846  -6.685  -4.831  0.00  0.00    -0.344 N 
HETATM    2  C           1     -21.394  -5.762  -5.681  0.00  0.00     0.248 C 
HETATM    3  O           1     -22.589  -5.592  -5.698  0.00  0.00    -0.271 OA
HETATM    4  H           1     -19.844  -6.827  -4.816  0.00  0.00     0.163 HD
ENDROOT
BRANCH   1   5
HETATM    5  C           1     -21.701  -7.459  -3.952  0.00  0.00     0.194 C 
BRANCH   5   6
HETATM    6  C           1     -21.228  -8.906  -3.928  0.00  0.00     0.106 C 
BRANCH   6   7
HETATM    7  S           1     -19.601  -9.026  -4.723  0.00  0.00    -0.180 SA
HETATM    8  H           1     -19.089  -7.916  -4.161  0.00  0.00     0.101 HD
ENDBRANCH   6   7
ENDBRANCH   5   6
BRANCH   5   9
HETATM    9  C           1     -21.638  -6.885  -2.557  0.00  0.00     0.197 C 
HETATM   10  O           1     -22.341  -5.897  -2.256  0.00  0.00    -0.646 OA
HETATM   11  O           1     -20.883  -7.399  -1.704  0.00  0.00    -0.646 OA
ENDBRANCH   5   9
ENDBRANCH   1   5
BRANCH   2  12
HETATM   12  C           1     -20.503  -4.958  -6.595  0.00  0.00     0.270 C 
HETATM   13  C           1     -21.289  -3.787  -7.169  0.00  0.00     0.050 C 
BRANCH  12  14
HETATM   14  N           1     -20.017  -5.830  -7.715  0.00  0.00    -0.067 N 
HETATM   15  H           1     -19.114  -6.279  -7.441  0.00  0.00     0.275 HD
HETATM   16  H           1     -20.729  -6.569  -7.913  0.00  0.00     0.275 HD
HETATM   17  H           1     -19.871  -5.247  -8.571  0.00  0.00     0.275 HD
ENDBRANCH  12  14
ENDBRANCH   2  12
TORSDOF 6
ENDMDL
MODEL 9
REMARK VINA RESULT:      -4.0      9.744     11.338
REMARK  6 active torsions:
REMARK  status: ('A' for Active; 'I' for Inactive)
REMARK    1  A    between atoms: N_1  and  C_3 
REMARK    2  A    between atoms: C_3  and  C_11 
REMARK    3  A    between atoms: S_4  and  C_5 
REMARK    4  A    between atoms: C_5  and  C_6 
REMARK    5  A    between atoms: C_6  and  C_7 
REMARK    6  A    between atoms: C_6  and  N_10 
REMARK       I    between atoms: N_10  and  C_11 
ROOT
HETATM    1  N           1     -28.341  -7.030 -17.587  0.00  0.00    -0.344 N 
HETATM    2  C           1     -27.653  -6.950 -16.407  0.00  0.00     0.248 C 
HETATM    3  O           1     -28.250  -6.789 -15.369  0.00  0.00    -0.271 OA
HETATM    4  H           1     -27.841  -7.166 -18.457  0.00  0.00     0.163 HD
ENDROOT
BRANCH   1   5
HETATM    5  C           1     -29.787  -6.921 -17.593  0.00  0.00     0.194 C 
BRANCH   5   6
HETATM    6  C           1     -30.188  -5.494 -17.939  0.00  0.00     0.106 C 
BRANCH   6   7
HETATM    7  S           1     -31.443  -4.914 -16.763  0.00  0.00    -0.180 SA
HETATM    8  H           1     -30.698  -5.103 -15.659  0.00  0.00     0.101 HD
ENDBRANCH   6   7
ENDBRANCH   5   6
BRANCH   5   9
HETATM    9  C           1     -30.358  -7.869 -18.620  0.00  0.00     0.197 C 
HETATM   10  O           1     -29.616  -8.701 -19.183  0.00  0.00    -0.646 OA
HETATM   11  O           1     -31.574  -7.819 -18.907  0.00  0.00    -0.646 OA
ENDBRANCH   5   9
ENDBRANCH   1   5
BRANCH   2  12
HETATM   12  C           1     -26.148  -7.063 -16.402  0.00  0.00     0.270 C 
HETATM   13  C           1     -25.566  -6.063 -15.411  0.00  0.00     0.050 C 
BRANCH  12  14
HETATM   14  N           1     -25.620  -6.768 -17.775  0.00  0.00    -0.067 N 
HETATM   15  H           1     -25.606  -7.648 -18.339  0.00  0.00     0.275 HD
HETATM   16  H           1     -26.238  -6.065 -18.242  0.00  0.00     0.275 HD
HETATM   17  H           1     -24.650  -6.386 -17.701  0.00  0.00     0.275 HD
ENDBRANCH  12  14
ENDBRANCH   2  12
TORSDOF 6
ENDMDL
