MODEL 1
REMARK VINA RESULT:      -6.5      0.000      0.000
REMARK  8 active torsions:
REMARK  status: ('A' for Active; 'I' for Inactive)
REMARK    1  A    between atoms: C_1  and  C_8 
REMARK    2  A    between atoms: C_1  and  C_2 
REMARK    3  A    between atoms: C_1  and  N_11 
REMARK    4  A    between atoms: C_2  and  C_18 
REMARK    5  A    between atoms: C_3  and  C_4 
REMARK    6  A    between atoms: C_4  and  C_5 
REMARK    7  A    between atoms: C_5  and  C_6 
REMARK    8  A    between atoms: C_5  and  N_13 
REMARK       I    between atoms: C_8  and  N_13 
ROOT
HETATM    1  C           1     -34.056  -2.556 -11.735  0.00  0.00     0.249 C 
HETATM    2  O           1     -33.433  -1.956 -10.891  0.00  0.00    -0.271 OA
HETATM    3  N           1     -34.978  -1.895 -12.501  0.00  0.00    -0.344 N 
HETATM    4  H           1     -35.500  -2.397 -13.209  0.00  0.00     0.163 HD
ENDROOT
BRANCH   1   5
HETATM    5  C           1     -33.818  -4.030 -11.944  0.00  0.00     0.278 C 
BRANCH   5   6
HETATM    6  C           1     -34.280  -4.800 -10.714  0.00  0.00     0.021 C 
HETATM    7  C           1     -35.789  -4.650 -10.559  0.00  0.00     0.012 C 
BRANCH   6   8
HETATM    8  C           1     -33.931  -6.273 -10.876  0.00  0.00     0.002 C 
HETATM    9  C           1     -34.772  -7.104  -9.914  0.00  0.00     0.005 C 
ENDBRANCH   6   8
ENDBRANCH   5   6
BRANCH   5  10
HETATM   10  N           1     -32.354  -4.274 -12.165  0.00  0.00    -0.066 N 
HETATM   11  H           1     -32.040  -5.073 -11.569  0.00  0.00     0.275 HD
HETATM   12  H           1     -32.186  -4.501 -13.170  0.00  0.00     0.275 HD
HETATM   13  H           1     -31.817  -3.415 -11.906  0.00  0.00     0.275 HD
ENDBRANCH   5  10
ENDBRANCH   1   5
BRANCH   3  14
HETATM   14  C           1     -35.207  -0.478 -12.301  0.00  0.00     0.189 C 
BRANCH  14  15
HETATM   15  C           1     -35.551   0.174 -13.634  0.00  0.00     0.014 C 
HETATM   16  C           1     -34.555   1.288 -13.925  0.00  0.00     0.012 C 
BRANCH  15  17
HETATM   17  C           1     -35.485  -0.870 -14.740  0.00  0.00     0.002 C 
HETATM   18  C           1     -36.160  -0.328 -15.993  0.00  0.00     0.005 C 
ENDBRANCH  15  17
ENDBRANCH  14  15
BRANCH  14  19
HETATM   19  C           1     -36.351  -0.285 -11.336  0.00  0.00     0.197 C 
HETATM   20  O           1     -37.375  -0.996 -11.432  0.00  0.00    -0.646 OA
HETATM   21  O           1     -36.275   0.584 -10.441  0.00  0.00    -0.646 OA
ENDBRANCH  14  19
ENDBRANCH   3  14
TORSDOF 8
ENDMDL
MODEL 2
REMARK VINA RESULT:      -6.1      2.133      3.133
REMARK  8 active torsions:
REMARK  status: ('A' for Active; 'I' for Inactive)
REMARK    1  A    between atoms: C_1  and  C_8 
REMARK    2  A    between atoms: C_1  and  C_2 
REMARK    3  A    between atoms: C_1  and  N_11 
REMARK    4  A    between atoms: C_2  and  C_18 
REMARK    5  A    between atoms: C_3  and  C_4 
REMARK    6  A    between atoms: C_4  and  C_5 
REMARK    7  A    between atoms: C_5  and  C_6 
REMARK    8  A    between atoms: C_5  and  N_13 
REMARK       I    between atoms: C_8  and  N_13 
ROOT
HETATM    1  C           1     -34.280  -2.433 -12.528  0.00  0.00     0.249 C 
HETATM    2  O           1     -34.617  -3.047 -13.512  0.00  0.00    -0.271 OA
HETATM    3  N           1     -34.727  -1.153 -12.335  0.00  0.00    -0.344 N 
HETATM    4  H           1     -34.446  -0.637 -11.511  0.00  0.00     0.163 HD
ENDROOT
BRANCH   1   5
HETATM    5  C           1     -33.367  -3.074 -11.513  0.00  0.00     0.278 C 
BRANCH   5   6
HETATM    6  C           1     -33.416  -4.588 -11.669  0.00  0.00     0.021 C 
HETATM    7  C           1     -32.011  -5.118 -11.929  0.00  0.00     0.012 C 
BRANCH   6   8
HETATM    8  C           1     -33.964  -5.211 -10.392  0.00  0.00     0.002 C 
HETATM    9  C           1     -34.354  -6.660 -10.661  0.00  0.00     0.005 C 
ENDBRANCH   6   8
ENDBRANCH   5   6
BRANCH   5  10
HETATM   10  N           1     -33.814  -2.699 -10.131  0.00  0.00    -0.066 N 
HETATM   11  H           1     -34.856  -2.621 -10.112  0.00  0.00     0.275 HD
HETATM   12  H           1     -33.506  -3.432  -9.454  0.00  0.00     0.275 HD
HETATM   13  H           1     -33.392  -1.780  -9.867  0.00  0.00     0.275 HD
ENDBRANCH   5  10
ENDBRANCH   1   5
BRANCH   3  14
HETATM   14  C           1     -35.606  -0.537 -13.310  0.00  0.00     0.189 C 
BRANCH  14  15
HETATM   15  C           1     -36.712   0.222 -12.588  0.00  0.00     0.014 C 
HETATM   16  C           1     -38.066  -0.236 -13.112  0.00  0.00     0.012 C 
BRANCH  15  17
HETATM   17  C           1     -36.625  -0.056 -11.094  0.00  0.00     0.002 C 
HETATM   18  C           1     -38.028  -0.193 -10.519  0.00  0.00     0.005 C 
ENDBRANCH  15  17
ENDBRANCH  14  15
BRANCH  14  19
HETATM   19  C           1     -34.813   0.421 -14.165  0.00  0.00     0.197 C 
HETATM   20  O           1     -34.571   1.575 -13.749  0.00  0.00    -0.646 OA
HETATM   21  O           1     -34.399   0.061 -15.288  0.00  0.00    -0.646 OA
ENDBRANCH  14  19
ENDBRANCH   3  14
TORSDOF 8
ENDMDL
MODEL 3
REMARK VINA RESULT:      -6.0     12.269     13.852
REMARK  8 active torsions:
REMARK  status: ('A' for Active; 'I' for Inactive)
REMARK    1  A    between atoms: C_1  and  C_8 
REMARK    2  A    between atoms: C_1  and  C_2 
REMARK    3  A    between atoms: C_1  and  N_11 
REMARK    4  A    between atoms: C_2  and  C_18 
REMARK    5  A    between atoms: C_3  and  C_4 
REMARK    6  A    between atoms: C_4  and  C_5 
REMARK    7  A    between atoms: C_5  and  C_6 
REMARK    8  A    between atoms: C_5  and  N_13 
REMARK       I    between atoms: C_8  and  N_13 
ROOT
HETATM    1  C           1     -21.697  -4.791  -7.694  0.00  0.00     0.249 C 
HETATM    2  O           1     -21.488  -3.691  -7.241  0.00  0.00    -0.271 OA
HETATM    3  N           1     -22.371  -4.926  -8.878  0.00  0.00    -0.344 N 
HETATM    4  H           1     -22.546  -5.848  -9.258  0.00  0.00     0.163 HD
ENDROOT
BRANCH   1   5
HETATM    5  C           1     -21.217  -6.015  -6.955  0.00  0.00     0.278 C 
BRANCH   5   6
HETATM    6  C           1     -21.586  -5.898  -5.482  0.00  0.00     0.021 C 
HETATM    7  C           1     -23.063  -6.226  -5.301  0.00  0.00     0.012 C 
BRANCH   6   8
HETATM    8  C           1     -20.747  -6.876  -4.670  0.00  0.00     0.002 C 
HETATM    9  C           1     -21.204  -6.851  -3.216  0.00  0.00     0.005 C 
ENDBRANCH   6   8
ENDBRANCH   5   6
BRANCH   5  10
HETATM   10  N           1     -19.727  -6.127  -7.090  0.00  0.00    -0.066 N 
HETATM   11  H           1     -19.424  -5.687  -7.988  0.00  0.00     0.275 HD
HETATM   12  H           1     -19.267  -5.637  -6.290  0.00  0.00     0.275 HD
HETATM   13  H           1     -19.453  -7.136  -7.086  0.00  0.00     0.275 HD
ENDBRANCH   5  10
ENDBRANCH   1   5
BRANCH   3  14
HETATM   14  C           1     -22.832  -3.750  -9.589  0.00  0.00     0.189 C 
BRANCH  14  15
HETATM   15  C           1     -22.244  -3.742 -10.993  0.00  0.00     0.014 C 
HETATM   16  C           1     -23.007  -2.747 -11.857  0.00  0.00     0.012 C 
BRANCH  15  17
HETATM   17  C           1     -20.777  -3.337 -10.926  0.00  0.00     0.002 C 
HETATM   18  C           1     -19.908  -4.584 -10.842  0.00  0.00     0.005 C 
ENDBRANCH  15  17
ENDBRANCH  14  15
BRANCH  14  19
HETATM   19  C           1     -24.339  -3.775  -9.675  0.00  0.00     0.197 C 
HETATM   20  O           1     -24.993  -2.729  -9.474  0.00  0.00    -0.646 OA
HETATM   21  O           1     -24.932  -4.841  -9.947  0.00  0.00    -0.646 OA
ENDBRANCH  14  19
ENDBRANCH   3  14
TORSDOF 8
ENDMDL
MODEL 4
REMARK VINA RESULT:      -5.6     14.345     16.943
REMARK  8 active torsions:
REMARK  status: ('A' for Active; 'I' for Inactive)
REMARK    1  A    between atoms: C_1  and  C_8 
REMARK    2  A    between atoms: C_1  and  C_2 
REMARK    3  A    between atoms: C_1  and  N_11 
REMARK    4  A    between atoms: C_2  and  C_18 
REMARK    5  A    between atoms: C_3  and  C_4 
REMARK    6  A    between atoms: C_4  and  C_5 
REMARK    7  A    between atoms: C_5  and  C_6 
REMARK    8  A    between atoms: C_5  and  N_13 
REMARK       I    between atoms: C_8  and  N_13 
ROOT
HETATM    1  C           1     -21.648  -5.663  -5.601  0.00  0.00     0.249 C 
HETATM    2  O           1     -22.850  -5.782  -5.618  0.00  0.00    -0.271 OA
HETATM    3  N           1     -20.895  -6.449  -4.771  0.00  0.00    -0.344 N 
HETATM    4  H           1     -19.888  -6.350  -4.756  0.00  0.00     0.163 HD
ENDROOT
BRANCH   1   5
HETATM    5  C           1     -20.978  -4.648  -6.493  0.00  0.00     0.278 C 
BRANCH   5   6
HETATM    6  C           1     -21.348  -4.924  -7.944  0.00  0.00     0.021 C 
HETATM    7  C           1     -22.333  -3.866  -8.427  0.00  0.00     0.012 C 
BRANCH   6   8
HETATM    8  C           1     -20.093  -4.877  -8.806  0.00  0.00     0.002 C 
HETATM    9  C           1     -20.452  -4.377 -10.200  0.00  0.00     0.005 C 
ENDBRANCH   6   8
ENDBRANCH   5   6
BRANCH   5  10
HETATM   10  N           1     -19.490  -4.746  -6.330  0.00  0.00    -0.066 N 
HETATM   11  H           1     -19.266  -5.443  -5.585  0.00  0.00     0.275 HD
HETATM   12  H           1     -19.059  -5.050  -7.232  0.00  0.00     0.275 HD
HETATM   13  H           1     -19.108  -3.812  -6.058  0.00  0.00     0.275 HD
ENDBRANCH   5  10
ENDBRANCH   1   5
BRANCH   3  14
HETATM   14  C           1     -21.539  -7.425  -3.914  0.00  0.00     0.189 C 
BRANCH  14  15
HETATM   15  C           1     -20.734  -8.718  -3.923  0.00  0.00     0.014 C 
HETATM   16  C           1     -21.602  -9.850  -4.457  0.00  0.00     0.012 C 
BRANCH  15  17
HETATM   17  C           1     -19.513  -8.548  -4.816  0.00  0.00     0.002 C 
HETATM   18  C           1     -18.351  -9.351  -4.248  0.00  0.00     0.005 C 
ENDBRANCH  15  17
ENDBRANCH  14  15
BRANCH  14  19
HETATM   19  C           1     -21.610  -6.886  -2.505  0.00  0.00     0.197 C 
HETATM   20  O           1     -20.886  -7.377  -1.612  0.00  0.00    -0.646 OA
HETATM   21  O           1     -22.391  -5.950  -2.233  0.00  0.00    -0.646 OA
ENDBRANCH  14  19
ENDBRANCH   3  14
TORSDOF 8
ENDMDL
MODEL 5
REMARK VINA RESULT:      -5.6     12.695     15.245
REMARK  8 active torsions:
REMARK  status: ('A' for Active; 'I' for Inactive)
REMARK    1  A    between atoms: C_1  and  C_8 
REMARK    2  A    between atoms: C_1  and  C_2 
REMARK    3  A    between atoms: C_1  and  N_11 
REMARK    4  A    between atoms: C_2  and  C_18 
REMARK    5  A    between atoms: C_3  and  C_4 
REMARK    6  A    between atoms: C_4  and  C_5 
REMARK    7  A    between atoms: C_5  and  C_6 
REMARK    8  A    between atoms: C_5  and  N_13 
REMARK       I    between atoms: C_8  and  N_13 
ROOT
HETATM    1  C           1     -22.662  -4.669  -8.532  0.00  0.00     0.249 C 
HETATM    2  O           1     -23.423  -4.079  -7.803  0.00  0.00    -0.271 OA
HETATM    3  N           1     -21.574  -5.313  -8.008  0.00  0.00    -0.344 N 
HETATM    4  H           1     -20.936  -5.809  -8.618  0.00  0.00     0.163 HD
ENDROOT
BRANCH   1   5
HETATM    5  C           1     -22.910  -4.696 -10.020  0.00  0.00     0.278 C 
BRANCH   5   6
HETATM    6  C           1     -22.280  -3.467 -10.663  0.00  0.00     0.021 C 
HETATM    7  C           1     -20.991  -3.868 -11.370  0.00  0.00     0.012 C 
BRANCH   6   8
HETATM    8  C           1     -23.249  -2.871 -11.675  0.00  0.00     0.002 C 
HETATM    9  C           1     -22.678  -3.028 -13.079  0.00  0.00     0.005 C 
ENDBRANCH   6   8
ENDBRANCH   5   6
BRANCH   5  10
HETATM   10  N           1     -24.387  -4.694 -10.281  0.00  0.00    -0.066 N 
HETATM   11  H           1     -24.836  -3.925  -9.735  0.00  0.00     0.275 HD
HETATM   12  H           1     -24.561  -4.546 -11.300  0.00  0.00     0.275 HD
HETATM   13  H           1     -24.792  -5.612  -9.986  0.00  0.00     0.275 HD
ENDBRANCH   5  10
ENDBRANCH   1   5
BRANCH   3  14
HETATM   14  C           1     -21.336  -5.289  -6.578  0.00  0.00     0.189 C 
BRANCH  14  15
HETATM   15  C           1     -21.480  -6.696  -6.015  0.00  0.00     0.014 C 
HETATM   16  C           1     -20.116  -7.204  -5.566  0.00  0.00     0.012 C 
BRANCH  15  17
HETATM   17  C           1     -22.430  -6.671  -4.825  0.00  0.00     0.002 C 
HETATM   18  C           1     -21.625  -6.638  -3.532  0.00  0.00     0.005 C 
ENDBRANCH  15  17
ENDBRANCH  14  15
BRANCH  14  19
HETATM   19  C           1     -19.940  -4.781  -6.310  0.00  0.00     0.197 C 
HETATM   20  O           1     -19.640  -4.344  -5.178  0.00  0.00    -0.646 OA
HETATM   21  O           1     -19.084  -4.797  -7.221  0.00  0.00    -0.646 OA
ENDBRANCH  14  19
ENDBRANCH   3  14
TORSDOF 8
ENDMDL
MODEL 6
REMARK VINA RESULT:      -5.5     16.390     18.251
REMARK  8 active torsions:
REMARK  status: ('A' for Active; 'I' for Inactive)
REMARK    1  A    between atoms: C_1  and  C_8 
REMARK    2  A    between atoms: C_1  and  C_2 
REMARK    3  A    between atoms: C_1  and  N_11 
REMARK    4  A    between atoms: C_2  and  C_18 
REMARK    5  A    between atoms: C_3  and  C_4 
REMARK    6  A    between atoms: C_4  and  C_5 
REMARK    7  A    between atoms: C_5  and  C_6 
REMARK    8  A    between atoms: C_5  and  N_13 
REMARK       I    between atoms: C_8  and  N_13 
ROOT
HETATM    1  C           1     -21.877 -10.346  -2.910  0.00  0.00     0.249 C 
HETATM    2  O           1     -22.576 -10.577  -3.867  0.00  0.00    -0.271 OA
HETATM    3  N           1     -20.876  -9.417  -3.003  0.00  0.00    -0.344 N 
HETATM    4  H           1     -20.290  -9.223  -2.201  0.00  0.00     0.163 HD
ENDROOT
BRANCH   1   5
HETATM    5  C           1     -22.106 -11.081  -1.613  0.00  0.00     0.278 C 
BRANCH   5   6
HETATM    6  C           1     -23.100 -10.306  -0.758  0.00  0.00     0.021 C 
HETATM    7  C           1     -23.966 -11.285   0.026  0.00  0.00     0.012 C 
BRANCH   6   8
HETATM    8  C           1     -22.343  -9.410   0.213  0.00  0.00     0.002 C 
HETATM    9  C           1     -23.195  -8.193   0.550  0.00  0.00     0.005 C 
ENDBRANCH   6   8
ENDBRANCH   5   6
BRANCH   5  10
HETATM   10  N           1     -20.806 -11.209  -0.875  0.00  0.00    -0.066 N 
HETATM   11  H           1     -20.365 -10.266  -0.781  0.00  0.00     0.275 HD
HETATM   12  H           1     -20.982 -11.608   0.074  0.00  0.00     0.275 HD
HETATM   13  H           1     -20.166 -11.841  -1.407  0.00  0.00     0.275 HD
ENDBRANCH   5  10
ENDBRANCH   1   5
BRANCH   3  14
HETATM   14  C           1     -20.656  -8.710  -4.250  0.00  0.00     0.189 C 
BRANCH  14  15
HETATM   15  C           1     -20.896  -7.221  -4.038  0.00  0.00     0.014 C 
HETATM   16  C           1     -22.203  -6.819  -4.708  0.00  0.00     0.012 C 
BRANCH  15  17
HETATM   17  C           1     -20.980  -6.929  -2.546  0.00  0.00     0.002 C 
HETATM   18  C           1     -22.223  -6.096  -2.259  0.00  0.00     0.005 C 
ENDBRANCH  15  17
ENDBRANCH  14  15
BRANCH  14  19
HETATM   19  C           1     -19.235  -8.930  -4.707  0.00  0.00     0.197 C 
HETATM   20  O           1     -18.958  -8.891  -5.925  0.00  0.00    -0.646 OA
HETATM   21  O           1     -18.335  -9.150  -3.868  0.00  0.00    -0.646 OA
ENDBRANCH  14  19
ENDBRANCH   3  14
TORSDOF 8
ENDMDL
MODEL 7
REMARK VINA RESULT:      -5.3     17.615     19.420
REMARK  8 active torsions:
REMARK  status: ('A' for Active; 'I' for Inactive)
REMARK    1  A    between atoms: C_1  and  C_8 
REMARK    2  A    between atoms: C_1  and  C_2 
REMARK    3  A    between atoms: C_1  and  N_11 
REMARK    4  A    between atoms: C_2  and  C_18 
REMARK    5  A    between atoms: C_3  and  C_4 
REMARK    6  A    between atoms: C_4  and  C_5 
REMARK    7  A    between atoms: C_5  and  C_6 
REMARK    8  A    between atoms: C_5  and  N_13 
REMARK       I    between atoms: C_8  and  N_13 
ROOT
HETATM    1  C           1     -19.893 -10.757  -1.317  0.00  0.00     0.249 C 
HETATM    2  O           1     -19.715 -11.255  -0.231  0.00  0.00    -0.271 OA
HETATM    3  N           1     -21.025 -10.025  -1.556  0.00  0.00    -0.344 N 
HETATM    4  H           1     -21.174  -9.606  -2.466  0.00  0.00     0.163 HD
ENDROOT
BRANCH   1   5
HETATM    5  C           1     -18.869 -10.942  -2.409  0.00  0.00     0.278 C 
BRANCH   5   6
HETATM    6  C           1     -18.462  -9.582  -2.960  0.00  0.00     0.021 C 
HETATM    7  C           1     -16.952  -9.416  -2.840  0.00  0.00     0.012 C 
BRANCH   6   8
HETATM    8  C           1     -18.867  -9.486  -4.425  0.00  0.00     0.002 C 
HETATM    9  C           1     -19.848  -8.335  -4.608  0.00  0.00     0.005 C 
ENDBRANCH   6   8
ENDBRANCH   5   6
BRANCH   5  10
HETATM   10  N           1     -19.458 -11.772  -3.511  0.00  0.00    -0.066 N 
HETATM   11  H           1     -20.182 -11.214  -4.018  0.00  0.00     0.275 HD
HETATM   12  H           1     -18.704 -12.052  -4.178  0.00  0.00     0.275 HD
HETATM   13  H           1     -19.900 -12.626  -3.103  0.00  0.00     0.275 HD
ENDBRANCH   5  10
ENDBRANCH   1   5
BRANCH   3  14
HETATM   14  C           1     -22.009  -9.846  -0.507  0.00  0.00     0.189 C 
BRANCH  14  15
HETATM   15  C           1     -22.344  -8.366  -0.372  0.00  0.00     0.014 C 
HETATM   16  C           1     -22.129  -7.928   1.070  0.00  0.00     0.012 C 
BRANCH  15  17
HETATM   17  C           1     -21.439  -7.556  -1.290  0.00  0.00     0.002 C 
HETATM   18  C           1     -22.208  -6.363  -1.840  0.00  0.00     0.005 C 
ENDBRANCH  15  17
ENDBRANCH  14  15
BRANCH  14  19
HETATM   19  C           1     -23.259 -10.616  -0.855  0.00  0.00     0.197 C 
HETATM   20  O           1     -24.190 -10.704  -0.026  0.00  0.00    -0.646 OA
HETATM   21  O           1     -23.365 -11.164  -1.974  0.00  0.00    -0.646 OA
ENDBRANCH  14  19
ENDBRANCH   3  14
TORSDOF 8
ENDMDL
MODEL 8
REMARK VINA RESULT:      -5.3     16.379     18.696
REMARK  8 active torsions:
REMARK  status: ('A' for Active; 'I' for Inactive)
REMARK    1  A    between atoms: C_1  and  C_8 
REMARK    2  A    between atoms: C_1  and  C_2 
REMARK    3  A    between atoms: C_1  and  N_11 
REMARK    4  A    between atoms: C_2  and  C_18 
REMARK    5  A    between atoms: C_3  and  C_4 
REMARK    6  A    between atoms: C_4  and  C_5 
REMARK    7  A    between atoms: C_5  and  C_6 
REMARK    8  A    between atoms: C_5  and  N_13 
REMARK       I    between atoms: C_8  and  N_13 
ROOT
HETATM    1  C           1     -21.346  -7.737  -2.718  0.00  0.00     0.249 C 
HETATM    2  O           1     -20.803  -6.876  -2.067  0.00  0.00    -0.271 OA
HETATM    3  N           1     -21.598  -8.961  -2.158  0.00  0.00    -0.344 N 
HETATM    4  H           1     -22.053  -9.682  -2.703  0.00  0.00     0.163 HD
ENDROOT
BRANCH   1   5
HETATM    5  C           1     -21.748  -7.463  -4.146  0.00  0.00     0.278 C 
BRANCH   5   6
HETATM    6  C           1     -20.509  -7.137  -4.969  0.00  0.00     0.021 C 
HETATM    7  C           1     -19.674  -8.399  -5.153  0.00  0.00     0.012 C 
BRANCH   6   8
HETATM    8  C           1     -20.931  -6.606  -6.332  0.00  0.00     0.002 C 
HETATM    9  C           1     -19.783  -5.814  -6.947  0.00  0.00     0.005 C 
ENDBRANCH   6   8
ENDBRANCH   5   6
BRANCH   5  10
HETATM   10  N           1     -22.694  -6.300  -4.185  0.00  0.00    -0.066 N 
HETATM   11  H           1     -22.160  -5.423  -4.377  0.00  0.00     0.275 HD
HETATM   12  H           1     -23.401  -6.451  -4.940  0.00  0.00     0.275 HD
HETATM   13  H           1     -23.180  -6.217  -3.263  0.00  0.00     0.275 HD
ENDBRANCH   5  10
ENDBRANCH   1   5
BRANCH   3  14
HETATM   14  C           1     -21.213  -9.224  -0.785  0.00  0.00     0.189 C 
BRANCH  14  15
HETATM   15  C           1     -22.456  -9.526   0.041  0.00  0.00     0.014 C 
HETATM   16  C           1     -23.146  -8.220   0.413  0.00  0.00     0.012 C 
BRANCH  15  17
HETATM   17  C           1     -23.408 -10.390  -0.774  0.00  0.00     0.002 C 
HETATM   18  C           1     -23.796 -11.621   0.034  0.00  0.00     0.005 C 
ENDBRANCH  15  17
ENDBRANCH  14  15
BRANCH  14  19
HETATM   19  C           1     -20.281 -10.410  -0.744  0.00  0.00     0.197 C 
HETATM   20  O           1     -19.670 -10.761  -1.777  0.00  0.00    -0.646 OA
HETATM   21  O           1     -20.119 -11.042   0.323  0.00  0.00    -0.646 OA
ENDBRANCH  14  19
ENDBRANCH   3  14
TORSDOF 8
ENDMDL
MODEL 9
REMARK VINA RESULT:      -5.2     25.010     26.666
REMARK  8 active torsions:
REMARK  status: ('A' for Active; 'I' for Inactive)
REMARK    1  A    between atoms: C_1  and  C_8 
REMARK    2  A    between atoms: C_1  and  C_2 
REMARK    3  A    between atoms: C_1  and  N_11 
REMARK    4  A    between atoms: C_2  and  C_18 
REMARK    5  A    between atoms: C_3  and  C_4 
REMARK    6  A    between atoms: C_4  and  C_5 
REMARK    7  A    between atoms: C_5  and  C_6 
REMARK    8  A    between atoms: C_5  and  N_13 
REMARK       I    between atoms: C_8  and  N_13 
ROOT
HETATM    1  C           1     -12.709   6.594 -20.807  0.00  0.00     0.249 C 
HETATM    2  O           1     -13.300   6.642 -19.755  0.00  0.00    -0.271 OA
HETATM    3  N           1     -12.043   7.698 -21.268  0.00  0.00    -0.344 N 
HETATM    4  H           1     -11.546   7.658 -22.149  0.00  0.00     0.163 HD
ENDROOT
BRANCH   1   5
HETATM    5  C           1     -12.704   5.319 -21.614  0.00  0.00     0.278 C 
BRANCH   5   6
HETATM    6  C           1     -12.701   4.122 -20.673  0.00  0.00     0.021 C 
HETATM    7  C           1     -13.332   2.924 -21.373  0.00  0.00     0.012 C 
BRANCH   6   8
HETATM    8  C           1     -11.267   3.785 -20.285  0.00  0.00     0.002 C 
HETATM    9  C           1     -10.962   2.343 -20.671  0.00  0.00     0.005 C 
ENDBRANCH   6   8
ENDBRANCH   5   6
BRANCH   5  10
HETATM   10  N           1     -11.478   5.279 -22.478  0.00  0.00    -0.066 N 
HETATM   11  H           1     -11.576   4.516 -23.185  0.00  0.00     0.275 HD
HETATM   12  H           1     -11.367   6.195 -22.967  0.00  0.00     0.275 HD
HETATM   13  H           1     -10.640   5.096 -21.882  0.00  0.00     0.275 HD
ENDBRANCH   5  10
ENDBRANCH   1   5
BRANCH   3  14
HETATM   14  C           1     -12.046   8.923 -20.493  0.00  0.00     0.189 C 
BRANCH  14  15
HETATM   15  C           1     -10.621   9.266 -20.079  0.00  0.00     0.014 C 
HETATM   16  C           1     -10.454   9.021 -18.586  0.00  0.00     0.012 C 
BRANCH  15  17
HETATM   17  C           1      -9.645   8.387 -20.850  0.00  0.00     0.002 C 
HETATM   18  C           1      -8.579   9.260 -21.501  0.00  0.00     0.005 C 
ENDBRANCH  15  17
ENDBRANCH  14  15
BRANCH  14  19
HETATM   19  C           1     -12.610  10.045 -21.330  0.00  0.00     0.197 C 
HETATM   20  O           1     -13.830  10.069 -21.601  0.00  0.00    -0.646 OA
HETATM   21  O           1     -11.858  10.950 -21.752  0.00  0.00    -0.646 OA
ENDBRANCH  14  19
ENDBRANCH   3  14
TORSDOF 8
ENDMDL
