MODEL 1
REMARK VINA RESULT:      -6.5      0.000      0.000
REMARK  8 active torsions:
REMARK  status: ('A' for Active; 'I' for Inactive)
REMARK    1  A    between atoms: C_2  and  C_3 
REMARK    2  A    between atoms: C_3  and  C_6 
REMARK    3  A    between atoms: C_3  and  N_23 
REMARK    4  A    between atoms: C_6  and  C_20 
REMARK       I    between atoms: C_7  and  N_23 
REMARK    5  A    between atoms: C_7  and  C_10 
REMARK    6  A    between atoms: C_8  and  C_9 
REMARK    7  A    between atoms: C_9  and  C_10 
REMARK    8  A    between atoms: C_10  and  N_22 
ROOT
HETATM    1  C           1     -21.111  -5.672  -6.788  0.00  0.00     0.280 C 
ENDROOT
BRANCH   1   2
HETATM    2  C           1     -21.661  -4.550  -7.633  0.00  0.00     0.249 C 
HETATM    3  N           1     -22.258  -4.826  -8.834  0.00  0.00    -0.344 N 
HETATM    4  H           1     -22.329  -5.783  -9.155  0.00  0.00     0.163 HD
HETATM    5  O           1     -21.575  -3.408  -7.250  0.00  0.00    -0.271 OA
BRANCH   3   6
HETATM    6  C           1     -22.786  -3.748  -9.646  0.00  0.00     0.195 C 
BRANCH   6   7
HETATM    7  C           1     -24.293  -3.829  -9.670  0.00  0.00     0.197 C 
HETATM    8  O           1     -24.857  -4.928  -9.858  0.00  0.00    -0.646 OA
HETATM    9  O           1     -24.977  -2.796  -9.501  0.00  0.00    -0.646 OA
ENDBRANCH   6   7
BRANCH   6  10
HETATM   10  C           1     -22.249  -3.871 -11.067  0.00  0.00     0.149 C 
BRANCH  10  11
HETATM   11  C           1     -20.748  -3.719 -11.052  0.00  0.00     0.175 C 
HETATM   12  O           1     -20.230  -2.609 -11.299  0.00  0.00    -0.648 OA
HETATM   13  O           1     -20.023  -4.703 -10.791  0.00  0.00    -0.648 OA
ENDBRANCH  10  11
ENDBRANCH   6  10
ENDBRANCH   3   6
ENDBRANCH   1   2
BRANCH   1  14
HETATM   14  C           1     -20.724  -5.134  -5.417  0.00  0.00     0.101 C 
BRANCH  14  15
HETATM   15  C           1     -21.115  -6.124  -4.364  0.00  0.00     0.028 A 
HETATM   16  C           1     -21.191  -7.482  -4.558  0.00  0.00     0.114 A 
HETATM   17  N           1     -21.579  -7.992  -3.350  0.00  0.00    -0.360 N 
HETATM   18  C           1     -21.720  -6.943  -2.488  0.00  0.00     0.180 A 
HETATM   19  H           1     -21.740  -9.006  -3.126  0.00  0.00     0.166 HD
HETATM   20  N           1     -21.446  -5.800  -3.074  0.00  0.00    -0.355 N 
ATOM     21  HN          1     -21.473  -4.869  -2.657  1.00  0.00     0.166 HD
ENDBRANCH  14  15
ENDBRANCH   1  14
BRANCH   1  22
HETATM   22  N           1     -19.899  -6.253  -7.456  0.00  0.00    -0.066 N 
HETATM   23  H           1     -19.062  -6.101  -6.849  0.00  0.00     0.275 HD
HETATM   24  H           1     -20.041  -7.278  -7.603  0.00  0.00     0.275 HD
HETATM   25  H           1     -19.752  -5.785  -8.378  0.00  0.00     0.275 HD
ENDBRANCH   1  22
TORSDOF 8
ENDMDL
MODEL 2
REMARK VINA RESULT:      -6.4      2.673      6.993
REMARK  8 active torsions:
REMARK  status: ('A' for Active; 'I' for Inactive)
REMARK    1  A    between atoms: C_2  and  C_3 
REMARK    2  A    between atoms: C_3  and  C_6 
REMARK    3  A    between atoms: C_3  and  N_23 
REMARK    4  A    between atoms: C_6  and  C_20 
REMARK       I    between atoms: C_7  and  N_23 
REMARK    5  A    between atoms: C_7  and  C_10 
REMARK    6  A    between atoms: C_8  and  C_9 
REMARK    7  A    between atoms: C_9  and  C_10 
REMARK    8  A    between atoms: C_10  and  N_22 
ROOT
HETATM    1  C           1     -23.871  -4.389  -9.852  0.00  0.00     0.280 C 
ENDROOT
BRANCH   1   2
HETATM    2  C           1     -23.119  -4.409  -8.544  0.00  0.00     0.249 C 
HETATM    3  N           1     -21.783  -4.710  -8.527  0.00  0.00    -0.344 N 
HETATM    4  H           1     -21.301  -4.921  -9.392  0.00  0.00     0.163 HD
HETATM    5  O           1     -23.694  -4.158  -7.512  0.00  0.00    -0.271 OA
BRANCH   3   6
HETATM    6  C           1     -21.060  -4.730  -7.270  0.00  0.00     0.195 C 
BRANCH   6   7
HETATM    7  C           1     -19.618  -4.359  -7.516  0.00  0.00     0.197 C 
HETATM    8  O           1     -19.312  -3.658  -8.505  0.00  0.00    -0.646 OA
HETATM    9  O           1     -18.729  -4.752  -6.730  0.00  0.00    -0.646 OA
ENDBRANCH   6   7
BRANCH   6  10
HETATM   10  C           1     -21.128  -6.126  -6.666  0.00  0.00     0.149 C 
BRANCH  10  11
HETATM   11  C           1     -21.699  -6.043  -5.271  0.00  0.00     0.175 C 
HETATM   12  O           1     -20.960  -5.734  -4.311  0.00  0.00    -0.648 OA
HETATM   13  O           1     -22.910  -6.283  -5.076  0.00  0.00    -0.648 OA
ENDBRANCH  10  11
ENDBRANCH   6  10
ENDBRANCH   3   6
ENDBRANCH   1   2
BRANCH   1  14
HETATM   14  C           1     -23.874  -2.974 -10.415  0.00  0.00     0.101 C 
BRANCH  14  15
HETATM   15  C           1     -23.370  -2.997 -11.824  0.00  0.00     0.028 A 
HETATM   16  C           1     -22.189  -3.577 -12.223  0.00  0.00     0.114 A 
HETATM   17  N           1     -22.128  -3.366 -13.572  0.00  0.00    -0.360 N 
HETATM   18  C           1     -23.251  -2.678 -13.932  0.00  0.00     0.180 A 
HETATM   19  H           1     -21.357  -3.676 -14.215  0.00  0.00     0.166 HD
HETATM   20  N           1     -24.021  -2.440 -12.894  0.00  0.00    -0.355 N 
ATOM     21  HN          1     -24.914  -1.947 -12.886  1.00  0.00     0.166 HD
ENDBRANCH  14  15
ENDBRANCH   1  14
BRANCH   1  22
HETATM   22  N           1     -25.284  -4.837  -9.621  0.00  0.00    -0.066 N 
HETATM   23  H           1     -25.938  -4.202 -10.133  0.00  0.00     0.275 HD
HETATM   24  H           1     -25.401  -5.814  -9.973  0.00  0.00     0.275 HD
HETATM   25  H           1     -25.497  -4.806  -8.599  0.00  0.00     0.275 HD
ENDBRANCH   1  22
TORSDOF 8
ENDMDL
MODEL 3
REMARK VINA RESULT:      -6.3      1.365      3.139
REMARK  8 active torsions:
REMARK  status: ('A' for Active; 'I' for Inactive)
REMARK    1  A    between atoms: C_2  and  C_3 
REMARK    2  A    between atoms: C_3  and  C_6 
REMARK    3  A    between atoms: C_3  and  N_23 
REMARK    4  A    between atoms: C_6  and  C_20 
REMARK       I    between atoms: C_7  and  N_23 
REMARK    5  A    between atoms: C_7  and  C_10 
REMARK    6  A    between atoms: C_8  and  C_9 
REMARK    7  A    between atoms: C_9  and  C_10 
REMARK    8  A    between atoms: C_10  and  N_22 
ROOT
HETATM    1  C           1     -21.456  -3.946  -7.112  0.00  0.00     0.280 C 
ENDROOT
BRANCH   1   2
HETATM    2  C           1     -21.281  -4.362  -8.552  0.00  0.00     0.249 C 
HETATM    3  N           1     -22.191  -3.966  -9.495  0.00  0.00    -0.344 N 
HETATM    4  H           1     -22.983  -3.396  -9.225  0.00  0.00     0.163 HD
HETATM    5  O           1     -20.336  -5.042  -8.874  0.00  0.00    -0.271 OA
BRANCH   3   6
HETATM    6  C           1     -22.023  -4.365 -10.879  0.00  0.00     0.195 C 
BRANCH   6   7
HETATM    7  C           1     -21.495  -3.198 -11.676  0.00  0.00     0.197 C 
HETATM    8  O           1     -20.403  -2.674 -11.368  0.00  0.00    -0.646 OA
HETATM    9  O           1     -22.149  -2.756 -12.646  0.00  0.00    -0.646 OA
ENDBRANCH   6   7
BRANCH   6  10
HETATM   10  C           1     -23.367  -4.802 -11.449  0.00  0.00     0.149 C 
BRANCH  10  11
HETATM   11  C           1     -24.481  -4.231 -10.606  0.00  0.00     0.175 C 
HETATM   12  O           1     -24.934  -4.885  -9.643  0.00  0.00    -0.648 OA
HETATM   13  O           1     -24.950  -3.103 -10.872  0.00  0.00    -0.648 OA
ENDBRANCH  10  11
ENDBRANCH   6  10
ENDBRANCH   3   6
ENDBRANCH   1   2
BRANCH   1  14
HETATM   14  C           1     -20.350  -4.564  -6.267  0.00  0.00     0.101 C 
BRANCH  14  15
HETATM   15  C           1     -20.834  -5.852  -5.676  0.00  0.00     0.028 A 
HETATM   16  C           1     -21.270  -6.003  -4.382  0.00  0.00     0.114 A 
HETATM   17  N           1     -21.611  -7.323  -4.274  0.00  0.00    -0.360 N 
HETATM   18  C           1     -21.371  -7.909  -5.484  0.00  0.00     0.180 A 
HETATM   19  H           1     -21.988  -7.799  -3.417  0.00  0.00     0.166 HD
HETATM   20  N           1     -20.900  -7.043  -6.351  0.00  0.00    -0.355 N 
ATOM     21  HN          1     -20.639  -7.219  -7.322  1.00  0.00     0.166 HD
ENDBRANCH  14  15
ENDBRANCH   1  14
BRANCH   1  22
HETATM   22  N           1     -22.789  -4.421  -6.614  0.00  0.00    -0.066 N 
HETATM   23  H           1     -23.548  -3.867  -7.071  0.00  0.00     0.275 HD
HETATM   24  H           1     -22.907  -5.434  -6.848  0.00  0.00     0.275 HD
HETATM   25  H           1     -22.840  -4.294  -5.578  0.00  0.00     0.275 HD
ENDBRANCH   1  22
TORSDOF 8
ENDMDL
MODEL 4
REMARK VINA RESULT:      -6.1      3.243      6.793
REMARK  8 active torsions:
REMARK  status: ('A' for Active; 'I' for Inactive)
REMARK    1  A    between atoms: C_2  and  C_3 
REMARK    2  A    between atoms: C_3  and  C_6 
REMARK    3  A    between atoms: C_3  and  N_23 
REMARK    4  A    between atoms: C_6  and  C_20 
REMARK       I    between atoms: C_7  and  N_23 
REMARK    5  A    between atoms: C_7  and  C_10 
REMARK    6  A    between atoms: C_8  and  C_9 
REMARK    7  A    between atoms: C_9  and  C_10 
REMARK    8  A    between atoms: C_10  and  N_22 
ROOT
HETATM    1  C           1     -20.963  -4.210  -7.541  0.00  0.00     0.280 C 
ENDROOT
BRANCH   1   2
HETATM    2  C           1     -20.665  -4.964  -6.268  0.00  0.00     0.249 C 
HETATM    3  N           1     -21.017  -6.282  -6.155  0.00  0.00    -0.344 N 
HETATM    4  H           1     -21.478  -6.751  -6.925  0.00  0.00     0.163 HD
HETATM    5  O           1     -20.115  -4.405  -5.350  0.00  0.00    -0.271 OA
BRANCH   3   6
HETATM    6  C           1     -20.731  -7.007  -4.932  0.00  0.00     0.195 C 
BRANCH   6   7
HETATM    7  C           1     -20.240  -8.393  -5.273  0.00  0.00     0.197 C 
HETATM    8  O           1     -19.091  -8.749  -4.937  0.00  0.00    -0.646 OA
HETATM    9  O           1     -20.984  -9.184  -5.893  0.00  0.00    -0.646 OA
ENDBRANCH   6   7
BRANCH   6  10
HETATM   10  C           1     -21.998  -7.110  -4.093  0.00  0.00     0.149 C 
BRANCH  10  11
HETATM   11  C           1     -21.691  -6.721  -2.668  0.00  0.00     0.175 C 
HETATM   12  O           1     -20.792  -7.318  -2.037  0.00  0.00    -0.648 OA
HETATM   13  O           1     -22.336  -5.802  -2.118  0.00  0.00    -0.648 OA
ENDBRANCH  10  11
ENDBRANCH   6  10
ENDBRANCH   3   6
ENDBRANCH   1   2
BRANCH   1  14
HETATM   14  C           1     -21.707  -5.120  -8.509  0.00  0.00     0.101 C 
BRANCH  14  15
HETATM   15  C           1     -22.803  -4.349  -9.176  0.00  0.00     0.028 A 
HETATM   16  C           1     -22.801  -3.975 -10.499  0.00  0.00     0.114 A 
HETATM   17  N           1     -23.976  -3.299 -10.678  0.00  0.00    -0.360 N 
HETATM   18  C           1     -24.631  -3.290  -9.480  0.00  0.00     0.180 A 
HETATM   19  H           1     -24.314  -2.866 -11.574  0.00  0.00     0.166 HD
HETATM   20  N           1     -23.945  -3.917  -8.553  0.00  0.00    -0.355 N 
ATOM     21  HN          1     -24.206  -4.055  -7.576  1.00  0.00     0.166 HD
ENDBRANCH  14  15
ENDBRANCH   1  14
BRANCH   1  22
HETATM   22  N           1     -19.676  -3.760  -8.168  0.00  0.00    -0.066 N 
HETATM   23  H           1     -19.834  -3.561  -9.181  0.00  0.00     0.275 HD
HETATM   24  H           1     -19.340  -2.893  -7.690  0.00  0.00     0.275 HD
HETATM   25  H           1     -18.958  -4.513  -8.068  0.00  0.00     0.275 HD
ENDBRANCH   1  22
TORSDOF 8
ENDMDL
MODEL 5
REMARK VINA RESULT:      -5.9      3.174      6.576
REMARK  8 active torsions:
REMARK  status: ('A' for Active; 'I' for Inactive)
REMARK    1  A    between atoms: C_2  and  C_3 
REMARK    2  A    between atoms: C_3  and  C_6 
REMARK    3  A    between atoms: C_3  and  N_23 
REMARK    4  A    between atoms: C_6  and  C_20 
REMARK       I    between atoms: C_7  and  N_23 
REMARK    5  A    between atoms: C_7  and  C_10 
REMARK    6  A    between atoms: C_8  and  C_9 
REMARK    7  A    between atoms: C_9  and  C_10 
REMARK    8  A    between atoms: C_10  and  N_22 
ROOT
HETATM    1  C           1     -21.439  -4.546  -6.972  0.00  0.00     0.280 C 
ENDROOT
BRANCH   1   2
HETATM    2  C           1     -22.052  -5.550  -6.026  0.00  0.00     0.249 C 
HETATM    3  N           1     -21.253  -6.445  -5.365  0.00  0.00    -0.344 N 
HETATM    4  H           1     -20.252  -6.434  -5.512  0.00  0.00     0.163 HD
HETATM    5  O           1     -23.247  -5.564  -5.852  0.00  0.00    -0.271 OA
BRANCH   3   6
HETATM    6  C           1     -21.842  -7.409  -4.457  0.00  0.00     0.195 C 
BRANCH   6   7
HETATM    7  C           1     -21.567  -6.991  -3.034  0.00  0.00     0.197 C 
HETATM    8  O           1     -21.243  -5.811  -2.780  0.00  0.00    -0.646 OA
HETATM    9  O           1     -21.662  -7.826  -2.108  0.00  0.00    -0.646 OA
ENDBRANCH   6   7
BRANCH   6  10
HETATM   10  C           1     -21.233  -8.783  -4.709  0.00  0.00     0.149 C 
BRANCH  10  11
HETATM   11  C           1     -19.743  -8.645  -4.903  0.00  0.00     0.175 C 
HETATM   12  O           1     -19.285  -8.325  -6.022  0.00  0.00    -0.648 OA
HETATM   13  O           1     -18.966  -8.849  -3.945  0.00  0.00    -0.648 OA
ENDBRANCH  10  11
ENDBRANCH   6  10
ENDBRANCH   3   6
ENDBRANCH   1   2
BRANCH   1  14
HETATM   14  C           1     -21.572  -5.049  -8.403  0.00  0.00     0.101 C 
BRANCH  14  15
HETATM   15  C           1     -22.683  -4.316  -9.089  0.00  0.00     0.028 A 
HETATM   16  C           1     -22.662  -3.920 -10.405  0.00  0.00     0.114 A 
HETATM   17  N           1     -23.861  -3.294 -10.606  0.00  0.00    -0.360 N 
HETATM   18  C           1     -24.547  -3.332  -9.425  0.00  0.00     0.180 A 
HETATM   19  H           1     -24.194  -2.861 -11.504  0.00  0.00     0.166 HD
HETATM   20  N           1     -23.858  -3.944  -8.490  0.00  0.00    -0.355 N 
ATOM     21  HN          1     -24.139  -4.109  -7.523  1.00  0.00     0.166 HD
ENDBRANCH  14  15
ENDBRANCH   1  14
BRANCH   1  22
HETATM   22  N           1     -19.987  -4.368  -6.639  0.00  0.00    -0.066 N 
HETATM   23  H           1     -19.622  -5.242  -6.197  0.00  0.00     0.275 HD
HETATM   24  H           1     -19.451  -4.169  -7.514  0.00  0.00     0.275 HD
HETATM   25  H           1     -19.878  -3.569  -5.974  0.00  0.00     0.275 HD
ENDBRANCH   1  22
TORSDOF 8
ENDMDL
MODEL 6
REMARK VINA RESULT:      -5.8      2.937      6.957
REMARK  8 active torsions:
REMARK  status: ('A' for Active; 'I' for Inactive)
REMARK    1  A    between atoms: C_2  and  C_3 
REMARK    2  A    between atoms: C_3  and  C_6 
REMARK    3  A    between atoms: C_3  and  N_23 
REMARK    4  A    between atoms: C_6  and  C_20 
REMARK       I    between atoms: C_7  and  N_23 
REMARK    5  A    between atoms: C_7  and  C_10 
REMARK    6  A    between atoms: C_8  and  C_9 
REMARK    7  A    between atoms: C_9  and  C_10 
REMARK    8  A    between atoms: C_10  and  N_22 
ROOT
HETATM    1  C           1     -22.273  -4.655  -8.577  0.00  0.00     0.280 C 
ENDROOT
BRANCH   1   2
HETATM    2  C           1     -21.216  -4.965  -7.545  0.00  0.00     0.249 C 
HETATM    3  N           1     -21.343  -6.069  -6.745  0.00  0.00    -0.344 N 
HETATM    4  H           1     -22.147  -6.676  -6.845  0.00  0.00     0.163 HD
HETATM    5  O           1     -20.257  -4.241  -7.426  0.00  0.00    -0.271 OA
BRANCH   3   6
HETATM    6  C           1     -20.328  -6.367  -5.754  0.00  0.00     0.195 C 
BRANCH   6   7
HETATM    7  C           1     -20.279  -7.857  -5.519  0.00  0.00     0.197 C 
HETATM    8  O           1     -21.116  -8.605  -6.069  0.00  0.00    -0.646 OA
HETATM    9  O           1     -19.400  -8.343  -4.775  0.00  0.00    -0.646 OA
ENDBRANCH   6   7
BRANCH   6  10
HETATM   10  C           1     -20.669  -5.659  -4.448  0.00  0.00     0.149 C 
BRANCH  10  11
HETATM   11  C           1     -21.927  -6.255  -3.866  0.00  0.00     0.175 C 
HETATM   12  O           1     -23.006  -6.169  -4.489  0.00  0.00    -0.648 OA
HETATM   13  O           1     -21.889  -6.836  -2.759  0.00  0.00    -0.648 OA
ENDBRANCH  10  11
ENDBRANCH   6  10
ENDBRANCH   3   6
ENDBRANCH   1   2
BRANCH   1  14
HETATM   14  C           1     -21.752  -3.591  -9.534  0.00  0.00     0.101 C 
BRANCH  14  15
HETATM   15  C           1     -22.463  -3.708 -10.846  0.00  0.00     0.028 A 
HETATM   16  C           1     -23.166  -4.815 -11.257  0.00  0.00     0.114 A 
HETATM   17  N           1     -23.643  -4.491 -12.497  0.00  0.00    -0.360 N 
HETATM   18  C           1     -23.217  -3.226 -12.784  0.00  0.00     0.180 A 
HETATM   19  H           1     -24.229  -5.105 -13.117  0.00  0.00     0.166 HD
HETATM   20  N           1     -22.501  -2.728 -11.803  0.00  0.00    -0.355 N 
ATOM     21  HN          1     -22.065  -1.806 -11.761  1.00  0.00     0.166 HD
ENDBRANCH  14  15
ENDBRANCH   1  14
BRANCH   1  22
HETATM   22  N           1     -23.507  -4.148  -7.891  0.00  0.00    -0.066 N 
HETATM   23  H           1     -23.637  -3.136  -8.113  0.00  0.00     0.275 HD
HETATM   24  H           1     -24.338  -4.688  -8.226  0.00  0.00     0.275 HD
HETATM   25  H           1     -23.406  -4.269  -6.858  0.00  0.00     0.275 HD
ENDBRANCH   1  22
TORSDOF 8
ENDMDL
MODEL 7
REMARK VINA RESULT:      -5.8      3.328      7.154
REMARK  8 active torsions:
REMARK  status: ('A' for Active; 'I' for Inactive)
REMARK    1  A    between atoms: C_2  and  C_3 
REMARK    2  A    between atoms: C_3  and  C_6 
REMARK    3  A    between atoms: C_3  and  N_23 
REMARK    4  A    between atoms: C_6  and  C_20 
REMARK       I    between atoms: C_7  and  N_23 
REMARK    5  A    between atoms: C_7  and  C_10 
REMARK    6  A    between atoms: C_8  and  C_9 
REMARK    7  A    between atoms: C_9  and  C_10 
REMARK    8  A    between atoms: C_10  and  N_22 
ROOT
HETATM    1  C           1     -22.221  -5.155  -6.887  0.00  0.00     0.280 C 
ENDROOT
BRANCH   1   2
HETATM    2  C           1     -21.385  -5.684  -5.748  0.00  0.00     0.249 C 
HETATM    3  N           1     -21.560  -6.970  -5.310  0.00  0.00    -0.344 N 
HETATM    4  H           1     -22.251  -7.564  -5.750  0.00  0.00     0.163 HD
HETATM    5  O           1     -20.561  -4.975  -5.223  0.00  0.00    -0.271 OA
BRANCH   3   6
HETATM    6  C           1     -20.757  -7.479  -4.216  0.00  0.00     0.195 C 
BRANCH   6   7
HETATM    7  C           1     -19.851  -8.573  -4.724  0.00  0.00     0.197 C 
HETATM    8  O           1     -20.178  -9.238  -5.731  0.00  0.00    -0.646 OA
HETATM    9  O           1     -18.772  -8.813  -4.140  0.00  0.00    -0.646 OA
ENDBRANCH   6   7
BRANCH   6  10
HETATM   10  C           1     -21.671  -8.040  -3.133  0.00  0.00     0.149 C 
BRANCH  10  11
HETATM   11  C           1     -21.983  -6.958  -2.128  0.00  0.00     0.175 C 
HETATM   12  O           1     -21.776  -7.156  -0.912  0.00  0.00    -0.648 OA
HETATM   13  O           1     -22.449  -5.864  -2.513  0.00  0.00    -0.648 OA
ENDBRANCH  10  11
ENDBRANCH   6  10
ENDBRANCH   3   6
ENDBRANCH   1   2
BRANCH   1  14
HETATM   14  C           1     -21.589  -3.881  -7.432  0.00  0.00     0.101 C 
BRANCH  14  15
HETATM   15  C           1     -21.341  -4.035  -8.900  0.00  0.00     0.028 A 
HETATM   16  C           1     -22.277  -3.802  -9.879  0.00  0.00     0.114 A 
HETATM   17  N           1     -21.631  -4.063 -11.056  0.00  0.00    -0.360 N 
HETATM   18  C           1     -20.354  -4.437 -10.749  0.00  0.00     0.180 A 
HETATM   19  H           1     -22.042  -3.989 -12.020  0.00  0.00     0.166 HD
HETATM   20  N           1     -20.150  -4.430  -9.452  0.00  0.00    -0.355 N 
ATOM     21  HN          1     -19.289  -4.667  -8.960  1.00  0.00     0.166 HD
ENDBRANCH  14  15
ENDBRANCH   1  14
BRANCH   1  22
HETATM   22  N           1     -23.605  -4.853  -6.393  0.00  0.00    -0.066 N 
HETATM   23  H           1     -23.779  -3.824  -6.453  0.00  0.00     0.275 HD
HETATM   24  H           1     -24.304  -5.360  -6.982  0.00  0.00     0.275 HD
HETATM   25  H           1     -23.696  -5.164  -5.399  0.00  0.00     0.275 HD
ENDBRANCH   1  22
TORSDOF 8
ENDMDL
MODEL 8
REMARK VINA RESULT:      -5.7      4.253      7.818
REMARK  8 active torsions:
REMARK  status: ('A' for Active; 'I' for Inactive)
REMARK    1  A    between atoms: C_2  and  C_3 
REMARK    2  A    between atoms: C_3  and  C_6 
REMARK    3  A    between atoms: C_3  and  N_23 
REMARK    4  A    between atoms: C_6  and  C_20 
REMARK       I    between atoms: C_7  and  N_23 
REMARK    5  A    between atoms: C_7  and  C_10 
REMARK    6  A    between atoms: C_8  and  C_9 
REMARK    7  A    between atoms: C_9  and  C_10 
REMARK    8  A    between atoms: C_10  and  N_22 
ROOT
HETATM    1  C           1     -21.691  -6.573  -5.482  0.00  0.00     0.280 C 
ENDROOT
BRANCH   1   2
HETATM    2  C           1     -20.937  -7.447  -4.508  0.00  0.00     0.249 C 
HETATM    3  N           1     -21.526  -7.826  -3.332  0.00  0.00    -0.344 N 
HETATM    4  H           1     -22.465  -7.519  -3.114  0.00  0.00     0.163 HD
HETATM    5  O           1     -19.816  -7.813  -4.768  0.00  0.00    -0.271 OA
BRANCH   3   6
HETATM    6  C           1     -20.803  -8.666  -2.396  0.00  0.00     0.195 C 
BRANCH   6   7
HETATM    7  C           1     -21.466 -10.018  -2.319  0.00  0.00     0.197 C 
HETATM    8  O           1     -21.143 -10.823  -1.420  0.00  0.00    -0.646 OA
HETATM    9  O           1     -22.341 -10.334  -3.156  0.00  0.00    -0.646 OA
ENDBRANCH   6   7
BRANCH   6  10
HETATM   10  C           1     -20.812  -8.017  -1.018  0.00  0.00     0.149 C 
BRANCH  10  11
HETATM   11  C           1     -22.191  -7.479  -0.724  0.00  0.00     0.175 C 
HETATM   12  O           1     -22.536  -6.364  -1.173  0.00  0.00    -0.648 OA
HETATM   13  O           1     -22.989  -8.149  -0.033  0.00  0.00    -0.648 OA
ENDBRANCH  10  11
ENDBRANCH   6  10
ENDBRANCH   3   6
ENDBRANCH   1   2
BRANCH   1  14
HETATM   14  C           1     -20.892  -5.304  -5.748  0.00  0.00     0.101 C 
BRANCH  14  15
HETATM   15  C           1     -21.235  -4.775  -7.106  0.00  0.00     0.028 A 
HETATM   16  C           1     -20.555  -5.083  -8.259  0.00  0.00     0.114 A 
HETATM   17  N           1     -21.198  -4.390  -9.246  0.00  0.00    -0.360 N 
HETATM   18  C           1     -22.223  -3.700  -8.663  0.00  0.00     0.180 A 
HETATM   19  H           1     -20.950  -4.387 -10.268  0.00  0.00     0.166 HD
HETATM   20  N           1     -22.269  -3.914  -7.368  0.00  0.00    -0.355 N 
ATOM     21  HN          1     -22.934  -3.523  -6.700  1.00  0.00     0.166 HD
ENDBRANCH  14  15
ENDBRANCH   1  14
BRANCH   1  22
HETATM   22  N           1     -23.024  -6.211  -4.898  0.00  0.00    -0.066 N 
HETATM   23  H           1     -22.884  -5.595  -4.066  0.00  0.00     0.275 HD
HETATM   24  H           1     -23.592  -5.704  -5.615  0.00  0.00     0.275 HD
HETATM   25  H           1     -23.526  -7.080  -4.608  0.00  0.00     0.275 HD
ENDBRANCH   1  22
TORSDOF 8
ENDMDL
MODEL 9
REMARK VINA RESULT:      -5.6      4.954      8.071
REMARK  8 active torsions:
REMARK  status: ('A' for Active; 'I' for Inactive)
REMARK    1  A    between atoms: C_2  and  C_3 
REMARK    2  A    between atoms: C_3  and  C_6 
REMARK    3  A    between atoms: C_3  and  N_23 
REMARK    4  A    between atoms: C_6  and  C_20 
REMARK       I    between atoms: C_7  and  N_23 
REMARK    5  A    between atoms: C_7  and  C_10 
REMARK    6  A    between atoms: C_8  and  C_9 
REMARK    7  A    between atoms: C_9  and  C_10 
REMARK    8  A    between atoms: C_10  and  N_22 
ROOT
HETATM    1  C           1     -20.505  -7.514  -4.886  0.00  0.00     0.280 C 
ENDROOT
BRANCH   1   2
HETATM    2  C           1     -20.280  -8.295  -3.614  0.00  0.00     0.249 C 
HETATM    3  N           1     -21.265  -8.358  -2.666  0.00  0.00    -0.344 N 
HETATM    4  H           1     -22.144  -7.879  -2.817  0.00  0.00     0.163 HD
HETATM    5  O           1     -19.231  -8.866  -3.434  0.00  0.00    -0.271 OA
BRANCH   3   6
HETATM    6  C           1     -21.049  -9.108  -1.444  0.00  0.00     0.195 C 
BRANCH   6   7
HETATM    7  C           1     -22.067 -10.218  -1.350  0.00  0.00     0.197 C 
HETATM    8  O           1     -22.265 -10.794  -0.258  0.00  0.00    -0.646 OA
HETATM    9  O           1     -22.713 -10.561  -2.363  0.00  0.00    -0.646 OA
ENDBRANCH   6   7
BRANCH   6  10
HETATM   10  C           1     -21.198  -8.180  -0.244  0.00  0.00     0.149 C 
BRANCH  10  11
HETATM   11  C           1     -22.454  -7.358  -0.397  0.00  0.00     0.175 C 
HETATM   12  O           1     -22.456  -6.350  -1.136  0.00  0.00    -0.648 OA
HETATM   13  O           1     -23.494  -7.686   0.216  0.00  0.00    -0.648 OA
ENDBRANCH  10  11
ENDBRANCH   6  10
ENDBRANCH   3   6
ENDBRANCH   1   2
BRANCH   1  14
HETATM   14  C           1     -21.375  -6.300  -4.590  0.00  0.00     0.101 C 
BRANCH  14  15
HETATM   15  C           1     -21.312  -5.348  -5.743  0.00  0.00     0.028 A 
HETATM   16  C           1     -20.156  -4.788  -6.231  0.00  0.00     0.114 A 
HETATM   17  N           1     -20.558  -3.994  -7.269  0.00  0.00    -0.360 N 
HETATM   18  C           1     -21.915  -4.100  -7.366  0.00  0.00     0.180 A 
HETATM   19  H           1     -19.935  -3.407  -7.880  0.00  0.00     0.166 HD
HETATM   20  N           1     -22.399  -4.912  -6.455  0.00  0.00    -0.355 N 
ATOM     21  HN          1     -23.376  -5.166  -6.308  1.00  0.00     0.166 HD
ENDBRANCH  14  15
ENDBRANCH   1  14
BRANCH   1  22
HETATM   22  N           1     -21.193  -8.388  -5.893  0.00  0.00    -0.066 N 
HETATM   23  H           1     -20.501  -8.706  -6.608  0.00  0.00     0.275 HD
HETATM   24  H           1     -21.603  -9.220  -5.410  0.00  0.00     0.275 HD
HETATM   25  H           1     -21.955  -7.847  -6.361  0.00  0.00     0.275 HD
ENDBRANCH   1  22
TORSDOF 8
ENDMDL
