MODEL 1
REMARK VINA RESULT:      -9.0      0.000      0.000
REMARK  9 active torsions:
REMARK  status: ('A' for Active; 'I' for Inactive)
REMARK    1  A    between atoms: C_1  and  C_31 
REMARK    2  A    between atoms: C_1  and  C_4 
REMARK    3  A    between atoms: C_1  and  N_25 
REMARK    4  A    between atoms: C_4  and  C_14 
REMARK    5  A    between atoms: C_6  and  C_11 
REMARK    6  A    between atoms: C_11  and  C_19 
REMARK    7  A    between atoms: C_11  and  N_20 
REMARK       I    between atoms: N_18  and  C_23 
REMARK    8  A    between atoms: C_19  and  C_29 
REMARK       I    between atoms: N_20  and  C_31 
REMARK    9  A    between atoms: C_23  and  C_29 
ROOT
HETATM    1  C           1     -21.135  -5.900  -6.980  0.00  0.00     0.278 C 
ENDROOT
BRANCH   1   2
HETATM    2  C           1     -21.708  -4.746  -7.766  0.00  0.00     0.249 C 
HETATM    3  O           1     -21.823  -3.661  -7.249  0.00  0.00    -0.271 OA
HETATM    4  N           1     -22.098  -4.930  -9.066  0.00  0.00    -0.345 N 
HETATM    5  H           1     -22.000  -5.838  -9.500  0.00  0.00     0.163 HD
BRANCH   4   6
HETATM    6  C           1     -22.647  -3.821  -9.821  0.00  0.00     0.186 C 
BRANCH   6   7
HETATM    7  C           1     -24.154  -3.875  -9.766  0.00  0.00     0.196 C 
HETATM    8  O           1     -24.805  -2.858  -9.442  0.00  0.00    -0.646 OA
HETATM    9  O           1     -24.752  -4.936 -10.046  0.00  0.00    -0.646 OA
ENDBRANCH   6   7
BRANCH   6  10
HETATM   10  C           1     -22.189  -3.913 -11.270  0.00  0.00     0.045 C 
BRANCH  10  11
HETATM   11  C           1     -22.550  -2.628 -12.001  0.00  0.00     0.105 C 
BRANCH  11  12
HETATM   12  C           1     -23.280  -2.962 -13.279  0.00  0.00     0.215 C 
HETATM   13  N           1     -22.589  -3.052 -14.457  0.00  0.00    -0.370 N 
HETATM   14  H           1     -21.590  -2.894 -14.472  0.00  0.00     0.159 HD
HETATM   15  H           1     -23.078  -3.277 -15.315  0.00  0.00     0.159 HD
HETATM   16  O           1     -24.472  -3.151 -13.262  0.00  0.00    -0.274 OA
ENDBRANCH  11  12
ENDBRANCH  10  11
ENDBRANCH   6  10
ENDBRANCH   4   6
ENDBRANCH   1   2
BRANCH   1  17
HETATM   17  C           1     -21.276  -5.620  -5.490  0.00  0.00     0.083 C 
BRANCH  17  18
HETATM   18  C           1     -21.290  -6.914  -4.738  0.00  0.00    -0.028 A 
HETATM   19  C           1     -21.602  -7.079  -3.359  0.00  0.00    -0.002 A 
HETATM   20  C           1     -21.493  -8.440  -3.074  0.00  0.00     0.042 A 
HETATM   21  C           1     -21.969  -6.197  -2.326  0.00  0.00     0.014 A 
HETATM   22  N           1     -21.128  -9.071  -4.242  0.00  0.00    -0.365 N 
HETATM   23  C           1     -21.734  -8.967  -1.799  0.00  0.00     0.030 A 
HETATM   24  C           1     -21.002  -8.157  -5.255  0.00  0.00     0.096 A 
HETATM   25  H           1     -20.968 -10.104  -4.343  0.00  0.00     0.165 HD
HETATM   26  C           1     -22.096  -8.071  -0.788  0.00  0.00     0.002 A 
HETATM   27  C           1     -22.212  -6.707  -1.045  0.00  0.00     0.001 A 
ENDBRANCH  17  18
ENDBRANCH   1  17
BRANCH   1  28
HETATM   28  N           1     -19.684  -6.066  -7.322  0.00  0.00    -0.066 N 
HETATM   29  H           1     -19.589  -6.304  -8.335  0.00  0.00     0.275 HD
HETATM   30  H           1     -19.176  -5.174  -7.125  0.00  0.00     0.275 HD
HETATM   31  H           1     -19.276  -6.835  -6.744  0.00  0.00     0.275 HD
ENDBRANCH   1  28
TORSDOF 9
ENDMDL
MODEL 2
REMARK VINA RESULT:      -8.4      3.195      8.586
REMARK  9 active torsions:
REMARK  status: ('A' for Active; 'I' for Inactive)
REMARK    1  A    between atoms: C_1  and  C_31 
REMARK    2  A    between atoms: C_1  and  C_4 
REMARK    3  A    between atoms: C_1  and  N_25 
REMARK    4  A    between atoms: C_4  and  C_14 
REMARK    5  A    between atoms: C_6  and  C_11 
REMARK    6  A    between atoms: C_11  and  C_19 
REMARK    7  A    between atoms: C_11  and  N_20 
REMARK       I    between atoms: N_18  and  C_23 
REMARK    8  A    between atoms: C_19  and  C_29 
REMARK       I    between atoms: N_20  and  C_31 
REMARK    9  A    between atoms: C_23  and  C_29 
ROOT
HETATM    1  C           1     -22.088  -5.336  -6.671  0.00  0.00     0.278 C 
ENDROOT
BRANCH   1   2
HETATM    2  C           1     -21.303  -5.922  -5.523  0.00  0.00     0.249 C 
HETATM    3  O           1     -20.750  -5.193  -4.734  0.00  0.00    -0.271 OA
HETATM    4  N           1     -21.215  -7.281  -5.376  0.00  0.00    -0.345 N 
HETATM    5  H           1     -21.678  -7.892  -6.037  0.00  0.00     0.163 HD
BRANCH   4   6
HETATM    6  C           1     -20.461  -7.843  -4.274  0.00  0.00     0.186 C 
BRANCH   6   7
HETATM    7  C           1     -19.582  -8.958  -4.784  0.00  0.00     0.196 C 
HETATM    8  O           1     -18.488  -9.196  -4.228  0.00  0.00    -0.646 OA
HETATM    9  O           1     -19.947  -9.644  -5.763  0.00  0.00    -0.646 OA
ENDBRANCH   6   7
BRANCH   6  10
HETATM   10  C           1     -21.422  -8.394  -3.228  0.00  0.00     0.045 C 
BRANCH  10  11
HETATM   11  C           1     -21.062  -7.830  -1.860  0.00  0.00     0.105 C 
BRANCH  11  12
HETATM   12  C           1     -22.128  -6.858  -1.419  0.00  0.00     0.215 C 
HETATM   13  N           1     -22.302  -5.680  -2.095  0.00  0.00    -0.370 N 
HETATM   14  H           1     -21.715  -5.461  -2.890  0.00  0.00     0.159 HD
HETATM   15  H           1     -23.017  -5.027  -1.800  0.00  0.00     0.159 HD
HETATM   16  O           1     -22.829  -7.119  -0.471  0.00  0.00    -0.274 OA
ENDBRANCH  11  12
ENDBRANCH  10  11
ENDBRANCH   6  10
ENDBRANCH   4   6
ENDBRANCH   1   2
BRANCH   1  17
HETATM   17  C           1     -21.410  -4.060  -7.151  0.00  0.00     0.083 C 
BRANCH  17  18
HETATM   18  C           1     -21.254  -4.106  -8.639  0.00  0.00    -0.028 A 
HETATM   19  C           1     -22.276  -3.863  -9.598  0.00  0.00    -0.002 A 
HETATM   20  C           1     -21.699  -4.011 -10.859  0.00  0.00     0.042 A 
HETATM   21  C           1     -23.641  -3.531  -9.511  0.00  0.00     0.014 A 
HETATM   22  N           1     -20.375  -4.331 -10.663  0.00  0.00    -0.365 N 
HETATM   23  C           1     -22.423  -3.842 -12.046  0.00  0.00     0.030 A 
HETATM   24  C           1     -20.095  -4.391  -9.324  0.00  0.00     0.096 A 
HETATM   25  H           1     -19.679  -4.505 -11.431  0.00  0.00     0.165 HD
HETATM   26  C           1     -23.777  -3.512 -11.935  0.00  0.00     0.002 A 
HETATM   27  C           1     -24.380  -3.359 -10.688  0.00  0.00     0.001 A 
ENDBRANCH  17  18
ENDBRANCH   1  17
BRANCH   1  28
HETATM   28  N           1     -23.481  -5.020  -6.213  0.00  0.00    -0.066 N 
HETATM   29  H           1     -23.566  -5.219  -5.191  0.00  0.00     0.275 HD
HETATM   30  H           1     -23.685  -4.011  -6.390  0.00  0.00     0.275 HD
HETATM   31  H           1     -24.163  -5.612  -6.740  0.00  0.00     0.275 HD
ENDBRANCH   1  28
TORSDOF 9
ENDMDL
MODEL 3
REMARK VINA RESULT:      -8.2      3.467      8.744
REMARK  9 active torsions:
REMARK  status: ('A' for Active; 'I' for Inactive)
REMARK    1  A    between atoms: C_1  and  C_31 
REMARK    2  A    between atoms: C_1  and  C_4 
REMARK    3  A    between atoms: C_1  and  N_25 
REMARK    4  A    between atoms: C_4  and  C_14 
REMARK    5  A    between atoms: C_6  and  C_11 
REMARK    6  A    between atoms: C_11  and  C_19 
REMARK    7  A    between atoms: C_11  and  N_20 
REMARK       I    between atoms: N_18  and  C_23 
REMARK    8  A    between atoms: C_19  and  C_29 
REMARK       I    between atoms: N_20  and  C_31 
REMARK    9  A    between atoms: C_23  and  C_29 
ROOT
HETATM    1  C           1     -20.861  -5.509  -6.158  0.00  0.00     0.278 C 
ENDROOT
BRANCH   1   2
HETATM    2  C           1     -20.322  -6.862  -5.766  0.00  0.00     0.249 C 
HETATM    3  O           1     -19.494  -7.407  -6.456  0.00  0.00    -0.271 OA
HETATM    4  N           1     -20.772  -7.474  -4.626  0.00  0.00    -0.345 N 
HETATM    5  H           1     -21.464  -7.017  -4.047  0.00  0.00     0.163 HD
BRANCH   4   6
HETATM    6  C           1     -20.254  -8.774  -4.248  0.00  0.00     0.186 C 
BRANCH   6   7
HETATM    7  C           1     -21.193  -9.849  -4.736  0.00  0.00     0.196 C 
HETATM    8  O           1     -22.096 -10.278  -3.986  0.00  0.00    -0.646 OA
HETATM    9  O           1     -21.069 -10.310  -5.892  0.00  0.00    -0.646 OA
ENDBRANCH   6   7
BRANCH   6  10
HETATM   10  C           1     -20.134  -8.855  -2.732  0.00  0.00     0.045 C 
BRANCH  10  11
HETATM   11  C           1     -20.730  -7.601  -2.108  0.00  0.00     0.105 C 
BRANCH  11  12
HETATM   12  C           1     -21.880  -7.984  -1.208  0.00  0.00     0.215 C 
HETATM   13  N           1     -22.249  -9.297  -1.092  0.00  0.00    -0.370 N 
HETATM   14  H           1     -21.752 -10.011  -1.608  0.00  0.00     0.159 HD
HETATM   15  H           1     -23.021  -9.555  -0.489  0.00  0.00     0.159 HD
HETATM   16  O           1     -22.475  -7.133  -0.592  0.00  0.00    -0.274 OA
ENDBRANCH  11  12
ENDBRANCH  10  11
ENDBRANCH   6  10
ENDBRANCH   4   6
ENDBRANCH   1   2
BRANCH   1  17
HETATM   17  C           1     -20.676  -5.303  -7.656  0.00  0.00     0.083 C 
BRANCH  17  18
HETATM   18  C           1     -21.908  -4.676  -8.230  0.00  0.00    -0.028 A 
HETATM   19  C           1     -22.080  -4.242  -9.574  0.00  0.00    -0.002 A 
HETATM   20  C           1     -23.370  -3.721  -9.676  0.00  0.00     0.042 A 
HETATM   21  C           1     -21.257  -4.243 -10.716  0.00  0.00     0.014 A 
HETATM   22  N           1     -23.953  -3.840  -8.434  0.00  0.00    -0.365 N 
HETATM   23  C           1     -23.883  -3.198 -10.869  0.00  0.00     0.030 A 
HETATM   24  C           1     -23.077  -4.416  -7.552  0.00  0.00     0.096 A 
HETATM   25  H           1     -24.929  -3.532  -8.197  0.00  0.00     0.165 HD
HETATM   26  C           1     -23.047  -3.210 -11.991  0.00  0.00     0.002 A 
HETATM   27  C           1     -21.754  -3.723 -11.918  0.00  0.00     0.001 A 
ENDBRANCH  17  18
ENDBRANCH   1  17
BRANCH   1  28
HETATM   28  N           1     -20.118  -4.440  -5.413  0.00  0.00    -0.066 N 
HETATM   29  H           1     -19.171  -4.793  -5.147  0.00  0.00     0.275 HD
HETATM   30  H           1     -20.017  -3.597  -6.022  0.00  0.00     0.275 HD
HETATM   31  H           1     -20.649  -4.185  -4.549  0.00  0.00     0.275 HD
ENDBRANCH   1  28
TORSDOF 9
ENDMDL
MODEL 4
REMARK VINA RESULT:      -8.0      3.333      8.545
REMARK  9 active torsions:
REMARK  status: ('A' for Active; 'I' for Inactive)
REMARK    1  A    between atoms: C_1  and  C_31 
REMARK    2  A    between atoms: C_1  and  C_4 
REMARK    3  A    between atoms: C_1  and  N_25 
REMARK    4  A    between atoms: C_4  and  C_14 
REMARK    5  A    between atoms: C_6  and  C_11 
REMARK    6  A    between atoms: C_11  and  C_19 
REMARK    7  A    between atoms: C_11  and  N_20 
REMARK       I    between atoms: N_18  and  C_23 
REMARK    8  A    between atoms: C_19  and  C_29 
REMARK       I    between atoms: N_20  and  C_31 
REMARK    9  A    between atoms: C_23  and  C_29 
ROOT
HETATM    1  C           1     -21.153  -5.300  -5.639  0.00  0.00     0.278 C 
ENDROOT
BRANCH   1   2
HETATM    2  C           1     -21.371  -6.545  -4.815  0.00  0.00     0.249 C 
HETATM    3  O           1     -21.804  -7.546  -5.335  0.00  0.00    -0.271 OA
HETATM    4  N           1     -21.080  -6.541  -3.477  0.00  0.00    -0.345 N 
HETATM    5  H           1     -20.716  -5.703  -3.041  0.00  0.00     0.163 HD
BRANCH   4   6
HETATM    6  C           1     -21.289  -7.737  -2.686  0.00  0.00     0.186 C 
BRANCH   6   7
HETATM    7  C           1     -21.925  -7.363  -1.369  0.00  0.00     0.196 C 
HETATM    8  O           1     -22.614  -6.324  -1.281  0.00  0.00    -0.646 OA
HETATM    9  O           1     -21.764  -8.093  -0.368  0.00  0.00    -0.646 OA
ENDBRANCH   6   7
BRANCH   6  10
HETATM   10  C           1     -19.952  -8.419  -2.428  0.00  0.00     0.045 C 
BRANCH  10  11
HETATM   11  C           1     -19.801  -9.612  -3.361  0.00  0.00     0.105 C 
BRANCH  11  12
HETATM   12  C           1     -18.693  -9.341  -4.350  0.00  0.00     0.215 C 
HETATM   13  N           1     -18.996  -8.965  -5.631  0.00  0.00    -0.370 N 
HETATM   14  H           1     -19.962  -8.868  -5.915  0.00  0.00     0.159 HD
HETATM   15  H           1     -18.253  -8.783  -6.294  0.00  0.00     0.159 HD
HETATM   16  O           1     -17.540  -9.455  -4.011  0.00  0.00    -0.274 OA
ENDBRANCH  11  12
ENDBRANCH  10  11
ENDBRANCH   6  10
ENDBRANCH   4   6
ENDBRANCH   1   2
BRANCH   1  17
HETATM   17  C           1     -21.016  -5.680  -7.107  0.00  0.00     0.083 C 
BRANCH  17  18
HETATM   18  C           1     -21.975  -4.872  -7.924  0.00  0.00    -0.028 A 
HETATM   19  C           1     -21.757  -4.396  -9.247  0.00  0.00    -0.002 A 
HETATM   20  C           1     -22.901  -3.693  -9.624  0.00  0.00     0.042 A 
HETATM   21  C           1     -20.693  -4.499 -10.161  0.00  0.00     0.014 A 
HETATM   22  N           1     -23.777  -3.745  -8.562  0.00  0.00    -0.365 N 
HETATM   23  C           1     -23.035  -3.083 -10.877  0.00  0.00     0.030 A 
HETATM   24  C           1     -23.226  -4.455  -7.529  0.00  0.00     0.096 A 
HETATM   25  H           1     -24.729  -3.302  -8.546  0.00  0.00     0.165 HD
HETATM   26  C           1     -21.964  -3.198 -11.769  0.00  0.00     0.002 A 
HETATM   27  C           1     -20.809  -3.895 -11.419  0.00  0.00     0.001 A 
ENDBRANCH  17  18
ENDBRANCH   1  17
BRANCH   1  28
HETATM   28  N           1     -19.899  -4.613  -5.182  0.00  0.00    -0.066 N 
HETATM   29  H           1     -20.019  -4.289  -4.196  0.00  0.00     0.275 HD
HETATM   30  H           1     -19.097  -5.281  -5.235  0.00  0.00     0.275 HD
HETATM   31  H           1     -19.710  -3.791  -5.798  0.00  0.00     0.275 HD
ENDBRANCH   1  28
TORSDOF 9
ENDMDL
MODEL 5
REMARK VINA RESULT:      -7.6      1.348      2.204
REMARK  9 active torsions:
REMARK  status: ('A' for Active; 'I' for Inactive)
REMARK    1  A    between atoms: C_1  and  C_31 
REMARK    2  A    between atoms: C_1  and  C_4 
REMARK    3  A    between atoms: C_1  and  N_25 
REMARK    4  A    between atoms: C_4  and  C_14 
REMARK    5  A    between atoms: C_6  and  C_11 
REMARK    6  A    between atoms: C_11  and  C_19 
REMARK    7  A    between atoms: C_11  and  N_20 
REMARK       I    between atoms: N_18  and  C_23 
REMARK    8  A    between atoms: C_19  and  C_29 
REMARK       I    between atoms: N_20  and  C_31 
REMARK    9  A    between atoms: C_23  and  C_29 
ROOT
HETATM    1  C           1     -21.111  -5.472  -6.503  0.00  0.00     0.278 C 
ENDROOT
BRANCH   1   2
HETATM    2  C           1     -21.604  -4.428  -7.473  0.00  0.00     0.249 C 
HETATM    3  O           1     -21.487  -3.255  -7.210  0.00  0.00    -0.271 OA
HETATM    4  N           1     -22.186  -4.810  -8.653  0.00  0.00    -0.345 N 
HETATM    5  H           1     -22.284  -5.792  -8.874  0.00  0.00     0.163 HD
BRANCH   4   6
HETATM    6  C           1     -22.660  -3.806  -9.585  0.00  0.00     0.186 C 
BRANCH   6   7
HETATM    7  C           1     -24.166  -3.854  -9.652  0.00  0.00     0.196 C 
HETATM    8  O           1     -24.745  -4.920  -9.956  0.00  0.00    -0.646 OA
HETATM    9  O           1     -24.836  -2.828  -9.402  0.00  0.00    -0.646 OA
ENDBRANCH   6   7
BRANCH   6  10
HETATM   10  C           1     -22.082  -4.081 -10.967  0.00  0.00     0.045 C 
BRANCH  10  11
HETATM   11  C           1     -22.013  -2.782 -11.758  0.00  0.00     0.105 C 
BRANCH  11  12
HETATM   12  C           1     -23.027  -2.818 -12.875  0.00  0.00     0.215 C 
HETATM   13  N           1     -24.362  -2.715 -12.590  0.00  0.00    -0.370 N 
HETATM   14  H           1     -24.670  -2.616 -11.631  0.00  0.00     0.159 HD
HETATM   15  H           1     -25.043  -2.740 -13.339  0.00  0.00     0.159 HD
HETATM   16  O           1     -22.662  -2.936 -14.019  0.00  0.00    -0.274 OA
ENDBRANCH  11  12
ENDBRANCH  10  11
ENDBRANCH   6  10
ENDBRANCH   4   6
ENDBRANCH   1   2
BRANCH   1  17
HETATM   17  C           1     -22.266  -5.938  -5.626  0.00  0.00     0.083 C 
BRANCH  17  18
HETATM   18  C           1     -21.728  -6.666  -4.435  0.00  0.00    -0.028 A 
HETATM   19  C           1     -21.248  -8.005  -4.417  0.00  0.00    -0.002 A 
HETATM   20  C           1     -20.845  -8.280  -3.110  0.00  0.00     0.042 A 
HETATM   21  C           1     -21.117  -9.012  -5.392  0.00  0.00     0.014 A 
HETATM   22  N           1     -21.076  -7.143  -2.368  0.00  0.00    -0.365 N 
HETATM   23  C           1     -20.315  -9.517  -2.726  0.00  0.00     0.030 A 
HETATM   24  C           1     -21.611  -6.161  -3.160  0.00  0.00     0.096 A 
HETATM   25  H           1     -20.873  -7.043  -1.343  0.00  0.00     0.165 HD
HETATM   26  C           1     -20.194 -10.502  -3.712  0.00  0.00     0.002 A 
HETATM   27  C           1     -20.589 -10.256  -5.025  0.00  0.00     0.001 A 
ENDBRANCH  17  18
ENDBRANCH   1  17
BRANCH   1  28
HETATM   28  N           1     -20.035  -4.883  -5.639  0.00  0.00    -0.066 N 
HETATM   29  H           1     -19.834  -3.906  -5.950  0.00  0.00     0.275 HD
HETATM   30  H           1     -20.353  -4.874  -4.644  0.00  0.00     0.275 HD
HETATM   31  H           1     -19.168  -5.460  -5.722  0.00  0.00     0.275 HD
ENDBRANCH   1  28
TORSDOF 9
ENDMDL
MODEL 6
REMARK VINA RESULT:      -7.6      1.738      3.066
REMARK  9 active torsions:
REMARK  status: ('A' for Active; 'I' for Inactive)
REMARK    1  A    between atoms: C_1  and  C_31 
REMARK    2  A    between atoms: C_1  and  C_4 
REMARK    3  A    between atoms: C_1  and  N_25 
REMARK    4  A    between atoms: C_4  and  C_14 
REMARK    5  A    between atoms: C_6  and  C_11 
REMARK    6  A    between atoms: C_11  and  C_19 
REMARK    7  A    between atoms: C_11  and  N_20 
REMARK       I    between atoms: N_18  and  C_23 
REMARK    8  A    between atoms: C_19  and  C_29 
REMARK       I    between atoms: N_20  and  C_31 
REMARK    9  A    between atoms: C_23  and  C_29 
ROOT
HETATM    1  C           1     -21.299  -7.679  -5.457  0.00  0.00     0.278 C 
ENDROOT
BRANCH   1   2
HETATM    2  C           1     -20.910  -6.770  -6.596  0.00  0.00     0.249 C 
HETATM    3  O           1     -19.783  -6.792  -7.029  0.00  0.00    -0.271 OA
HETATM    4  N           1     -21.836  -5.919  -7.140  0.00  0.00    -0.345 N 
HETATM    5  H           1     -22.780  -5.902  -6.778  0.00  0.00     0.163 HD
BRANCH   4   6
HETATM    6  C           1     -21.462  -5.047  -8.235  0.00  0.00     0.186 C 
BRANCH   6   7
HETATM    7  C           1     -20.710  -3.856  -7.694  0.00  0.00     0.196 C 
HETATM    8  O           1     -21.261  -3.087  -6.876  0.00  0.00    -0.646 OA
HETATM    9  O           1     -19.535  -3.638  -8.062  0.00  0.00    -0.646 OA
ENDBRANCH   6   7
BRANCH   6  10
HETATM   10  C           1     -22.715  -4.569  -8.958  0.00  0.00     0.045 C 
BRANCH  10  11
HETATM   11  C           1     -22.339  -4.045 -10.336  0.00  0.00     0.105 C 
BRANCH  11  12
HETATM   12  C           1     -23.555  -3.444 -10.996  0.00  0.00     0.215 C 
HETATM   13  N           1     -23.406  -2.522 -11.997  0.00  0.00    -0.370 N 
HETATM   14  H           1     -22.480  -2.243 -12.294  0.00  0.00     0.159 HD
HETATM   15  H           1     -24.222  -2.119 -12.440  0.00  0.00     0.159 HD
HETATM   16  O           1     -24.661  -3.777 -10.642  0.00  0.00    -0.274 OA
ENDBRANCH  11  12
ENDBRANCH  10  11
ENDBRANCH   6  10
ENDBRANCH   4   6
ENDBRANCH   1   2
BRANCH   1  17
HETATM   17  C           1     -20.345  -7.468  -4.289  0.00  0.00     0.083 C 
BRANCH  17  18
HETATM   18  C           1     -21.123  -7.088  -3.069  0.00  0.00    -0.028 A 
HETATM   19  C           1     -21.577  -7.976  -2.054  0.00  0.00    -0.002 A 
HETATM   20  C           1     -22.257  -7.207  -1.109  0.00  0.00     0.042 A 
HETATM   21  C           1     -21.474  -9.364  -1.849  0.00  0.00     0.014 A 
HETATM   22  N           1     -22.212  -5.901  -1.543  0.00  0.00    -0.365 N 
HETATM   23  C           1     -22.842  -7.759   0.037  0.00  0.00     0.030 A 
HETATM   24  C           1     -21.529  -5.818  -2.727  0.00  0.00     0.096 A 
HETATM   25  H           1     -22.641  -5.085  -1.039  0.00  0.00     0.165 HD
HETATM   26  C           1     -22.726  -9.141   0.218  0.00  0.00     0.002 A 
HETATM   27  C           1     -22.053  -9.934  -0.709  0.00  0.00     0.001 A 
ENDBRANCH  17  18
ENDBRANCH   1  17
BRANCH   1  28
HETATM   28  N           1     -21.226  -9.108  -5.910  0.00  0.00    -0.066 N 
HETATM   29  H           1     -22.165  -9.554  -5.809  0.00  0.00     0.275 HD
HETATM   30  H           1     -20.929  -9.140  -6.911  0.00  0.00     0.275 HD
HETATM   31  H           1     -20.531  -9.623  -5.323  0.00  0.00     0.275 HD
ENDBRANCH   1  28
TORSDOF 9
ENDMDL
MODEL 7
REMARK VINA RESULT:      -7.5      3.793      9.056
REMARK  9 active torsions:
REMARK  status: ('A' for Active; 'I' for Inactive)
REMARK    1  A    between atoms: C_1  and  C_31 
REMARK    2  A    between atoms: C_1  and  C_4 
REMARK    3  A    between atoms: C_1  and  N_25 
REMARK    4  A    between atoms: C_4  and  C_14 
REMARK    5  A    between atoms: C_6  and  C_11 
REMARK    6  A    between atoms: C_11  and  C_19 
REMARK    7  A    between atoms: C_11  and  N_20 
REMARK       I    between atoms: N_18  and  C_23 
REMARK    8  A    between atoms: C_19  and  C_29 
REMARK       I    between atoms: N_20  and  C_31 
REMARK    9  A    between atoms: C_23  and  C_29 
ROOT
HETATM    1  C           1     -20.762  -5.534  -6.102  0.00  0.00     0.278 C 
ENDROOT
BRANCH   1   2
HETATM    2  C           1     -20.101  -6.868  -5.856  0.00  0.00     0.249 C 
HETATM    3  O           1     -19.279  -7.289  -6.635  0.00  0.00    -0.271 OA
HETATM    4  N           1     -20.433  -7.603  -4.749  0.00  0.00    -0.345 N 
HETATM    5  H           1     -21.120  -7.251  -4.095  0.00  0.00     0.163 HD
BRANCH   4   6
HETATM    6  C           1     -19.797  -8.884  -4.512  0.00  0.00     0.186 C 
BRANCH   6   7
HETATM    7  C           1     -20.760  -9.993  -4.861  0.00  0.00     0.196 C 
HETATM    8  O           1     -21.105 -10.171  -6.049  0.00  0.00    -0.646 OA
HETATM    9  O           1     -21.210 -10.735  -3.961  0.00  0.00    -0.646 OA
ENDBRANCH   6   7
BRANCH   6  10
HETATM   10  C           1     -19.405  -8.996  -3.045  0.00  0.00     0.045 C 
BRANCH  10  11
HETATM   11  C           1     -17.958  -9.455  -2.939  0.00  0.00     0.105 C 
BRANCH  11  12
HETATM   12  C           1     -17.919 -10.928  -2.615  0.00  0.00     0.215 C 
HETATM   13  N           1     -18.974 -11.514  -1.968  0.00  0.00    -0.370 N 
HETATM   14  H           1     -19.779 -10.960  -1.707  0.00  0.00     0.159 HD
HETATM   15  H           1     -18.948 -12.503  -1.750  0.00  0.00     0.159 HD
HETATM   16  O           1     -16.959 -11.591  -2.926  0.00  0.00    -0.274 OA
ENDBRANCH  11  12
ENDBRANCH  10  11
ENDBRANCH   6  10
ENDBRANCH   4   6
ENDBRANCH   1   2
BRANCH   1  17
HETATM   17  C           1     -20.555  -5.125  -7.554  0.00  0.00     0.083 C 
BRANCH  17  18
HETATM   18  C           1     -21.840  -4.599  -8.113  0.00  0.00    -0.028 A 
HETATM   19  C           1     -22.049  -4.134  -9.441  0.00  0.00    -0.002 A 
HETATM   20  C           1     -23.383  -3.738  -9.532  0.00  0.00     0.042 A 
HETATM   21  C           1     -21.227  -4.014 -10.577  0.00  0.00     0.014 A 
HETATM   22  N           1     -23.956  -3.958  -8.300  0.00  0.00    -0.365 N 
HETATM   23  C           1     -23.941  -3.224 -10.710  0.00  0.00     0.030 A 
HETATM   24  C           1     -23.031  -4.478  -7.433  0.00  0.00     0.096 A 
HETATM   25  H           1     -24.958  -3.754  -8.057  0.00  0.00     0.165 HD
HETATM   26  C           1     -23.105  -3.114 -11.825  0.00  0.00     0.002 A 
HETATM   27  C           1     -21.768  -3.502 -11.763  0.00  0.00     0.001 A 
ENDBRANCH  17  18
ENDBRANCH   1  17
BRANCH   1  28
HETATM   28  N           1     -20.153  -4.501  -5.200  0.00  0.00    -0.066 N 
HETATM   29  H           1     -19.397  -4.940  -4.628  0.00  0.00     0.275 HD
HETATM   30  H           1     -19.750  -3.729  -5.777  0.00  0.00     0.275 HD
HETATM   31  H           1     -20.889  -4.115  -4.566  0.00  0.00     0.275 HD
ENDBRANCH   1  28
TORSDOF 9
ENDMDL
MODEL 8
REMARK VINA RESULT:      -7.4      1.728      2.559
REMARK  9 active torsions:
REMARK  status: ('A' for Active; 'I' for Inactive)
REMARK    1  A    between atoms: C_1  and  C_31 
REMARK    2  A    between atoms: C_1  and  C_4 
REMARK    3  A    between atoms: C_1  and  N_25 
REMARK    4  A    between atoms: C_4  and  C_14 
REMARK    5  A    between atoms: C_6  and  C_11 
REMARK    6  A    between atoms: C_11  and  C_19 
REMARK    7  A    between atoms: C_11  and  N_20 
REMARK       I    between atoms: N_18  and  C_23 
REMARK    8  A    between atoms: C_19  and  C_29 
REMARK       I    between atoms: N_20  and  C_31 
REMARK    9  A    between atoms: C_23  and  C_29 
ROOT
HETATM    1  C           1     -21.361  -5.947  -4.983  0.00  0.00     0.278 C 
ENDROOT
BRANCH   1   2
HETATM    2  C           1     -21.379  -5.901  -6.490  0.00  0.00     0.249 C 
HETATM    3  O           1     -20.927  -6.821  -7.129  0.00  0.00    -0.271 OA
HETATM    4  N           1     -21.908  -4.815  -7.136  0.00  0.00    -0.345 N 
HETATM    5  H           1     -22.287  -4.044  -6.602  0.00  0.00     0.163 HD
BRANCH   4   6
HETATM    6  C           1     -21.926  -4.771  -8.585  0.00  0.00     0.186 C 
BRANCH   6   7
HETATM    7  C           1     -20.641  -4.158  -9.084  0.00  0.00     0.196 C 
HETATM    8  O           1     -20.436  -4.050 -10.313  0.00  0.00    -0.646 OA
HETATM    9  O           1     -19.783  -3.756  -8.269  0.00  0.00    -0.646 OA
ENDBRANCH   6   7
BRANCH   6  10
HETATM   10  C           1     -23.106  -3.931  -9.055  0.00  0.00     0.045 C 
BRANCH  10  11
HETATM   11  C           1     -23.872  -4.687 -10.131  0.00  0.00     0.105 C 
BRANCH  11  12
HETATM   12  C           1     -23.821  -3.913 -11.425  0.00  0.00     0.215 C 
HETATM   13  N           1     -22.867  -4.210 -12.362  0.00  0.00    -0.370 N 
HETATM   14  H           1     -22.198  -4.947 -12.187  0.00  0.00     0.159 HD
HETATM   15  H           1     -22.832  -3.690 -13.230  0.00  0.00     0.159 HD
HETATM   16  O           1     -24.620  -3.032 -11.635  0.00  0.00    -0.274 OA
ENDBRANCH  11  12
ENDBRANCH  10  11
ENDBRANCH   6  10
ENDBRANCH   4   6
ENDBRANCH   1   2
BRANCH   1  17
HETATM   17  C           1     -20.321  -6.957  -4.517  0.00  0.00     0.083 C 
BRANCH  17  18
HETATM   18  C           1     -21.008  -8.140  -3.912  0.00  0.00    -0.028 A 
HETATM   19  C           1     -21.374  -8.289  -2.545  0.00  0.00    -0.002 A 
HETATM   20  C           1     -21.988  -9.536  -2.418  0.00  0.00     0.042 A 
HETATM   21  C           1     -21.242  -7.479  -1.402  0.00  0.00     0.014 A 
HETATM   22  N           1     -21.990 -10.115  -3.667  0.00  0.00    -0.365 N 
HETATM   23  C           1     -22.478 -10.016  -1.197  0.00  0.00     0.030 A 
HETATM   24  C           1     -21.400  -9.280  -4.578  0.00  0.00     0.096 A 
HETATM   25  H           1     -22.386 -11.062  -3.889  0.00  0.00     0.165 HD
HETATM   26  C           1     -22.335  -9.193  -0.075  0.00  0.00     0.002 A 
HETATM   27  C           1     -21.726  -7.944  -0.173  0.00  0.00     0.001 A 
ENDBRANCH  17  18
ENDBRANCH   1  17
BRANCH   1  28
HETATM   28  N           1     -22.714  -6.355  -4.479  0.00  0.00    -0.066 N 
HETATM   29  H           1     -23.454  -5.926  -5.079  0.00  0.00     0.275 HD
HETATM   30  H           1     -22.798  -7.396  -4.511  0.00  0.00     0.275 HD
HETATM   31  H           1     -22.831  -6.026  -3.493  0.00  0.00     0.275 HD
ENDBRANCH   1  28
TORSDOF 9
ENDMDL
MODEL 9
REMARK VINA RESULT:      -7.2      2.868      8.660
REMARK  9 active torsions:
REMARK  status: ('A' for Active; 'I' for Inactive)
REMARK    1  A    between atoms: C_1  and  C_31 
REMARK    2  A    between atoms: C_1  and  C_4 
REMARK    3  A    between atoms: C_1  and  N_25 
REMARK    4  A    between atoms: C_4  and  C_14 
REMARK    5  A    between atoms: C_6  and  C_11 
REMARK    6  A    between atoms: C_11  and  C_19 
REMARK    7  A    between atoms: C_11  and  N_20 
REMARK       I    between atoms: N_18  and  C_23 
REMARK    8  A    between atoms: C_19  and  C_29 
REMARK       I    between atoms: N_20  and  C_31 
REMARK    9  A    between atoms: C_23  and  C_29 
ROOT
HETATM    1  C           1     -21.214  -5.189  -6.618  0.00  0.00     0.278 C 
ENDROOT
BRANCH   1   2
HETATM    2  C           1     -21.851  -6.012  -5.525  0.00  0.00     0.249 C 
HETATM    3  O           1     -23.043  -5.949  -5.337  0.00  0.00    -0.271 OA
HETATM    4  N           1     -21.078  -6.832  -4.747  0.00  0.00    -0.345 N 
HETATM    5  H           1     -20.080  -6.886  -4.905  0.00  0.00     0.163 HD
BRANCH   4   6
HETATM    6  C           1     -21.690  -7.623  -3.698  0.00  0.00     0.186 C 
BRANCH   6   7
HETATM    7  C           1     -21.498  -6.931  -2.370  0.00  0.00     0.196 C 
HETATM    8  O           1     -22.145  -5.894  -2.106  0.00  0.00    -0.646 OA
HETATM    9  O           1     -20.692  -7.395  -1.535  0.00  0.00    -0.646 OA
ENDBRANCH   6   7
BRANCH   6  10
HETATM   10  C           1     -21.039  -8.999  -3.651  0.00  0.00     0.045 C 
BRANCH  10  11
HETATM   11  C           1     -19.905  -9.060  -4.664  0.00  0.00     0.105 C 
BRANCH  11  12
HETATM   12  C           1     -18.607  -9.349  -3.952  0.00  0.00     0.215 C 
HETATM   13  N           1     -18.544  -9.272  -2.586  0.00  0.00    -0.370 N 
HETATM   14  H           1     -19.368  -9.021  -2.055  0.00  0.00     0.159 HD
HETATM   15  H           1     -17.673  -9.466  -2.108  0.00  0.00     0.159 HD
HETATM   16  O           1     -17.623  -9.649  -4.585  0.00  0.00    -0.274 OA
ENDBRANCH  11  12
ENDBRANCH  10  11
ENDBRANCH   6  10
ENDBRANCH   4   6
ENDBRANCH   1   2
BRANCH   1  17
HETATM   17  C           1     -22.295  -4.435  -7.382  0.00  0.00     0.083 C 
BRANCH  17  18
HETATM   18  C           1     -21.788  -4.078  -8.743  0.00  0.00    -0.028 A 
HETATM   19  C           1     -22.584  -3.743  -9.874  0.00  0.00    -0.002 A 
HETATM   20  C           1     -21.710  -3.482 -10.929  0.00  0.00     0.042 A 
HETATM   21  C           1     -23.969  -3.635 -10.099  0.00  0.00     0.014 A 
HETATM   22  N           1     -20.431  -3.655 -10.448  0.00  0.00    -0.365 N 
HETATM   23  C           1     -22.153  -3.117 -12.206  0.00  0.00     0.030 A 
HETATM   24  C           1     -20.467  -4.016  -9.127  0.00  0.00     0.096 A 
HETATM   25  H           1     -19.554  -3.530 -11.012  0.00  0.00     0.165 HD
HETATM   26  C           1     -23.534  -3.017 -12.406  0.00  0.00     0.002 A 
HETATM   27  C           1     -24.430  -3.272 -11.370  0.00  0.00     0.001 A 
ENDBRANCH  17  18
ENDBRANCH   1  17
BRANCH   1  28
HETATM   28  N           1     -20.476  -6.095  -7.560  0.00  0.00    -0.066 N 
HETATM   29  H           1     -20.306  -7.016  -7.097  0.00  0.00     0.275 HD
HETATM   30  H           1     -21.048  -6.239  -8.423  0.00  0.00     0.275 HD
HETATM   31  H           1     -19.562  -5.659  -7.816  0.00  0.00     0.275 HD
ENDBRANCH   1  28
TORSDOF 9
ENDMDL
