MODEL 1
REMARK VINA RESULT:      -7.4      0.000      0.000
REMARK  15 active torsions:
REMARK  status: ('A' for Active; 'I' for Inactive)
REMARK    1  A    between atoms: N_6  and  C_20 
REMARK    2  A    between atoms: N_6  and  C_7 
REMARK    3  A    between atoms: C_7  and  C_8 
REMARK    4  A    between atoms: C_8  and  C_38 
REMARK    5  A    between atoms: N_9  and  C_38 
REMARK       I    between atoms: N_9  and  C_28 
REMARK    6  A    between atoms: C_18  and  C_19 
REMARK    7  A    between atoms: C_19  and  C_20 
REMARK    8  A    between atoms: C_20  and  C_22 
REMARK    9  A    between atoms: C_28  and  C_29 
REMARK   10  A    between atoms: C_29  and  C_30 
REMARK   11  A    between atoms: C_29  and  N_37 
REMARK   12  A    between atoms: C_30  and  C_31 
REMARK   13  A    between atoms: C_31  and  C_32 
REMARK   14  A    between atoms: C_32  and  N_33 
REMARK       I    between atoms: N_33  and  C_34 
REMARK       I    between atoms: C_34  and  N_35 
REMARK   15  A    between atoms: C_38  and  C_39 
ROOT
HETATM    1  N           1     -22.127  -4.968  -7.151  0.00  0.00    -0.345 N 
HETATM    2  O           1     -21.706  -3.282  -8.554  0.00  0.00    -0.271 OA
HETATM    3  H           1     -22.743  -5.724  -6.879  0.00  0.00     0.163 HD
HETATM    4  C           1     -22.441  -4.184  -8.230  0.00  0.00     0.249 C 
ENDROOT
BRANCH   1   5
HETATM    5  C           1     -20.914  -4.715  -6.400  0.00  0.00     0.187 C 
BRANCH   5   6
HETATM    6  C           1     -20.982  -5.447  -5.066  0.00  0.00     0.066 C 
BRANCH   6   7
HETATM    7  C           1     -22.040  -6.540  -5.140  0.00  0.00     0.273 C 
BRANCH   7   8
HETATM    8  N           1     -21.410  -7.802  -5.421  0.00  0.00     0.098 N 
HETATM    9  H           1     -20.740  -7.685  -6.181  0.00  0.00     0.317 HD
BRANCH   8  10
HETATM   10  C           1     -20.718  -8.220  -4.231  0.00  0.00     0.325 C 
BRANCH  10  11
HETATM   11  C           1     -21.556  -9.258  -3.496  0.00  0.00     0.105 C 
BRANCH  11  12
HETATM   12  C           1     -21.637  -8.900  -2.045  0.00  0.00     0.028 A 
HETATM   13  N           1     -21.782  -7.625  -1.565  0.00  0.00    -0.355 N 
HETATM   14  C           1     -21.811  -7.748  -0.258  0.00  0.00     0.180 A 
ATOM     15  HN          1     -21.852  -6.764  -2.107  1.00  0.00     0.166 HD
HETATM   16  N           1     -21.690  -9.055   0.124  0.00  0.00    -0.360 N 
HETATM   17  C           1     -21.579  -9.806  -1.012  0.00  0.00     0.114 A 
HETATM   18  H           1     -21.685  -9.415   1.110  0.00  0.00     0.166 HD
ENDBRANCH  11  12
ENDBRANCH  10  11
BRANCH  10  19
HETATM   19  C           1     -19.387  -8.822  -4.609  0.00  0.00     0.207 C 
HETATM   20  O           1     -19.151  -9.117  -5.800  0.00  0.00    -0.646 OA
HETATM   21  O           1     -18.522  -9.025  -3.731  0.00  0.00    -0.646 OA
ENDBRANCH  10  19
ENDBRANCH   8  10
ENDBRANCH   7   8
ENDBRANCH   6   7
ENDBRANCH   5   6
BRANCH   5  22
HETATM   22  C           1     -19.724  -5.210  -7.186  0.00  0.00     0.196 C 
HETATM   23  O           1     -18.788  -4.430  -7.461  0.00  0.00    -0.646 OA
HETATM   24  O           1     -19.675  -6.402  -7.561  0.00  0.00    -0.646 OA
ENDBRANCH   5  22
ENDBRANCH   1   5
BRANCH   4  25
HETATM   25  C           1     -23.705  -4.447  -9.010  0.00  0.00     0.274 C 
BRANCH  25  26
HETATM   26  C           1     -23.355  -4.710 -10.469  0.00  0.00     0.044 C 
BRANCH  26  27
HETATM   27  C           1     -24.010  -3.652 -11.348  0.00  0.00     0.023 C 
BRANCH  27  28
HETATM   28  C           1     -22.940  -2.932 -12.158  0.00  0.00     0.138 C 
BRANCH  28  29
HETATM   29  N           1     -23.581  -2.014 -13.111  0.00  0.00    -0.227 N 
HETATM   30  H           1     -24.273  -1.303 -12.771  0.00  0.00     0.177 HD
HETATM   31  C           1     -23.297  -2.082 -14.344  0.00  0.00     0.665 C 
HETATM   32  N           1     -23.848  -1.292 -15.165  0.00  0.00    -0.235 N 
HETATM   33  N           1     -22.439  -2.963 -14.765  0.00  0.00    -0.235 N 
HETATM   34  H           1     -23.613  -1.348 -16.186  0.00  0.00     0.174 HD
HETATM   35  H           1     -24.541  -0.580 -14.824  0.00  0.00     0.174 HD
HETATM   36  H           1     -22.205  -3.019 -15.782  0.00  0.00     0.174 HD
HETATM   37  H           1     -21.984  -3.615 -14.087  0.00  0.00     0.174 HD
ENDBRANCH  28  29
ENDBRANCH  27  28
ENDBRANCH  26  27
ENDBRANCH  25  26
BRANCH  25  38
HETATM   38  N           1     -24.606  -3.251  -8.922  0.00  0.00    -0.067 N 
HETATM   39  H           1     -24.233  -2.488  -9.530  0.00  0.00     0.275 HD
HETATM   40  H           1     -24.648  -2.920  -7.932  0.00  0.00     0.275 HD
HETATM   41  H           1     -25.566  -3.513  -9.241  0.00  0.00     0.275 HD
ENDBRANCH  25  38
ENDBRANCH   4  25
TORSDOF 15
ENDMDL
MODEL 2
REMARK VINA RESULT:      -7.3      2.403      3.452
REMARK  15 active torsions:
REMARK  status: ('A' for Active; 'I' for Inactive)
REMARK    1  A    between atoms: N_6  and  C_20 
REMARK    2  A    between atoms: N_6  and  C_7 
REMARK    3  A    between atoms: C_7  and  C_8 
REMARK    4  A    between atoms: C_8  and  C_38 
REMARK    5  A    between atoms: N_9  and  C_38 
REMARK       I    between atoms: N_9  and  C_28 
REMARK    6  A    between atoms: C_18  and  C_19 
REMARK    7  A    between atoms: C_19  and  C_20 
REMARK    8  A    between atoms: C_20  and  C_22 
REMARK    9  A    between atoms: C_28  and  C_29 
REMARK   10  A    between atoms: C_29  and  C_30 
REMARK   11  A    between atoms: C_29  and  N_37 
REMARK   12  A    between atoms: C_30  and  C_31 
REMARK   13  A    between atoms: C_31  and  C_32 
REMARK   14  A    between atoms: C_32  and  N_33 
REMARK       I    between atoms: N_33  and  C_34 
REMARK       I    between atoms: C_34  and  N_35 
REMARK   15  A    between atoms: C_38  and  C_39 
ROOT
HETATM    1  N           1     -21.610  -6.011  -6.222  0.00  0.00    -0.345 N 
HETATM    2  O           1     -19.741  -4.929  -6.792  0.00  0.00    -0.271 OA
HETATM    3  H           1     -22.567  -6.249  -6.450  0.00  0.00     0.163 HD
HETATM    4  C           1     -20.883  -5.212  -7.064  0.00  0.00     0.249 C 
ENDROOT
BRANCH   1   5
HETATM    5  C           1     -21.008  -6.516  -5.004  0.00  0.00     0.187 C 
BRANCH   5   6
HETATM    6  C           1     -22.039  -6.495  -3.883  0.00  0.00     0.066 C 
BRANCH   6   7
HETATM    7  C           1     -21.351  -6.154  -2.567  0.00  0.00     0.273 C 
BRANCH   7   8
HETATM    8  N           1     -22.218  -6.488  -1.470  0.00  0.00     0.098 N 
HETATM    9  H           1     -23.183  -6.271  -1.722  0.00  0.00     0.317 HD
BRANCH   8  10
HETATM   10  C           1     -22.092  -7.900  -1.226  0.00  0.00     0.325 C 
BRANCH  10  11
HETATM   11  C           1     -20.628  -8.305  -1.340  0.00  0.00     0.105 C 
BRANCH  11  12
HETATM   12  C           1     -20.537  -9.751  -1.715  0.00  0.00     0.028 A 
HETATM   13  N           1     -20.905 -10.266  -2.930  0.00  0.00    -0.355 N 
HETATM   14  C           1     -20.669 -11.555  -2.848  0.00  0.00     0.180 A 
ATOM     15  HN          1     -21.282  -9.756  -3.730  1.00  0.00     0.166 HD
HETATM   16  N           1     -20.162 -11.892  -1.624  0.00  0.00    -0.360 N 
HETATM   17  C           1     -20.071 -10.745  -0.886  0.00  0.00     0.114 A 
HETATM   18  H           1     -19.891 -12.857  -1.309  0.00  0.00     0.166 HD
ENDBRANCH  11  12
ENDBRANCH  10  11
BRANCH  10  19
HETATM   19  C           1     -22.595  -8.217   0.162  0.00  0.00     0.207 C 
HETATM   20  O           1     -23.654  -8.862   0.309  0.00  0.00    -0.646 OA
HETATM   21  O           1     -21.952  -7.833   1.162  0.00  0.00    -0.646 OA
ENDBRANCH  10  19
ENDBRANCH   8  10
ENDBRANCH   7   8
ENDBRANCH   6   7
ENDBRANCH   5   6
BRANCH   5  22
HETATM   22  C           1     -20.537  -7.933  -5.227  0.00  0.00     0.196 C 
HETATM   23  O           1     -19.410  -8.289  -4.819  0.00  0.00    -0.646 OA
HETATM   24  O           1     -21.274  -8.751  -5.819  0.00  0.00    -0.646 OA
ENDBRANCH   5  22
ENDBRANCH   1   5
BRANCH   4  25
HETATM   25  C           1     -21.510  -4.685  -8.331  0.00  0.00     0.274 C 
BRANCH  25  26
HETATM   26  C           1     -20.417  -4.220  -9.284  0.00  0.00     0.044 C 
BRANCH  26  27
HETATM   27  C           1     -20.857  -4.467 -10.721  0.00  0.00     0.023 C 
BRANCH  27  28
HETATM   28  C           1     -21.038  -3.133 -11.434  0.00  0.00     0.138 C 
BRANCH  28  29
HETATM   29  N           1     -22.472  -2.827 -11.544  0.00  0.00    -0.227 N 
HETATM   30  H           1     -23.022  -2.573 -10.687  0.00  0.00     0.177 HD
HETATM   31  C           1     -23.043  -2.868 -12.674  0.00  0.00     0.665 C 
HETATM   32  N           1     -24.277  -2.605 -12.770  0.00  0.00    -0.235 N 
HETATM   33  N           1     -22.360  -3.182 -13.735  0.00  0.00    -0.235 N 
HETATM   34  H           1     -24.750  -2.639 -13.707  0.00  0.00     0.174 HD
HETATM   35  H           1     -24.827  -2.351 -11.912  0.00  0.00     0.174 HD
HETATM   36  H           1     -22.831  -3.216 -14.667  0.00  0.00     0.174 HD
HETATM   37  H           1     -21.342  -3.400 -13.656  0.00  0.00     0.174 HD
ENDBRANCH  28  29
ENDBRANCH  27  28
ENDBRANCH  26  27
ENDBRANCH  25  26
BRANCH  25  38
HETATM   38  N           1     -22.409  -3.531  -8.002  0.00  0.00    -0.067 N 
HETATM   39  H           1     -22.503  -2.913  -8.840  0.00  0.00     0.275 HD
HETATM   40  H           1     -21.999  -2.986  -7.211  0.00  0.00     0.275 HD
HETATM   41  H           1     -23.351  -3.889  -7.726  0.00  0.00     0.275 HD
ENDBRANCH  25  38
ENDBRANCH   4  25
TORSDOF 15
ENDMDL
MODEL 3
REMARK VINA RESULT:      -7.1     11.840     14.835
REMARK  15 active torsions:
REMARK  status: ('A' for Active; 'I' for Inactive)
REMARK    1  A    between atoms: N_6  and  C_20 
REMARK    2  A    between atoms: N_6  and  C_7 
REMARK    3  A    between atoms: C_7  and  C_8 
REMARK    4  A    between atoms: C_8  and  C_38 
REMARK    5  A    between atoms: N_9  and  C_38 
REMARK       I    between atoms: N_9  and  C_28 
REMARK    6  A    between atoms: C_18  and  C_19 
REMARK    7  A    between atoms: C_19  and  C_20 
REMARK    8  A    between atoms: C_20  and  C_22 
REMARK    9  A    between atoms: C_28  and  C_29 
REMARK   10  A    between atoms: C_29  and  C_30 
REMARK   11  A    between atoms: C_29  and  N_37 
REMARK   12  A    between atoms: C_30  and  C_31 
REMARK   13  A    between atoms: C_31  and  C_32 
REMARK   14  A    between atoms: C_32  and  N_33 
REMARK       I    between atoms: N_33  and  C_34 
REMARK       I    between atoms: C_34  and  N_35 
REMARK   15  A    between atoms: C_38  and  C_39 
ROOT
HETATM    1  N           1     -31.078  -5.598 -16.639  0.00  0.00    -0.345 N 
HETATM    2  O           1     -31.992  -7.189 -17.914  0.00  0.00    -0.271 OA
HETATM    3  H           1     -30.263  -5.258 -16.146  0.00  0.00     0.163 HD
HETATM    4  C           1     -31.019  -6.783 -17.324  0.00  0.00     0.249 C 
ENDROOT
BRANCH   1   5
HETATM    5  C           1     -32.309  -4.833 -16.622  0.00  0.00     0.187 C 
BRANCH   5   6
HETATM    6  C           1     -32.644  -4.445 -15.187  0.00  0.00     0.066 C 
BRANCH   6   7
HETATM    7  C           1     -34.156  -4.430 -15.005  0.00  0.00     0.273 C 
BRANCH   7   8
HETATM    8  N           1     -34.474  -4.552 -13.608  0.00  0.00     0.098 N 
HETATM    9  H           1     -34.015  -5.380 -13.227  0.00  0.00     0.317 HD
BRANCH   8  10
HETATM   10  C           1     -33.979  -3.379 -12.942  0.00  0.00     0.325 C 
BRANCH  10  11
HETATM   11  C           1     -35.151  -2.510 -12.506  0.00  0.00     0.105 C 
BRANCH  11  12
HETATM   12  C           1     -35.086  -1.190 -13.211  0.00  0.00     0.028 A 
HETATM   13  N           1     -35.141  -1.030 -14.570  0.00  0.00    -0.355 N 
HETATM   14  C           1     -35.053   0.265 -14.771  0.00  0.00     0.180 A 
ATOM     15  HN          1     -35.231  -1.761 -15.277  1.00  0.00     0.166 HD
HETATM   16  N           1     -34.943   0.947 -13.592  0.00  0.00    -0.360 N 
HETATM   17  C           1     -34.963   0.026 -12.581  0.00  0.00     0.114 A 
HETATM   18  H           1     -34.859   1.987 -13.483  0.00  0.00     0.166 HD
ENDBRANCH  11  12
ENDBRANCH  10  11
BRANCH  10  19
HETATM   19  C           1     -33.178  -3.789 -11.730  0.00  0.00     0.207 C 
HETATM   20  O           1     -33.208  -3.090 -10.696  0.00  0.00    -0.646 OA
HETATM   21  O           1     -32.486  -4.829 -11.763  0.00  0.00    -0.646 OA
ENDBRANCH  10  19
ENDBRANCH   8  10
ENDBRANCH   7   8
ENDBRANCH   6   7
ENDBRANCH   5   6
BRANCH   5  22
HETATM   22  C           1     -32.136  -3.585 -17.453  0.00  0.00     0.196 C 
HETATM   23  O           1     -33.113  -2.836 -17.667  0.00  0.00    -0.646 OA
HETATM   24  O           1     -31.014  -3.299 -17.926  0.00  0.00    -0.646 OA
ENDBRANCH   5  22
ENDBRANCH   1   5
BRANCH   4  25
HETATM   25  C           1     -29.738  -7.580 -17.341  0.00  0.00     0.274 C 
BRANCH  25  26
HETATM   26  C           1     -28.556  -6.646 -17.114  0.00  0.00     0.044 C 
BRANCH  26  27
HETATM   27  C           1     -27.964  -6.903 -15.734  0.00  0.00     0.023 C 
BRANCH  27  28
HETATM   28  C           1     -26.446  -6.798 -15.806  0.00  0.00     0.138 C 
BRANCH  28  29
HETATM   29  N           1     -26.026  -6.699 -17.211  0.00  0.00    -0.227 N 
HETATM   30  H           1     -26.650  -6.229 -17.913  0.00  0.00     0.177 HD
HETATM   31  C           1     -24.912  -7.179 -17.575  0.00  0.00     0.665 C 
HETATM   32  N           1     -24.551  -7.094 -18.784  0.00  0.00    -0.235 N 
HETATM   33  N           1     -24.141  -7.760 -16.704  0.00  0.00    -0.235 N 
HETATM   34  H           1     -23.627  -7.492 -19.085  0.00  0.00     0.174 HD
HETATM   35  H           1     -25.174  -6.624 -19.487  0.00  0.00     0.174 HD
HETATM   36  H           1     -23.222  -8.157 -17.004  0.00  0.00     0.174 HD
HETATM   37  H           1     -24.440  -7.831 -15.706  0.00  0.00     0.174 HD
ENDBRANCH  28  29
ENDBRANCH  27  28
ENDBRANCH  26  27
ENDBRANCH  25  26
BRANCH  25  38
HETATM   38  N           1     -29.589  -8.259 -18.670  0.00  0.00    -0.067 N 
HETATM   39  H           1     -28.577  -8.298 -18.929  0.00  0.00     0.275 HD
HETATM   40  H           1     -30.115  -7.722 -19.396  0.00  0.00     0.275 HD
HETATM   41  H           1     -29.970  -9.230 -18.611  0.00  0.00     0.275 HD
ENDBRANCH  25  38
ENDBRANCH   4  25
TORSDOF 15
ENDMDL
MODEL 4
REMARK VINA RESULT:      -7.1      7.045     10.803
REMARK  15 active torsions:
REMARK  status: ('A' for Active; 'I' for Inactive)
REMARK    1  A    between atoms: N_6  and  C_20 
REMARK    2  A    between atoms: N_6  and  C_7 
REMARK    3  A    between atoms: C_7  and  C_8 
REMARK    4  A    between atoms: C_8  and  C_38 
REMARK    5  A    between atoms: N_9  and  C_38 
REMARK       I    between atoms: N_9  and  C_28 
REMARK    6  A    between atoms: C_18  and  C_19 
REMARK    7  A    between atoms: C_19  and  C_20 
REMARK    8  A    between atoms: C_20  and  C_22 
REMARK    9  A    between atoms: C_28  and  C_29 
REMARK   10  A    between atoms: C_29  and  C_30 
REMARK   11  A    between atoms: C_29  and  N_37 
REMARK   12  A    between atoms: C_30  and  C_31 
REMARK   13  A    between atoms: C_31  and  C_32 
REMARK   14  A    between atoms: C_32  and  N_33 
REMARK       I    between atoms: N_33  and  C_34 
REMARK       I    between atoms: C_34  and  N_35 
REMARK   15  A    between atoms: C_38  and  C_39 
ROOT
HETATM    1  N           1     -26.895  -6.877 -16.348  0.00  0.00    -0.345 N 
HETATM    2  O           1     -27.296  -5.669 -18.183  0.00  0.00    -0.271 OA
HETATM    3  H           1     -27.241  -7.537 -15.663  0.00  0.00     0.163 HD
HETATM    4  C           1     -27.710  -6.456 -17.365  0.00  0.00     0.249 C 
ENDROOT
BRANCH   1   5
HETATM    5  C           1     -25.537  -6.378 -16.253  0.00  0.00     0.187 C 
BRANCH   5   6
HETATM    6  C           1     -25.138  -6.270 -14.787  0.00  0.00     0.066 C 
BRANCH   6   7
HETATM    7  C           1     -24.986  -4.802 -14.410  0.00  0.00     0.273 C 
BRANCH   7   8
HETATM    8  N           1     -23.897  -4.654 -13.482  0.00  0.00     0.098 N 
HETATM    9  H           1     -23.033  -4.974 -13.919  0.00  0.00     0.317 HD
BRANCH   8  10
HETATM   10  C           1     -23.784  -3.257 -13.159  0.00  0.00     0.325 C 
BRANCH  10  11
HETATM   11  C           1     -22.663  -3.060 -12.147  0.00  0.00     0.105 C 
BRANCH  11  12
HETATM   12  C           1     -23.165  -3.385 -10.775  0.00  0.00     0.028 A 
HETATM   13  N           1     -22.382  -3.838  -9.746  0.00  0.00    -0.355 N 
HETATM   14  C           1     -23.199  -3.997  -8.731  0.00  0.00     0.180 A 
ATOM     15  HN          1     -21.377  -4.016  -9.765  1.00  0.00     0.166 HD
HETATM   16  N           1     -24.482  -3.662  -9.065  0.00  0.00    -0.360 N 
HETATM   17  C           1     -24.475  -3.267 -10.374  0.00  0.00     0.114 A 
HETATM   18  H           1     -25.318  -3.701  -8.432  0.00  0.00     0.166 HD
ENDBRANCH  11  12
ENDBRANCH  10  11
BRANCH  10  19
HETATM   19  C           1     -23.474  -2.476 -14.413  0.00  0.00     0.207 C 
HETATM   20  O           1     -22.555  -2.850 -15.171  0.00  0.00    -0.646 OA
HETATM   21  O           1     -24.138  -1.454 -14.691  0.00  0.00    -0.646 OA
ENDBRANCH  10  19
ENDBRANCH   8  10
ENDBRANCH   7   8
ENDBRANCH   6   7
ENDBRANCH   5   6
BRANCH   5  22
HETATM   22  C           1     -24.602  -7.330 -16.959  0.00  0.00     0.196 C 
HETATM   23  O           1     -24.142  -8.320 -16.352  0.00  0.00    -0.646 OA
HETATM   24  O           1     -24.288  -7.129 -18.153  0.00  0.00    -0.646 OA
ENDBRANCH   5  22
ENDBRANCH   1   5
BRANCH   4  25
HETATM   25  C           1     -29.123  -6.974 -17.463  0.00  0.00     0.274 C 
BRANCH  25  26
HETATM   26  C           1     -30.035  -6.131 -16.581  0.00  0.00     0.044 C 
BRANCH  26  27
HETATM   27  C           1     -31.367  -5.917 -17.288  0.00  0.00     0.023 C 
BRANCH  27  28
HETATM   28  C           1     -31.878  -4.512 -16.994  0.00  0.00     0.138 C 
BRANCH  28  29
HETATM   29  N           1     -32.491  -4.482 -15.658  0.00  0.00    -0.227 N 
HETATM   30  H           1     -31.966  -4.860 -14.831  0.00  0.00     0.177 HD
HETATM   31  C           1     -33.652  -3.999 -15.505  0.00  0.00     0.665 C 
HETATM   32  N           1     -34.180  -3.973 -14.355  0.00  0.00    -0.235 N 
HETATM   33  N           1     -34.300  -3.531 -16.529  0.00  0.00    -0.235 N 
HETATM   34  H           1     -35.142  -3.573 -14.228  0.00  0.00     0.174 HD
HETATM   35  H           1     -33.655  -4.352 -13.528  0.00  0.00     0.174 HD
HETATM   36  H           1     -35.258  -3.133 -16.403  0.00  0.00     0.174 HD
HETATM   37  H           1     -33.865  -3.553 -17.479  0.00  0.00     0.174 HD
ENDBRANCH  28  29
ENDBRANCH  27  28
ENDBRANCH  26  27
ENDBRANCH  25  26
BRANCH  25  38
HETATM   38  N           1     -29.165  -8.402 -17.003  0.00  0.00    -0.067 N 
HETATM   39  H           1     -28.198  -8.719 -16.764  0.00  0.00     0.275 HD
HETATM   40  H           1     -29.551  -9.001 -17.766  0.00  0.00     0.275 HD
HETATM   41  H           1     -29.775  -8.478 -16.158  0.00  0.00     0.275 HD
ENDBRANCH  25  38
ENDBRANCH   4  25
TORSDOF 15
ENDMDL
MODEL 5
REMARK VINA RESULT:      -6.8      2.158      3.174
REMARK  15 active torsions:
REMARK  status: ('A' for Active; 'I' for Inactive)
REMARK    1  A    between atoms: N_6  and  C_20 
REMARK    2  A    between atoms: N_6  and  C_7 
REMARK    3  A    between atoms: C_7  and  C_8 
REMARK    4  A    between atoms: C_8  and  C_38 
REMARK    5  A    between atoms: N_9  and  C_38 
REMARK       I    between atoms: N_9  and  C_28 
REMARK    6  A    between atoms: C_18  and  C_19 
REMARK    7  A    between atoms: C_19  and  C_20 
REMARK    8  A    between atoms: C_20  and  C_22 
REMARK    9  A    between atoms: C_28  and  C_29 
REMARK   10  A    between atoms: C_29  and  C_30 
REMARK   11  A    between atoms: C_29  and  N_37 
REMARK   12  A    between atoms: C_30  and  C_31 
REMARK   13  A    between atoms: C_31  and  C_32 
REMARK   14  A    between atoms: C_32  and  N_33 
REMARK       I    between atoms: N_33  and  C_34 
REMARK       I    between atoms: C_34  and  N_35 
REMARK   15  A    between atoms: C_38  and  C_39 
ROOT
HETATM    1  N           1     -20.440  -5.940  -6.630  0.00  0.00    -0.345 N 
HETATM    2  O           1     -22.118  -5.529  -8.047  0.00  0.00    -0.271 OA
HETATM    3  H           1     -19.494  -5.733  -6.339  0.00  0.00     0.163 HD
HETATM    4  C           1     -20.988  -5.282  -7.700  0.00  0.00     0.249 C 
ENDROOT
BRANCH   1   5
HETATM    5  C           1     -21.218  -6.933  -5.916  0.00  0.00     0.187 C 
BRANCH   5   6
HETATM    6  C           1     -20.279  -7.949  -5.278  0.00  0.00     0.066 C 
BRANCH   6   7
HETATM    7  C           1     -21.068  -9.188  -4.876  0.00  0.00     0.273 C 
BRANCH   7   8
HETATM    8  N           1     -20.196 -10.121  -4.215  0.00  0.00     0.098 N 
HETATM    9  H           1     -19.350 -10.247  -4.772  0.00  0.00     0.317 HD
BRANCH   8  10
HETATM   10  C           1     -19.851  -9.566  -2.935  0.00  0.00     0.325 C 
BRANCH  10  11
HETATM   11  C           1     -20.775 -10.140  -1.868  0.00  0.00     0.105 C 
BRANCH  11  12
HETATM   12  C           1     -21.387  -9.022  -1.083  0.00  0.00     0.028 A 
HETATM   13  N           1     -21.866  -7.859  -1.627  0.00  0.00    -0.355 N 
HETATM   14  C           1     -22.312  -7.158  -0.610  0.00  0.00     0.180 A 
ATOM     15  HN          1     -21.874  -7.594  -2.612  1.00  0.00     0.166 HD
HETATM   16  N           1     -22.139  -7.824   0.571  0.00  0.00    -0.360 N 
HETATM   17  C           1     -21.547  -9.023   0.283  0.00  0.00     0.114 A 
HETATM   18  H           1     -22.412  -7.479   1.524  0.00  0.00     0.166 HD
ENDBRANCH  11  12
ENDBRANCH  10  11
BRANCH  10  19
HETATM   19  C           1     -18.421  -9.917  -2.604  0.00  0.00     0.207 C 
HETATM   20  O           1     -17.485  -9.242  -3.084  0.00  0.00    -0.646 OA
HETATM   21  O           1     -18.173 -10.882  -1.851  0.00  0.00    -0.646 OA
ENDBRANCH  10  19
ENDBRANCH   8  10
ENDBRANCH   7   8
ENDBRANCH   6   7
ENDBRANCH   5   6
BRANCH   5  22
HETATM   22  C           1     -22.031  -6.255  -4.840  0.00  0.00     0.196 C 
HETATM   23  O           1     -23.266  -6.125  -4.979  0.00  0.00    -0.646 OA
HETATM   24  O           1     -21.469  -5.825  -3.809  0.00  0.00    -0.646 OA
ENDBRANCH   5  22
ENDBRANCH   1   5
BRANCH   4  25
HETATM   25  C           1     -20.178  -4.249  -8.444  0.00  0.00     0.274 C 
BRANCH  25  26
HETATM   26  C           1     -20.057  -4.656  -9.907  0.00  0.00     0.044 C 
BRANCH  26  27
HETATM   27  C           1     -20.594  -3.538 -10.791  0.00  0.00     0.023 C 
BRANCH  27  28
HETATM   28  C           1     -21.801  -4.043 -11.570  0.00  0.00     0.138 C 
BRANCH  28  29
HETATM   29  N           1     -23.006  -3.325 -11.127  0.00  0.00    -0.227 N 
HETATM   30  H           1     -23.069  -2.284 -11.244  0.00  0.00     0.177 HD
HETATM   31  C           1     -23.967  -3.964 -10.606  0.00  0.00     0.665 C 
HETATM   32  N           1     -25.004  -3.346 -10.225  0.00  0.00    -0.235 N 
HETATM   33  N           1     -23.888  -5.253 -10.463  0.00  0.00    -0.235 N 
HETATM   34  H           1     -25.801  -3.876  -9.793  0.00  0.00     0.174 HD
HETATM   35  H           1     -25.068  -2.305 -10.341  0.00  0.00     0.174 HD
HETATM   36  H           1     -24.682  -5.780 -10.033  0.00  0.00     0.174 HD
HETATM   37  H           1     -23.032  -5.763 -10.777  0.00  0.00     0.174 HD
ENDBRANCH  28  29
ENDBRANCH  27  28
ENDBRANCH  26  27
ENDBRANCH  25  26
BRANCH  25  38
HETATM   38  N           1     -18.809  -4.155  -7.837  0.00  0.00    -0.067 N 
HETATM   39  H           1     -18.359  -5.098  -7.847  0.00  0.00     0.275 HD
HETATM   40  H           1     -18.888  -3.816  -6.853  0.00  0.00     0.275 HD
HETATM   41  H           1     -18.228  -3.486  -8.390  0.00  0.00     0.275 HD
ENDBRANCH  25  38
ENDBRANCH   4  25
TORSDOF 15
ENDMDL
MODEL 6
REMARK VINA RESULT:      -6.8      2.452      4.448
REMARK  15 active torsions:
REMARK  status: ('A' for Active; 'I' for Inactive)
REMARK    1  A    between atoms: N_6  and  C_20 
REMARK    2  A    between atoms: N_6  and  C_7 
REMARK    3  A    between atoms: C_7  and  C_8 
REMARK    4  A    between atoms: C_8  and  C_38 
REMARK    5  A    between atoms: N_9  and  C_38 
REMARK       I    between atoms: N_9  and  C_28 
REMARK    6  A    between atoms: C_18  and  C_19 
REMARK    7  A    between atoms: C_19  and  C_20 
REMARK    8  A    between atoms: C_20  and  C_22 
REMARK    9  A    between atoms: C_28  and  C_29 
REMARK   10  A    between atoms: C_29  and  C_30 
REMARK   11  A    between atoms: C_29  and  N_37 
REMARK   12  A    between atoms: C_30  and  C_31 
REMARK   13  A    between atoms: C_31  and  C_32 
REMARK   14  A    between atoms: C_32  and  N_33 
REMARK       I    between atoms: N_33  and  C_34 
REMARK       I    between atoms: C_34  and  N_35 
REMARK   15  A    between atoms: C_38  and  C_39 
ROOT
HETATM    1  N           1     -20.097  -7.201  -5.611  0.00  0.00    -0.345 N 
HETATM    2  O           1     -21.086  -5.898  -4.089  0.00  0.00    -0.271 OA
HETATM    3  H           1     -19.733  -7.298  -6.550  0.00  0.00     0.163 HD
HETATM    4  C           1     -20.651  -6.014  -5.210  0.00  0.00     0.249 C 
ENDROOT
BRANCH   1   5
HETATM    5  C           1     -20.033  -8.318  -4.688  0.00  0.00     0.187 C 
BRANCH   5   6
HETATM    6  C           1     -21.264  -9.197  -4.870  0.00  0.00     0.066 C 
BRANCH   6   7
HETATM    7  C           1     -21.904  -9.460  -3.513  0.00  0.00     0.273 C 
BRANCH   7   8
HETATM    8  N           1     -21.449  -8.478  -2.567  0.00  0.00     0.098 N 
HETATM    9  H           1     -21.857  -7.571  -2.797  0.00  0.00     0.317 HD
BRANCH   8  10
HETATM   10  C           1     -21.892  -8.888  -1.263  0.00  0.00     0.325 C 
BRANCH  10  11
HETATM   11  C           1     -20.695  -9.352  -0.443  0.00  0.00     0.105 C 
BRANCH  11  12
HETATM   12  C           1     -20.823 -10.814  -0.152  0.00  0.00     0.028 A 
HETATM   13  N           1     -21.848 -11.379   0.561  0.00  0.00    -0.355 N 
HETATM   14  C           1     -21.586 -12.666   0.585  0.00  0.00     0.180 A 
ATOM     15  HN          1     -22.644 -10.902   0.984  1.00  0.00     0.166 HD
HETATM   16  N           1     -20.431 -12.953  -0.087  0.00  0.00    -0.360 N 
HETATM   17  C           1     -19.930 -11.775  -0.566  0.00  0.00     0.114 A 
HETATM   18  H           1     -20.006 -13.905  -0.212  0.00  0.00     0.166 HD
ENDBRANCH  11  12
ENDBRANCH  10  11
BRANCH  10  19
HETATM   19  C           1     -22.557  -7.725  -0.569  0.00  0.00     0.207 C 
HETATM   20  O           1     -22.581  -6.602  -1.116  0.00  0.00    -0.646 OA
HETATM   21  O           1     -23.084  -7.885   0.553  0.00  0.00    -0.646 OA
ENDBRANCH  10  19
ENDBRANCH   8  10
ENDBRANCH   7   8
ENDBRANCH   6   7
ENDBRANCH   5   6
BRANCH   5  22
HETATM   22  C           1     -18.790  -9.128  -4.968  0.00  0.00     0.196 C 
HETATM   23  O           1     -18.579  -9.571  -6.117  0.00  0.00    -0.646 OA
HETATM   24  O           1     -17.973  -9.356  -4.050  0.00  0.00    -0.646 OA
ENDBRANCH   5  22
ENDBRANCH   1   5
BRANCH   4  25
HETATM   25  C           1     -20.719  -4.852  -6.171  0.00  0.00     0.274 C 
BRANCH  25  26
HETATM   26  C           1     -22.066  -4.860  -6.883  0.00  0.00     0.044 C 
BRANCH  26  27
HETATM   27  C           1     -21.843  -4.872  -8.390  0.00  0.00     0.023 C 
BRANCH  27  28
HETATM   28  C           1     -22.469  -3.627  -9.005  0.00  0.00     0.138 C 
BRANCH  28  29
HETATM   29  N           1     -23.926  -3.665  -8.814  0.00  0.00    -0.227 N 
HETATM   30  H           1     -24.326  -3.867  -7.865  0.00  0.00     0.177 HD
HETATM   31  C           1     -24.699  -3.452  -9.795  0.00  0.00     0.665 C 
HETATM   32  N           1     -25.953  -3.484  -9.631  0.00  0.00    -0.235 N 
HETATM   33  N           1     -24.203  -3.201 -10.970  0.00  0.00    -0.235 N 
HETATM   34  H           1     -26.594  -3.308 -10.444  0.00  0.00     0.174 HD
HETATM   35  H           1     -26.354  -3.686  -8.681  0.00  0.00     0.174 HD
HETATM   36  H           1     -24.840  -3.026 -11.779  0.00  0.00     0.174 HD
HETATM   37  H           1     -23.167  -3.175 -11.105  0.00  0.00     0.174 HD
ENDBRANCH  28  29
ENDBRANCH  27  28
ENDBRANCH  26  27
ENDBRANCH  25  26
BRANCH  25  38
HETATM   38  N           1     -19.619  -4.975  -7.183  0.00  0.00    -0.067 N 
HETATM   39  H           1     -18.737  -5.267  -6.704  0.00  0.00     0.275 HD
HETATM   40  H           1     -19.474  -4.053  -7.652  0.00  0.00     0.275 HD
HETATM   41  H           1     -19.880  -5.691  -7.898  0.00  0.00     0.275 HD
ENDBRANCH  25  38
ENDBRANCH   4  25
TORSDOF 15
ENDMDL
MODEL 7
REMARK VINA RESULT:      -6.7      7.524     11.783
REMARK  15 active torsions:
REMARK  status: ('A' for Active; 'I' for Inactive)
REMARK    1  A    between atoms: N_6  and  C_20 
REMARK    2  A    between atoms: N_6  and  C_7 
REMARK    3  A    between atoms: C_7  and  C_8 
REMARK    4  A    between atoms: C_8  and  C_38 
REMARK    5  A    between atoms: N_9  and  C_38 
REMARK       I    between atoms: N_9  and  C_28 
REMARK    6  A    between atoms: C_18  and  C_19 
REMARK    7  A    between atoms: C_19  and  C_20 
REMARK    8  A    between atoms: C_20  and  C_22 
REMARK    9  A    between atoms: C_28  and  C_29 
REMARK   10  A    between atoms: C_29  and  C_30 
REMARK   11  A    between atoms: C_29  and  N_37 
REMARK   12  A    between atoms: C_30  and  C_31 
REMARK   13  A    between atoms: C_31  and  C_32 
REMARK   14  A    between atoms: C_32  and  N_33 
REMARK       I    between atoms: N_33  and  C_34 
REMARK       I    between atoms: C_34  and  N_35 
REMARK   15  A    between atoms: C_38  and  C_39 
ROOT
HETATM    1  N           1     -27.134  -6.869 -17.023  0.00  0.00    -0.345 N 
HETATM    2  O           1     -27.342  -5.532 -18.801  0.00  0.00    -0.271 OA
HETATM    3  H           1     -27.534  -7.598 -16.447  0.00  0.00     0.163 HD
HETATM    4  C           1     -27.821  -6.403 -18.113  0.00  0.00     0.249 C 
ENDROOT
BRANCH   1   5
HETATM    5  C           1     -25.834  -6.317 -16.695  0.00  0.00     0.187 C 
BRANCH   5   6
HETATM    6  C           1     -25.711  -6.173 -15.184  0.00  0.00     0.066 C 
BRANCH   6   7
HETATM    7  C           1     -24.622  -5.160 -14.857  0.00  0.00     0.273 C 
BRANCH   7   8
HETATM    8  N           1     -24.547  -4.977 -13.432  0.00  0.00     0.098 N 
HETATM    9  H           1     -24.199  -5.833 -12.998  0.00  0.00     0.317 HD
BRANCH   8  10
HETATM   10  C           1     -23.628  -3.901 -13.177  0.00  0.00     0.325 C 
BRANCH  10  11
HETATM   11  C           1     -24.392  -2.584 -13.125  0.00  0.00     0.105 C 
BRANCH  11  12
HETATM   12  C           1     -23.946  -1.702 -14.249  0.00  0.00     0.028 A 
HETATM   13  N           1     -24.527  -0.506 -14.578  0.00  0.00    -0.355 N 
HETATM   14  C           1     -23.844  -0.060 -15.607  0.00  0.00     0.180 A 
ATOM     15  HN          1     -25.321  -0.057 -14.121  1.00  0.00     0.166 HD
HETATM   16  N           1     -22.843  -0.923 -15.955  0.00  0.00    -0.360 N 
HETATM   17  C           1     -22.896  -1.982 -15.092  0.00  0.00     0.114 A 
HETATM   18  H           1     -22.159  -0.796 -16.741  0.00  0.00     0.166 HD
ENDBRANCH  11  12
ENDBRANCH  10  11
BRANCH  10  19
HETATM   19  C           1     -22.936  -4.135 -11.856  0.00  0.00     0.207 C 
HETATM   20  O           1     -21.699  -3.988 -11.766  0.00  0.00    -0.646 OA
HETATM   21  O           1     -23.601  -4.475 -10.855  0.00  0.00    -0.646 OA
ENDBRANCH  10  19
ENDBRANCH   8  10
ENDBRANCH   7   8
ENDBRANCH   6   7
ENDBRANCH   5   6
BRANCH   5  22
HETATM   22  C           1     -24.754  -7.241 -17.202  0.00  0.00     0.196 C 
HETATM   23  O           1     -24.298  -7.095 -18.357  0.00  0.00    -0.646 OA
HETATM   24  O           1     -24.314  -8.151 -16.467  0.00  0.00    -0.646 OA
ENDBRANCH   5  22
ENDBRANCH   1   5
BRANCH   4  25
HETATM   25  C           1     -29.173  -6.977 -18.453  0.00  0.00     0.274 C 
BRANCH  25  26
HETATM   26  C           1     -29.918  -7.317 -17.169  0.00  0.00     0.044 C 
BRANCH  26  27
HETATM   27  C           1     -31.320  -6.722 -17.222  0.00  0.00     0.023 C 
BRANCH  27  28
HETATM   28  C           1     -31.319  -5.359 -16.543  0.00  0.00     0.138 C 
BRANCH  28  29
HETATM   29  N           1     -32.642  -4.735 -16.693  0.00  0.00    -0.227 N 
HETATM   30  H           1     -33.498  -5.228 -16.338  0.00  0.00     0.177 HD
HETATM   31  C           1     -32.749  -3.603 -17.250  0.00  0.00     0.665 C 
HETATM   32  N           1     -33.887  -3.066 -17.379  0.00  0.00    -0.235 N 
HETATM   33  N           1     -31.688  -2.993 -17.689  0.00  0.00    -0.235 N 
HETATM   34  H           1     -33.975  -2.127 -17.841  0.00  0.00     0.174 HD
HETATM   35  H           1     -34.744  -3.559 -17.024  0.00  0.00     0.174 HD
HETATM   36  H           1     -31.776  -2.059 -18.149  0.00  0.00     0.174 HD
HETATM   37  H           1     -30.748  -3.437 -17.583  0.00  0.00     0.174 HD
ENDBRANCH  28  29
ENDBRANCH  27  28
ENDBRANCH  26  27
ENDBRANCH  25  26
BRANCH  25  38
HETATM   38  N           1     -28.997  -8.221 -19.272  0.00  0.00    -0.067 N 
HETATM   39  H           1     -28.419  -8.909 -18.739  0.00  0.00     0.275 HD
HETATM   40  H           1     -28.518  -7.982 -20.169  0.00  0.00     0.275 HD
HETATM   41  H           1     -29.933  -8.639 -19.478  0.00  0.00     0.275 HD
ENDBRANCH  25  38
ENDBRANCH   4  25
TORSDOF 15
ENDMDL
MODEL 8
REMARK VINA RESULT:      -6.6      2.671      5.033
REMARK  15 active torsions:
REMARK  status: ('A' for Active; 'I' for Inactive)
REMARK    1  A    between atoms: N_6  and  C_20 
REMARK    2  A    between atoms: N_6  and  C_7 
REMARK    3  A    between atoms: C_7  and  C_8 
REMARK    4  A    between atoms: C_8  and  C_38 
REMARK    5  A    between atoms: N_9  and  C_38 
REMARK       I    between atoms: N_9  and  C_28 
REMARK    6  A    between atoms: C_18  and  C_19 
REMARK    7  A    between atoms: C_19  and  C_20 
REMARK    8  A    between atoms: C_20  and  C_22 
REMARK    9  A    between atoms: C_28  and  C_29 
REMARK   10  A    between atoms: C_29  and  C_30 
REMARK   11  A    between atoms: C_29  and  N_37 
REMARK   12  A    between atoms: C_30  and  C_31 
REMARK   13  A    between atoms: C_31  and  C_32 
REMARK   14  A    between atoms: C_32  and  N_33 
REMARK       I    between atoms: N_33  and  C_34 
REMARK       I    between atoms: C_34  and  N_35 
REMARK   15  A    between atoms: C_38  and  C_39 
ROOT
HETATM    1  N           1     -20.799  -7.835  -4.672  0.00  0.00    -0.345 N 
HETATM    2  O           1     -19.528  -7.217  -6.402  0.00  0.00    -0.271 OA
HETATM    3  H           1     -21.650  -7.698  -4.141  0.00  0.00     0.163 HD
HETATM    4  C           1     -20.543  -7.053  -5.767  0.00  0.00     0.249 C 
ENDROOT
BRANCH   1   5
HETATM    5  C           1     -19.852  -8.858  -4.275  0.00  0.00     0.187 C 
BRANCH   5   6
HETATM    6  C           1     -19.762  -8.902  -2.755  0.00  0.00     0.066 C 
BRANCH   6   7
HETATM    7  C           1     -20.818  -7.982  -2.157  0.00  0.00     0.273 C 
BRANCH   7   8
HETATM    8  N           1     -20.886  -8.187  -0.735  0.00  0.00     0.098 N 
HETATM    9  H           1     -21.411  -7.425  -0.307  0.00  0.00     0.317 HD
BRANCH   8  10
HETATM   10  C           1     -21.569  -9.431  -0.504  0.00  0.00     0.325 C 
BRANCH  10  11
HETATM   11  C           1     -20.824 -10.230   0.558  0.00  0.00     0.105 C 
BRANCH  11  12
HETATM   12  C           1     -20.142 -11.398  -0.083  0.00  0.00     0.028 A 
HETATM   13  N           1     -20.619 -12.078  -1.172  0.00  0.00    -0.355 N 
HETATM   14  C           1     -19.733 -13.017  -1.411  0.00  0.00     0.180 A 
ATOM     15  HN          1     -21.480 -11.894  -1.688  1.00  0.00     0.166 HD
HETATM   16  N           1     -18.701 -12.970  -0.517  0.00  0.00    -0.360 N 
HETATM   17  C           1     -18.949 -11.935   0.342  0.00  0.00     0.114 A 
HETATM   18  H           1     -17.870 -13.610  -0.495  0.00  0.00     0.166 HD
ENDBRANCH  11  12
ENDBRANCH  10  11
BRANCH  10  19
HETATM   19  C           1     -22.974  -9.152  -0.030  0.00  0.00     0.207 C 
HETATM   20  O           1     -23.287  -8.006   0.357  0.00  0.00    -0.646 OA
HETATM   21  O           1     -23.824 -10.068  -0.024  0.00  0.00    -0.646 OA
ENDBRANCH  10  19
ENDBRANCH   8  10
ENDBRANCH   7   8
ENDBRANCH   6   7
ENDBRANCH   5   6
BRANCH   5  22
HETATM   22  C           1     -20.317 -10.199  -4.789  0.00  0.00     0.196 C 
HETATM   23  O           1     -20.932 -10.980  -4.032  0.00  0.00    -0.646 OA
HETATM   24  O           1     -20.087 -10.528  -5.974  0.00  0.00    -0.646 OA
ENDBRANCH   5  22
ENDBRANCH   1   5
BRANCH   4  25
HETATM   25  C           1     -21.528  -5.988  -6.180  0.00  0.00     0.274 C 
BRANCH  25  26
HETATM   26  C           1     -20.826  -4.637  -6.226  0.00  0.00     0.044 C 
BRANCH  26  27
HETATM   27  C           1     -21.590  -3.698  -7.151  0.00  0.00     0.023 C 
BRANCH  27  28
HETATM   28  C           1     -22.254  -4.507  -8.258  0.00  0.00     0.138 C 
BRANCH  28  29
HETATM   29  N           1     -23.630  -4.030  -8.456  0.00  0.00    -0.227 N 
HETATM   30  H           1     -24.170  -3.635  -7.647  0.00  0.00     0.177 HD
HETATM   31  C           1     -24.164  -4.094  -9.603  0.00  0.00     0.665 C 
HETATM   32  N           1     -25.349  -3.683  -9.773  0.00  0.00    -0.235 N 
HETATM   33  N           1     -23.494  -4.582 -10.604  0.00  0.00    -0.235 N 
HETATM   34  H           1     -25.791  -3.736 -10.724  0.00  0.00     0.174 HD
HETATM   35  H           1     -25.889  -3.288  -8.964  0.00  0.00     0.174 HD
HETATM   36  H           1     -23.935  -4.635 -11.550  0.00  0.00     0.174 HD
HETATM   37  H           1     -22.516  -4.922 -10.463  0.00  0.00     0.174 HD
ENDBRANCH  28  29
ENDBRANCH  27  28
ENDBRANCH  26  27
ENDBRANCH  25  26
BRANCH  25  38
HETATM   38  N           1     -22.651  -5.933  -5.186  0.00  0.00    -0.067 N 
HETATM   39  H           1     -22.516  -6.679  -4.468  0.00  0.00     0.275 HD
HETATM   40  H           1     -23.559  -6.083  -5.680  0.00  0.00     0.275 HD
HETATM   41  H           1     -22.659  -4.998  -4.720  0.00  0.00     0.275 HD
ENDBRANCH  25  38
ENDBRANCH   4  25
TORSDOF 15
ENDMDL
MODEL 9
REMARK VINA RESULT:      -6.5      3.000      4.779
REMARK  15 active torsions:
REMARK  status: ('A' for Active; 'I' for Inactive)
REMARK    1  A    between atoms: N_6  and  C_20 
REMARK    2  A    between atoms: N_6  and  C_7 
REMARK    3  A    between atoms: C_7  and  C_8 
REMARK    4  A    between atoms: C_8  and  C_38 
REMARK    5  A    between atoms: N_9  and  C_38 
REMARK       I    between atoms: N_9  and  C_28 
REMARK    6  A    between atoms: C_18  and  C_19 
REMARK    7  A    between atoms: C_19  and  C_20 
REMARK    8  A    between atoms: C_20  and  C_22 
REMARK    9  A    between atoms: C_28  and  C_29 
REMARK   10  A    between atoms: C_29  and  C_30 
REMARK   11  A    between atoms: C_29  and  N_37 
REMARK   12  A    between atoms: C_30  and  C_31 
REMARK   13  A    between atoms: C_31  and  C_32 
REMARK   14  A    between atoms: C_32  and  N_33 
REMARK       I    between atoms: N_33  and  C_34 
REMARK       I    between atoms: C_34  and  N_35 
REMARK   15  A    between atoms: C_38  and  C_39 
ROOT
HETATM    1  N           1     -21.149  -6.790  -4.034  0.00  0.00    -0.345 N 
HETATM    2  O           1     -22.952  -6.167  -5.197  0.00  0.00    -0.271 OA
HETATM    3  H           1     -20.141  -6.782  -3.945  0.00  0.00     0.163 HD
HETATM    4  C           1     -21.748  -6.157  -5.091  0.00  0.00     0.249 C 
ENDROOT
BRANCH   1   5
HETATM    5  C           1     -21.960  -7.471  -3.043  0.00  0.00     0.187 C 
BRANCH   5   6
HETATM    6  C           1     -21.304  -8.796  -2.676  0.00  0.00     0.066 C 
BRANCH   6   7
HETATM    7  C           1     -21.973  -9.925  -3.450  0.00  0.00     0.273 C 
BRANCH   7   8
HETATM    8  N           1     -21.077 -11.046  -3.535  0.00  0.00     0.098 N 
HETATM    9  H           1     -21.427 -11.709  -4.227  0.00  0.00     0.317 HD
BRANCH   8  10
HETATM   10  C           1     -19.793 -10.550  -3.952  0.00  0.00     0.325 C 
BRANCH  10  11
HETATM   11  C           1     -18.744 -11.639  -3.765  0.00  0.00     0.105 C 
BRANCH  11  12
HETATM   12  C           1     -17.448 -11.018  -3.346  0.00  0.00     0.028 A 
HETATM   13  N           1     -17.284  -9.694  -3.030  0.00  0.00    -0.355 N 
HETATM   14  C           1     -16.015  -9.566  -2.721  0.00  0.00     0.180 A 
ATOM     15  HN          1     -17.997  -8.964  -3.035  1.00  0.00     0.166 HD
HETATM   16  N           1     -15.352 -10.756  -2.825  0.00  0.00    -0.360 N 
HETATM   17  C           1     -16.259 -11.698  -3.225  0.00  0.00     0.114 A 
HETATM   18  H           1     -14.333 -10.918  -2.632  0.00  0.00     0.166 HD
ENDBRANCH  11  12
ENDBRANCH  10  11
BRANCH  10  19
HETATM   19  C           1     -19.856 -10.156  -5.407  0.00  0.00     0.207 C 
HETATM   20  O           1     -19.578  -8.987  -5.750  0.00  0.00    -0.646 OA
HETATM   21  O           1     -20.185 -10.999  -6.269  0.00  0.00    -0.646 OA
ENDBRANCH  10  19
ENDBRANCH   8  10
ENDBRANCH   7   8
ENDBRANCH   6   7
ENDBRANCH   5   6
BRANCH   5  22
HETATM   22  C           1     -22.075  -6.608  -1.810  0.00  0.00     0.196 C 
HETATM   23  O           1     -22.315  -7.132  -0.702  0.00  0.00    -0.646 OA
HETATM   24  O           1     -21.930  -5.369  -1.898  0.00  0.00    -0.646 OA
ENDBRANCH   5  22
ENDBRANCH   1   5
BRANCH   4  25
HETATM   25  C           1     -20.904  -5.450  -6.122  0.00  0.00     0.274 C 
BRANCH  25  26
HETATM   26  C           1     -21.770  -4.468  -6.900  0.00  0.00     0.044 C 
BRANCH  26  27
HETATM   27  C           1     -21.673  -4.774  -8.389  0.00  0.00     0.023 C 
BRANCH  27  28
HETATM   28  C           1     -22.334  -3.654  -9.182  0.00  0.00     0.138 C 
BRANCH  28  29
HETATM   29  N           1     -23.780  -3.655  -8.919  0.00  0.00    -0.227 N 
HETATM   30  H           1     -24.137  -3.802  -7.943  0.00  0.00     0.177 HD
HETATM   31  C           1     -24.597  -3.476  -9.871  0.00  0.00     0.665 C 
HETATM   32  N           1     -25.842  -3.476  -9.644  0.00  0.00    -0.235 N 
HETATM   33  N           1     -24.156  -3.292 -11.079  0.00  0.00    -0.235 N 
HETATM   34  H           1     -26.519  -3.328 -10.433  0.00  0.00     0.174 HD
HETATM   35  H           1     -26.199  -3.624  -8.668  0.00  0.00     0.174 HD
HETATM   36  H           1     -24.829  -3.145 -11.864  0.00  0.00     0.174 HD
HETATM   37  H           1     -23.128  -3.293 -11.266  0.00  0.00     0.174 HD
ENDBRANCH  28  29
ENDBRANCH  27  28
ENDBRANCH  26  27
ENDBRANCH  25  26
BRANCH  25  38
HETATM   38  N           1     -20.321  -6.458  -7.068  0.00  0.00    -0.067 N 
HETATM   39  H           1     -21.075  -7.099  -7.401  0.00  0.00     0.275 HD
HETATM   40  H           1     -19.584  -7.011  -6.574  0.00  0.00     0.275 HD
HETATM   41  H           1     -19.896  -5.965  -7.885  0.00  0.00     0.275 HD
ENDBRANCH  25  38
ENDBRANCH   4  25
TORSDOF 15
ENDMDL
