MODEL 1
REMARK VINA RESULT:      -7.8      0.000      0.000
REMARK  9 active torsions:
REMARK  status: ('A' for Active; 'I' for Inactive)
REMARK       I    between atoms: C_1  and  N_28 
REMARK    1  A    between atoms: C_1  and  C_4 
REMARK    2  A    between atoms: C_4  and  C_13 
REMARK    3  A    between atoms: C_4  and  N_24 
REMARK    4  A    between atoms: C_5  and  O_22 
REMARK    5  A    between atoms: C_6  and  C_11 
REMARK    6  A    between atoms: C_6  and  C_7 
REMARK    7  A    between atoms: C_6  and  N_28 
REMARK    8  A    between atoms: C_11  and  C_25 
REMARK    9  A    between atoms: C_13  and  C_20 
REMARK       I    between atoms: N_16  and  C_25 
ROOT
HETATM    1  C           1     -36.441  -0.344 -12.521  0.00  0.00     0.249 C 
HETATM    2  H           1     -34.615   0.136 -13.371  0.00  0.00     0.163 HD
HETATM    3  O           1     -37.623  -0.482 -12.728  0.00  0.00    -0.271 OA
HETATM    4  N           1     -35.605   0.020 -13.544  0.00  0.00    -0.344 N 
ENDROOT
BRANCH   1   5
HETATM    5  C           1     -35.885  -0.573 -11.137  0.00  0.00     0.278 C 
BRANCH   5   6
HETATM    6  C           1     -36.299  -1.953 -10.644  0.00  0.00     0.081 C 
BRANCH   6   7
HETATM    7  C           1     -35.206  -2.935 -10.933  0.00  0.00    -0.056 A 
HETATM    8  C           1     -33.916  -2.482 -11.205  0.00  0.00     0.010 A 
HETATM    9  C           1     -32.898  -3.398 -11.473  0.00  0.00     0.037 A 
HETATM   10  C           1     -33.170  -4.765 -11.468  0.00  0.00     0.065 A 
HETATM   11  C           1     -34.461  -5.217 -11.194  0.00  0.00     0.037 A 
HETATM   12  C           1     -35.479  -4.303 -10.926  0.00  0.00     0.010 A 
BRANCH  10  13
HETATM   13  O           1     -32.181  -5.654 -11.728  0.00  0.00    -0.361 OA
HETATM   14  H           1     -31.773  -5.409 -12.575  0.00  0.00     0.217 HD
ENDBRANCH  10  13
ENDBRANCH   6   7
ENDBRANCH   5   6
BRANCH   5  15
HETATM   15  N           1     -36.421   0.472 -10.205  0.00  0.00    -0.066 N 
HETATM   16  H           1     -35.884   0.448  -9.309  0.00  0.00     0.275 HD
HETATM   17  H           1     -36.322   1.416 -10.644  0.00  0.00     0.275 HD
HETATM   18  H           1     -37.430   0.282 -10.012  0.00  0.00     0.275 HD
ENDBRANCH   5  15
ENDBRANCH   1   5
BRANCH   4  19
HETATM   19  C           1     -36.140   0.240 -14.874  0.00  0.00     0.194 C 
BRANCH  19  20
HETATM   20  C           1     -35.580   1.539 -15.438  0.00  0.00     0.138 C 
BRANCH  20  21
HETATM   21  C           1     -36.648   2.241 -16.239  0.00  0.00     0.217 C 
HETATM   22  O           1     -36.355   3.173 -16.950  0.00  0.00    -0.274 OA
HETATM   23  N           1     -37.950   1.824 -16.159  0.00  0.00    -0.370 N 
HETATM   24  H           1     -38.665   2.296 -16.697  0.00  0.00     0.159 HD
HETATM   25  H           1     -38.194   1.044 -15.564  0.00  0.00     0.159 HD
ENDBRANCH  20  21
ENDBRANCH  19  20
BRANCH  19  26
HETATM   26  C           1     -35.745  -0.909 -15.769  0.00  0.00     0.197 C 
HETATM   27  O           1     -36.134  -0.937 -16.957  0.00  0.00    -0.646 OA
HETATM   28  O           1     -35.029  -1.832 -15.324  0.00  0.00    -0.646 OA
ENDBRANCH  19  26
ENDBRANCH   4  19
TORSDOF 9
ENDMDL
MODEL 2
REMARK VINA RESULT:      -7.4     13.868     17.578
REMARK  9 active torsions:
REMARK  status: ('A' for Active; 'I' for Inactive)
REMARK       I    between atoms: C_1  and  N_28 
REMARK    1  A    between atoms: C_1  and  C_4 
REMARK    2  A    between atoms: C_4  and  C_13 
REMARK    3  A    between atoms: C_4  and  N_24 
REMARK    4  A    between atoms: C_5  and  O_22 
REMARK    5  A    between atoms: C_6  and  C_11 
REMARK    6  A    between atoms: C_6  and  C_7 
REMARK    7  A    between atoms: C_6  and  N_28 
REMARK    8  A    between atoms: C_11  and  C_25 
REMARK    9  A    between atoms: C_13  and  C_20 
REMARK       I    between atoms: N_16  and  C_25 
ROOT
HETATM    1  C           1     -21.328  -5.653  -5.705  0.00  0.00     0.249 C 
HETATM    2  H           1     -22.320  -7.462  -5.544  0.00  0.00     0.163 HD
HETATM    3  O           1     -20.440  -4.967  -5.255  0.00  0.00    -0.271 OA
HETATM    4  N           1     -21.577  -6.888  -5.167  0.00  0.00    -0.344 N 
ENDROOT
BRANCH   1   5
HETATM    5  C           1     -22.161  -5.149  -6.857  0.00  0.00     0.278 C 
BRANCH   5   6
HETATM    6  C           1     -21.573  -3.843  -7.377  0.00  0.00     0.081 C 
BRANCH   6   7
HETATM    7  C           1     -21.630  -3.831  -8.873  0.00  0.00    -0.056 A 
HETATM    8  C           1     -22.839  -3.584  -9.523  0.00  0.00     0.010 A 
HETATM    9  C           1     -22.890  -3.571 -10.917  0.00  0.00     0.037 A 
HETATM   10  C           1     -21.734  -3.806 -11.660  0.00  0.00     0.065 A 
HETATM   11  C           1     -20.525  -4.052 -11.009  0.00  0.00     0.037 A 
HETATM   12  C           1     -20.473  -4.064  -9.616  0.00  0.00     0.010 A 
BRANCH  10  13
HETATM   13  O           1     -21.784  -3.794 -13.015  0.00  0.00    -0.361 OA
HETATM   14  H           1     -22.702  -3.612 -13.278  0.00  0.00     0.217 HD
ENDBRANCH  10  13
ENDBRANCH   6   7
ENDBRANCH   5   6
BRANCH   5  15
HETATM   15  N           1     -23.566  -4.914  -6.392  0.00  0.00    -0.066 N 
HETATM   16  H           1     -23.649  -3.945  -6.009  0.00  0.00     0.275 HD
HETATM   17  H           1     -24.224  -5.026  -7.197  0.00  0.00     0.275 HD
HETATM   18  H           1     -23.807  -5.605  -5.647  0.00  0.00     0.275 HD
ENDBRANCH   5  15
ENDBRANCH   1   5
BRANCH   4  19
HETATM   19  C           1     -20.776  -7.372  -4.060  0.00  0.00     0.194 C 
BRANCH  19  20
HETATM   20  C           1     -21.692  -7.913  -2.969  0.00  0.00     0.138 C 
BRANCH  20  21
HETATM   21  C           1     -21.997  -6.818  -1.978  0.00  0.00     0.217 C 
HETATM   22  O           1     -21.971  -5.662  -2.329  0.00  0.00    -0.274 OA
HETATM   23  N           1     -22.301  -7.133  -0.680  0.00  0.00    -0.370 N 
HETATM   24  H           1     -22.505  -6.397  -0.017  0.00  0.00     0.159 HD
HETATM   25  H           1     -22.322  -8.101  -0.387  0.00  0.00     0.159 HD
ENDBRANCH  20  21
ENDBRANCH  19  20
BRANCH  19  26
HETATM   26  C           1     -19.865  -8.473  -4.543  0.00  0.00     0.197 C 
HETATM   27  O           1     -18.894  -8.832  -3.842  0.00  0.00    -0.646 OA
HETATM   28  O           1     -20.080  -9.025  -5.643  0.00  0.00    -0.646 OA
ENDBRANCH  19  26
ENDBRANCH   4  19
TORSDOF 9
ENDMDL
MODEL 3
REMARK VINA RESULT:      -7.4     12.486     15.172
REMARK  9 active torsions:
REMARK  status: ('A' for Active; 'I' for Inactive)
REMARK       I    between atoms: C_1  and  N_28 
REMARK    1  A    between atoms: C_1  and  C_4 
REMARK    2  A    between atoms: C_4  and  C_13 
REMARK    3  A    between atoms: C_4  and  N_24 
REMARK    4  A    between atoms: C_5  and  O_22 
REMARK    5  A    between atoms: C_6  and  C_11 
REMARK    6  A    between atoms: C_6  and  C_7 
REMARK    7  A    between atoms: C_6  and  N_28 
REMARK    8  A    between atoms: C_11  and  C_25 
REMARK    9  A    between atoms: C_13  and  C_20 
REMARK       I    between atoms: N_16  and  C_25 
ROOT
HETATM    1  C           1     -22.203  -4.212  -7.946  0.00  0.00     0.249 C 
HETATM    2  H           1     -24.128  -4.762  -8.472  0.00  0.00     0.163 HD
HETATM    3  O           1     -21.204  -3.637  -8.308  0.00  0.00    -0.271 OA
HETATM    4  N           1     -23.292  -4.280  -8.775  0.00  0.00    -0.344 N 
ENDROOT
BRANCH   1   5
HETATM    5  C           1     -22.252  -4.855  -6.582  0.00  0.00     0.278 C 
BRANCH   5   6
HETATM    6  C           1     -21.377  -6.102  -6.576  0.00  0.00     0.081 C 
BRANCH   6   7
HETATM    7  C           1     -21.385  -6.711  -5.209  0.00  0.00    -0.056 A 
HETATM    8  C           1     -21.524  -8.091  -5.061  0.00  0.00     0.010 A 
HETATM    9  C           1     -21.531  -8.658  -3.786  0.00  0.00     0.037 A 
HETATM   10  C           1     -21.399  -7.845  -2.660  0.00  0.00     0.065 A 
HETATM   11  C           1     -21.259  -6.466  -2.809  0.00  0.00     0.037 A 
HETATM   12  C           1     -21.252  -5.898  -4.083  0.00  0.00     0.010 A 
BRANCH  10  13
HETATM   13  O           1     -21.405  -8.397  -1.422  0.00  0.00    -0.361 OA
HETATM   14  H           1     -21.188  -9.340  -1.513  0.00  0.00     0.217 HD
ENDBRANCH  10  13
ENDBRANCH   6   7
ENDBRANCH   5   6
BRANCH   5  15
HETATM   15  N           1     -23.665  -5.235  -6.259  0.00  0.00    -0.066 N 
HETATM   16  H           1     -24.064  -5.795  -7.046  0.00  0.00     0.275 HD
HETATM   17  H           1     -23.683  -5.806  -5.383  0.00  0.00     0.275 HD
HETATM   18  H           1     -24.236  -4.371  -6.122  0.00  0.00     0.275 HD
ENDBRANCH   5  15
ENDBRANCH   1   5
BRANCH   4  19
HETATM   19  C           1     -23.245  -3.662 -10.085  0.00  0.00     0.194 C 
BRANCH  19  20
HETATM   20  C           1     -22.664  -4.648 -11.092  0.00  0.00     0.138 C 
BRANCH  20  21
HETATM   21  C           1     -21.607  -3.959 -11.918  0.00  0.00     0.217 C 
HETATM   22  O           1     -20.472  -3.888 -11.509  0.00  0.00    -0.274 OA
HETATM   23  N           1     -21.932  -3.413 -13.130  0.00  0.00    -0.370 N 
HETATM   24  H           1     -21.222  -2.951 -13.683  0.00  0.00     0.159 HD
HETATM   25  H           1     -22.882  -3.472 -13.472  0.00  0.00     0.159 HD
ENDBRANCH  20  21
ENDBRANCH  19  20
BRANCH  19  26
HETATM   26  C           1     -24.640  -3.277 -10.509  0.00  0.00     0.197 C 
HETATM   27  O           1     -25.538  -3.138  -9.649  0.00  0.00    -0.646 OA
HETATM   28  O           1     -24.900  -3.096 -11.718  0.00  0.00    -0.646 OA
ENDBRANCH  19  26
ENDBRANCH   4  19
TORSDOF 9
ENDMDL
MODEL 4
REMARK VINA RESULT:      -7.4      2.323      3.610
REMARK  9 active torsions:
REMARK  status: ('A' for Active; 'I' for Inactive)
REMARK       I    between atoms: C_1  and  N_28 
REMARK    1  A    between atoms: C_1  and  C_4 
REMARK    2  A    between atoms: C_4  and  C_13 
REMARK    3  A    between atoms: C_4  and  N_24 
REMARK    4  A    between atoms: C_5  and  O_22 
REMARK    5  A    between atoms: C_6  and  C_11 
REMARK    6  A    between atoms: C_6  and  C_7 
REMARK    7  A    between atoms: C_6  and  N_28 
REMARK    8  A    between atoms: C_11  and  C_25 
REMARK    9  A    between atoms: C_13  and  C_20 
REMARK       I    between atoms: N_16  and  C_25 
ROOT
HETATM    1  C           1     -34.706  -2.303 -12.604  0.00  0.00     0.249 C 
HETATM    2  H           1     -35.292  -2.196 -14.587  0.00  0.00     0.163 HD
HETATM    3  O           1     -34.609  -1.692 -11.566  0.00  0.00    -0.271 OA
HETATM    4  N           1     -35.210  -1.685 -13.717  0.00  0.00    -0.344 N 
ENDROOT
BRANCH   1   5
HETATM    5  C           1     -34.270  -3.746 -12.674  0.00  0.00     0.278 C 
BRANCH   5   6
HETATM    6  C           1     -33.313  -4.045 -11.528  0.00  0.00     0.081 C 
BRANCH   6   7
HETATM    7  C           1     -33.631  -5.389 -10.950  0.00  0.00    -0.056 A 
HETATM    8  C           1     -32.725  -6.440 -11.088  0.00  0.00     0.010 A 
HETATM    9  C           1     -33.021  -7.691 -10.548  0.00  0.00     0.037 A 
HETATM   10  C           1     -34.224  -7.892  -9.870  0.00  0.00     0.065 A 
HETATM   11  C           1     -35.129  -6.841  -9.732  0.00  0.00     0.037 A 
HETATM   12  C           1     -34.833  -5.589 -10.271  0.00  0.00     0.010 A 
BRANCH  10  13
HETATM   13  O           1     -34.511  -9.109  -9.346  0.00  0.00    -0.361 OA
HETATM   14  H           1     -34.590  -9.009  -8.383  0.00  0.00     0.217 HD
ENDBRANCH  10  13
ENDBRANCH   6   7
ENDBRANCH   5   6
BRANCH   5  15
HETATM   15  N           1     -33.578  -3.996 -13.980  0.00  0.00    -0.066 N 
HETATM   16  H           1     -32.666  -3.487 -13.994  0.00  0.00     0.275 HD
HETATM   17  H           1     -33.406  -5.021 -14.094  0.00  0.00     0.275 HD
HETATM   18  H           1     -34.179  -3.655 -14.764  0.00  0.00     0.275 HD
ENDBRANCH   5  15
ENDBRANCH   1   5
BRANCH   4  19
HETATM   19  C           1     -35.628  -0.298 -13.649  0.00  0.00     0.194 C 
BRANCH  19  20
HETATM   20  C           1     -35.427   0.360 -15.008  0.00  0.00     0.138 C 
BRANCH  20  21
HETATM   21  C           1     -35.616  -0.665 -16.098  0.00  0.00     0.217 C 
HETATM   22  O           1     -34.707  -1.403 -16.397  0.00  0.00    -0.274 OA
HETATM   23  N           1     -36.816  -0.760 -16.749  0.00  0.00    -0.370 N 
HETATM   24  H           1     -36.942  -1.448 -17.480  0.00  0.00     0.159 HD
HETATM   25  H           1     -37.577  -0.142 -16.499  0.00  0.00     0.159 HD
ENDBRANCH  20  21
ENDBRANCH  19  20
BRANCH  19  26
HETATM   26  C           1     -37.087  -0.232 -13.271  0.00  0.00     0.197 C 
HETATM   27  O           1     -37.431   0.319 -12.203  0.00  0.00    -0.646 OA
HETATM   28  O           1     -37.953  -0.729 -14.025  0.00  0.00    -0.646 OA
ENDBRANCH  19  26
ENDBRANCH   4  19
TORSDOF 9
ENDMDL
MODEL 5
REMARK VINA RESULT:      -7.4      1.759      3.037
REMARK  9 active torsions:
REMARK  status: ('A' for Active; 'I' for Inactive)
REMARK       I    between atoms: C_1  and  N_28 
REMARK    1  A    between atoms: C_1  and  C_4 
REMARK    2  A    between atoms: C_4  and  C_13 
REMARK    3  A    between atoms: C_4  and  N_24 
REMARK    4  A    between atoms: C_5  and  O_22 
REMARK    5  A    between atoms: C_6  and  C_11 
REMARK    6  A    between atoms: C_6  and  C_7 
REMARK    7  A    between atoms: C_6  and  N_28 
REMARK    8  A    between atoms: C_11  and  C_25 
REMARK    9  A    between atoms: C_13  and  C_20 
REMARK       I    between atoms: N_16  and  C_25 
ROOT
HETATM    1  C           1     -35.014  -0.115 -13.252  0.00  0.00     0.249 C 
HETATM    2  H           1     -36.226  -1.569 -14.089  0.00  0.00     0.163 HD
HETATM    3  O           1     -34.327   0.853 -13.480  0.00  0.00    -0.271 OA
HETATM    4  N           1     -35.651  -0.759 -14.279  0.00  0.00    -0.344 N 
ENDROOT
BRANCH   1   5
HETATM    5  C           1     -35.168  -0.614 -11.837  0.00  0.00     0.278 C 
BRANCH   5   6
HETATM    6  C           1     -35.973  -1.908 -11.839  0.00  0.00     0.081 C 
BRANCH   6   7
HETATM    7  C           1     -35.045  -3.073 -11.680  0.00  0.00    -0.056 A 
HETATM    8  C           1     -35.511  -4.264 -11.124  0.00  0.00     0.010 A 
HETATM    9  C           1     -34.646  -5.349 -10.978  0.00  0.00     0.037 A 
HETATM   10  C           1     -33.317  -5.243 -11.387  0.00  0.00     0.065 A 
HETATM   11  C           1     -32.853  -4.051 -11.944  0.00  0.00     0.037 A 
HETATM   12  C           1     -33.717  -2.966 -12.091  0.00  0.00     0.010 A 
BRANCH  10  13
HETATM   13  O           1     -32.478  -6.297 -11.244  0.00  0.00    -0.361 OA
HETATM   14  H           1     -33.007  -7.110 -11.299  0.00  0.00     0.217 HD
ENDBRANCH  10  13
ENDBRANCH   6   7
ENDBRANCH   5   6
BRANCH   5  15
HETATM   15  N           1     -35.885   0.417 -11.018  0.00  0.00    -0.066 N 
HETATM   16  H           1     -35.548   0.373 -10.030  0.00  0.00     0.275 HD
HETATM   17  H           1     -35.693   1.368 -11.409  0.00  0.00     0.275 HD
HETATM   18  H           1     -36.913   0.231 -11.045  0.00  0.00     0.275 HD
ENDBRANCH   5  15
ENDBRANCH   1   5
BRANCH   4  19
HETATM   19  C           1     -35.503  -0.278 -15.639  0.00  0.00     0.194 C 
BRANCH  19  20
HETATM   20  C           1     -35.777  -1.417 -16.613  0.00  0.00     0.138 C 
BRANCH  20  21
HETATM   21  C           1     -34.726  -2.486 -16.447  0.00  0.00     0.217 C 
HETATM   22  O           1     -34.672  -3.126 -15.423  0.00  0.00    -0.274 OA
HETATM   23  N           1     -33.831  -2.730 -17.454  0.00  0.00    -0.370 N 
HETATM   24  H           1     -33.126  -3.447 -17.340  0.00  0.00     0.159 HD
HETATM   25  H           1     -33.875  -2.194 -18.310  0.00  0.00     0.159 HD
ENDBRANCH  20  21
ENDBRANCH  19  20
BRANCH  19  26
HETATM   26  C           1     -36.484   0.841 -15.886  0.00  0.00     0.197 C 
HETATM   27  O           1     -37.712   0.627 -15.790  0.00  0.00    -0.646 OA
HETATM   28  O           1     -36.069   1.981 -16.188  0.00  0.00    -0.646 OA
ENDBRANCH  19  26
ENDBRANCH   4  19
TORSDOF 9
ENDMDL
MODEL 6
REMARK VINA RESULT:      -7.3      2.361      3.959
REMARK  9 active torsions:
REMARK  status: ('A' for Active; 'I' for Inactive)
REMARK       I    between atoms: C_1  and  N_28 
REMARK    1  A    between atoms: C_1  and  C_4 
REMARK    2  A    between atoms: C_4  and  C_13 
REMARK    3  A    between atoms: C_4  and  N_24 
REMARK    4  A    between atoms: C_5  and  O_22 
REMARK    5  A    between atoms: C_6  and  C_11 
REMARK    6  A    between atoms: C_6  and  C_7 
REMARK    7  A    between atoms: C_6  and  N_28 
REMARK    8  A    between atoms: C_11  and  C_25 
REMARK    9  A    between atoms: C_13  and  C_20 
REMARK       I    between atoms: N_16  and  C_25 
ROOT
HETATM    1  C           1     -34.607  -2.617 -12.811  0.00  0.00     0.249 C 
HETATM    2  H           1     -35.219  -1.084 -11.561  0.00  0.00     0.163 HD
HETATM    3  O           1     -34.611  -3.030 -13.946  0.00  0.00    -0.271 OA
HETATM    4  N           1     -35.222  -1.430 -12.512  0.00  0.00    -0.344 N 
ENDROOT
BRANCH   1   5
HETATM    5  C           1     -33.925  -3.408 -11.722  0.00  0.00     0.278 C 
BRANCH   5   6
HETATM    6  C           1     -34.976  -4.072 -10.841  0.00  0.00     0.081 C 
BRANCH   6   7
HETATM    7  C           1     -34.567  -5.482 -10.551  0.00  0.00    -0.056 A 
HETATM    8  C           1     -35.387  -6.301  -9.776  0.00  0.00     0.010 A 
HETATM    9  C           1     -35.005  -7.615  -9.507  0.00  0.00     0.037 A 
HETATM   10  C           1     -33.803  -8.110 -10.012  0.00  0.00     0.065 A 
HETATM   11  C           1     -32.984  -7.291 -10.789  0.00  0.00     0.037 A 
HETATM   12  C           1     -33.365  -5.977 -11.058  0.00  0.00     0.010 A 
BRANCH  10  13
HETATM   13  O           1     -33.432  -9.387  -9.751  0.00  0.00    -0.361 OA
HETATM   14  H           1     -33.019  -9.749 -10.552  0.00  0.00     0.217 HD
ENDBRANCH  10  13
ENDBRANCH   6   7
ENDBRANCH   5   6
BRANCH   5  15
HETATM   15  N           1     -33.084  -2.489 -10.889  0.00  0.00    -0.066 N 
HETATM   16  H           1     -33.560  -1.563 -10.802  0.00  0.00     0.275 HD
HETATM   17  H           1     -32.952  -2.902  -9.937  0.00  0.00     0.275 HD
HETATM   18  H           1     -32.152  -2.361 -11.344  0.00  0.00     0.275 HD
ENDBRANCH   5  15
ENDBRANCH   1   5
BRANCH   4  19
HETATM   19  C           1     -35.877  -0.670 -13.559  0.00  0.00     0.194 C 
BRANCH  19  20
HETATM   20  C           1     -37.141  -0.025 -13.004  0.00  0.00     0.138 C 
BRANCH  20  21
HETATM   21  C           1     -37.198  -0.234 -11.511  0.00  0.00     0.217 C 
HETATM   22  O           1     -37.808  -1.172 -11.056  0.00  0.00    -0.274 OA
HETATM   23  N           1     -36.561   0.641 -10.672  0.00  0.00    -0.370 N 
HETATM   24  H           1     -36.601   0.499  -9.671  0.00  0.00     0.159 HD
HETATM   25  H           1     -36.051   1.426 -11.053  0.00  0.00     0.159 HD
ENDBRANCH  20  21
ENDBRANCH  19  20
BRANCH  19  26
HETATM   26  C           1     -34.943   0.404 -14.059  0.00  0.00     0.197 C 
HETATM   27  O           1     -34.679   1.389 -13.335  0.00  0.00    -0.646 OA
HETATM   28  O           1     -34.433   0.310 -15.196  0.00  0.00    -0.646 OA
ENDBRANCH  19  26
ENDBRANCH   4  19
TORSDOF 9
ENDMDL
MODEL 7
REMARK VINA RESULT:      -7.2      5.363      7.622
REMARK  9 active torsions:
REMARK  status: ('A' for Active; 'I' for Inactive)
REMARK       I    between atoms: C_1  and  N_28 
REMARK    1  A    between atoms: C_1  and  C_4 
REMARK    2  A    between atoms: C_4  and  C_13 
REMARK    3  A    between atoms: C_4  and  N_24 
REMARK    4  A    between atoms: C_5  and  O_22 
REMARK    5  A    between atoms: C_6  and  C_11 
REMARK    6  A    between atoms: C_6  and  C_7 
REMARK    7  A    between atoms: C_6  and  N_28 
REMARK    8  A    between atoms: C_11  and  C_25 
REMARK    9  A    between atoms: C_13  and  C_20 
REMARK       I    between atoms: N_16  and  C_25 
ROOT
HETATM    1  C           1     -33.905  -4.490 -15.408  0.00  0.00     0.249 C 
HETATM    2  H           1     -32.501  -3.528 -14.229  0.00  0.00     0.163 HD
HETATM    3  O           1     -35.017  -4.962 -15.438  0.00  0.00    -0.271 OA
HETATM    4  N           1     -33.432  -3.924 -14.254  0.00  0.00    -0.344 N 
ENDROOT
BRANCH   1   5
HETATM    5  C           1     -33.037  -4.525 -16.642  0.00  0.00     0.278 C 
BRANCH   5   6
HETATM    6  C           1     -31.586  -4.754 -16.237  0.00  0.00     0.081 C 
BRANCH   6   7
HETATM    7  C           1     -31.002  -5.849 -17.074  0.00  0.00    -0.056 A 
HETATM    8  C           1     -31.840  -6.758 -17.718  0.00  0.00     0.010 A 
HETATM    9  C           1     -31.294  -7.778 -18.498  0.00  0.00     0.037 A 
HETATM   10  C           1     -29.911  -7.888 -18.635  0.00  0.00     0.065 A 
HETATM   11  C           1     -29.073  -6.977 -17.991  0.00  0.00     0.037 A 
HETATM   12  C           1     -29.618  -5.958 -17.211  0.00  0.00     0.010 A 
BRANCH  10  13
HETATM   13  O           1     -29.381  -8.879 -19.393  0.00  0.00    -0.361 OA
HETATM   14  H           1     -29.634  -9.728 -18.995  0.00  0.00     0.217 HD
ENDBRANCH  10  13
ENDBRANCH   6   7
ENDBRANCH   5   6
BRANCH   5  15
HETATM   15  N           1     -33.151  -3.220 -17.370  0.00  0.00    -0.066 N 
HETATM   16  H           1     -33.496  -2.483 -16.714  0.00  0.00     0.275 HD
HETATM   17  H           1     -32.214  -2.943 -17.742  0.00  0.00     0.275 HD
HETATM   18  H           1     -33.824  -3.321 -18.164  0.00  0.00     0.275 HD
ENDBRANCH   5  15
ENDBRANCH   1   5
BRANCH   4  19
HETATM   19  C           1     -34.266  -3.890 -13.069  0.00  0.00     0.194 C 
BRANCH  19  20
HETATM   20  C           1     -33.521  -4.530 -11.904  0.00  0.00     0.138 C 
BRANCH  20  21
HETATM   21  C           1     -34.254  -5.770 -11.458  0.00  0.00     0.217 C 
HETATM   22  O           1     -34.168  -6.143 -10.312  0.00  0.00    -0.274 OA
HETATM   23  N           1     -35.015  -6.475 -12.352  0.00  0.00    -0.370 N 
HETATM   24  H           1     -35.506  -7.307 -12.051  0.00  0.00     0.159 HD
HETATM   25  H           1     -35.086  -6.163 -13.311  0.00  0.00     0.159 HD
ENDBRANCH  20  21
ENDBRANCH  19  20
BRANCH  19  26
HETATM   26  C           1     -34.597  -2.458 -12.727  0.00  0.00     0.197 C 
HETATM   27  O           1     -35.098  -1.709 -13.594  0.00  0.00    -0.646 OA
HETATM   28  O           1     -34.369  -2.020 -11.579  0.00  0.00    -0.646 OA
ENDBRANCH  19  26
ENDBRANCH   4  19
TORSDOF 9
ENDMDL
MODEL 8
REMARK VINA RESULT:      -7.0      2.393      3.938
REMARK  9 active torsions:
REMARK  status: ('A' for Active; 'I' for Inactive)
REMARK       I    between atoms: C_1  and  N_28 
REMARK    1  A    between atoms: C_1  and  C_4 
REMARK    2  A    between atoms: C_4  and  C_13 
REMARK    3  A    between atoms: C_4  and  N_24 
REMARK    4  A    between atoms: C_5  and  O_22 
REMARK    5  A    between atoms: C_6  and  C_11 
REMARK    6  A    between atoms: C_6  and  C_7 
REMARK    7  A    between atoms: C_6  and  N_28 
REMARK    8  A    between atoms: C_11  and  C_25 
REMARK    9  A    between atoms: C_13  and  C_20 
REMARK       I    between atoms: N_16  and  C_25 
ROOT
HETATM    1  C           1     -34.604  -2.245 -12.161  0.00  0.00     0.249 C 
HETATM    2  H           1     -36.271  -2.178 -13.386  0.00  0.00     0.163 HD
HETATM    3  O           1     -33.898  -1.609 -11.415  0.00  0.00    -0.271 OA
HETATM    4  N           1     -35.680  -1.646 -12.761  0.00  0.00    -0.344 N 
ENDROOT
BRANCH   1   5
HETATM    5  C           1     -34.300  -3.698 -12.432  0.00  0.00     0.278 C 
BRANCH   5   6
HETATM    6  C           1     -33.180  -4.164 -11.511  0.00  0.00     0.081 C 
BRANCH   6   7
HETATM    7  C           1     -33.533  -5.498 -10.932  0.00  0.00    -0.056 A 
HETATM    8  C           1     -34.730  -5.662 -10.235  0.00  0.00     0.010 A 
HETATM    9  C           1     -35.058  -6.906  -9.696  0.00  0.00     0.037 A 
HETATM   10  C           1     -34.190  -7.986  -9.854  0.00  0.00     0.065 A 
HETATM   11  C           1     -32.994  -7.822 -10.552  0.00  0.00     0.037 A 
HETATM   12  C           1     -32.665  -6.578 -11.091  0.00  0.00     0.010 A 
BRANCH  10  13
HETATM   13  O           1     -34.510  -9.195  -9.331  0.00  0.00    -0.361 OA
HETATM   14  H           1     -35.440  -9.377  -9.544  0.00  0.00     0.217 HD
ENDBRANCH  10  13
ENDBRANCH   6   7
ENDBRANCH   5   6
BRANCH   5  15
HETATM   15  N           1     -33.873  -3.860 -13.860  0.00  0.00    -0.066 N 
HETATM   16  H           1     -33.024  -4.468 -13.902  0.00  0.00     0.275 HD
HETATM   17  H           1     -34.645  -4.303 -14.408  0.00  0.00     0.275 HD
HETATM   18  H           1     -33.651  -2.923 -14.266  0.00  0.00     0.275 HD
ENDBRANCH   5  15
ENDBRANCH   1   5
BRANCH   4  19
HETATM   19  C           1     -35.972  -0.250 -12.500  0.00  0.00     0.194 C 
BRANCH  19  20
HETATM   20  C           1     -36.699   0.350 -13.697  0.00  0.00     0.138 C 
BRANCH  20  21
HETATM   21  C           1     -35.694   0.736 -14.753  0.00  0.00     0.217 C 
HETATM   22  O           1     -34.547   0.370 -14.659  0.00  0.00    -0.274 OA
HETATM   23  N           1     -36.082   1.504 -15.819  0.00  0.00    -0.370 N 
HETATM   24  H           1     -35.407   1.762 -16.527  0.00  0.00     0.159 HD
HETATM   25  H           1     -37.042   1.811 -15.898  0.00  0.00     0.159 HD
ENDBRANCH  20  21
ENDBRANCH  19  20
BRANCH  19  26
HETATM   26  C           1     -36.846  -0.140 -11.275  0.00  0.00     0.197 C 
HETATM   27  O           1     -37.837  -0.892 -11.145  0.00  0.00    -0.646 OA
HETATM   28  O           1     -36.580   0.702 -10.390  0.00  0.00    -0.646 OA
ENDBRANCH  19  26
ENDBRANCH   4  19
TORSDOF 9
ENDMDL
MODEL 9
REMARK VINA RESULT:      -7.0      2.586      6.566
REMARK  9 active torsions:
REMARK  status: ('A' for Active; 'I' for Inactive)
REMARK       I    between atoms: C_1  and  N_28 
REMARK    1  A    between atoms: C_1  and  C_4 
REMARK    2  A    between atoms: C_4  and  C_13 
REMARK    3  A    between atoms: C_4  and  N_24 
REMARK    4  A    between atoms: C_5  and  O_22 
REMARK    5  A    between atoms: C_6  and  C_11 
REMARK    6  A    between atoms: C_6  and  C_7 
REMARK    7  A    between atoms: C_6  and  N_28 
REMARK    8  A    between atoms: C_11  and  C_25 
REMARK    9  A    between atoms: C_13  and  C_20 
REMARK       I    between atoms: N_16  and  C_25 
ROOT
HETATM    1  C           1     -35.184  -1.956 -10.714  0.00  0.00     0.249 C 
HETATM    2  H           1     -36.291  -3.285 -11.852  0.00  0.00     0.163 HD
HETATM    3  O           1     -34.142  -1.785 -10.127  0.00  0.00    -0.271 OA
HETATM    4  N           1     -35.418  -3.141 -11.361  0.00  0.00    -0.344 N 
ENDROOT
BRANCH   1   5
HETATM    5  C           1     -36.227  -0.867 -10.733  0.00  0.00     0.278 C 
BRANCH   5   6
HETATM    6  C           1     -35.739   0.289 -11.597  0.00  0.00     0.081 C 
BRANCH   6   7
HETATM    7  C           1     -36.134   0.050 -13.021  0.00  0.00    -0.056 A 
HETATM    8  C           1     -37.482  -0.062 -13.361  0.00  0.00     0.010 A 
HETATM    9  C           1     -37.848  -0.284 -14.689  0.00  0.00     0.037 A 
HETATM   10  C           1     -36.868  -0.394 -15.675  0.00  0.00     0.065 A 
HETATM   11  C           1     -35.521  -0.280 -15.333  0.00  0.00     0.037 A 
HETATM   12  C           1     -35.153  -0.058 -14.007  0.00  0.00     0.010 A 
BRANCH  10  13
HETATM   13  O           1     -37.225  -0.609 -16.965  0.00  0.00    -0.361 OA
HETATM   14  H           1     -37.661  -1.476 -17.014  0.00  0.00     0.217 HD
ENDBRANCH  10  13
ENDBRANCH   6   7
ENDBRANCH   5   6
BRANCH   5  15
HETATM   15  N           1     -36.467  -0.380  -9.336  0.00  0.00    -0.066 N 
HETATM   16  H           1     -35.741   0.329  -9.085  0.00  0.00     0.275 HD
HETATM   17  H           1     -37.415   0.057  -9.275  0.00  0.00     0.275 HD
HETATM   18  H           1     -36.412  -1.185  -8.672  0.00  0.00     0.275 HD
ENDBRANCH   5  15
ENDBRANCH   1   5
BRANCH   4  19
HETATM   19  C           1     -34.415  -4.188 -11.342  0.00  0.00     0.194 C 
BRANCH  19  20
HETATM   20  C           1     -35.096  -5.546 -11.463  0.00  0.00     0.138 C 
BRANCH  20  21
HETATM   21  C           1     -34.368  -6.552 -10.607  0.00  0.00     0.217 C 
HETATM   22  O           1     -34.896  -6.994  -9.615  0.00  0.00    -0.274 OA
HETATM   23  N           1     -33.108  -6.962 -10.954  0.00  0.00    -0.370 N 
HETATM   24  H           1     -32.621  -7.637 -10.379  0.00  0.00     0.159 HD
HETATM   25  H           1     -32.667  -6.591 -11.784  0.00  0.00     0.159 HD
ENDBRANCH  20  21
ENDBRANCH  19  20
BRANCH  19  26
HETATM   26  C           1     -33.467  -3.996 -12.500  0.00  0.00     0.197 C 
HETATM   27  O           1     -33.891  -3.541 -13.585  0.00  0.00    -0.646 OA
HETATM   28  O           1     -32.259  -4.291 -12.375  0.00  0.00    -0.646 OA
ENDBRANCH  19  26
ENDBRANCH   4  19
TORSDOF 9
ENDMDL
