MODEL 1
REMARK VINA RESULT:      -6.0      0.000      0.000
REMARK  10 active torsions:
REMARK  status: ('A' for Active; 'I' for Inactive)
REMARK    1  A    between atoms: C_1  and  C_14 
REMARK    2  A    between atoms: C_1  and  C_2 
REMARK    3  A    between atoms: C_1  and  N_8 
REMARK    4  A    between atoms: C_2  and  C_3 
REMARK    5  A    between atoms: C_3  and  C_4 
REMARK    6  A    between atoms: S_6  and  C_7 
REMARK    7  A    between atoms: C_7  and  C_13 
REMARK    8  A    between atoms: C_13  and  C_22 
REMARK       I    between atoms: C_14  and  N_18 
REMARK    9  A    between atoms: N_18  and  C_22 
REMARK   10  A    between atoms: C_21  and  C_22 
ROOT
HETATM    1  O           1     -34.707  -2.745 -13.324  0.00  0.00    -0.271 OA
HETATM    2  H           1     -35.142  -0.406 -11.279  0.00  0.00     0.163 HD
HETATM    3  C           1     -34.515  -2.067 -12.344  0.00  0.00     0.249 C 
HETATM    4  N           1     -35.303  -0.974 -12.102  0.00  0.00    -0.345 N 
ENDROOT
BRANCH   3   5
HETATM    5  C           1     -33.405  -2.425 -11.386  0.00  0.00     0.275 C 
BRANCH   5   6
HETATM    6  C           1     -33.113  -3.915 -11.480  0.00  0.00     0.053 C 
BRANCH   6   7
HETATM    7  C           1     -33.950  -4.664 -10.451  0.00  0.00     0.115 C 
BRANCH   7   8
HETATM    8  C           1     -34.542  -5.899 -11.085  0.00  0.00     0.172 C 
HETATM    9  O           1     -34.688  -6.940 -10.409  0.00  0.00    -0.648 OA
HETATM   10  O           1     -34.886  -5.880 -12.287  0.00  0.00    -0.648 OA
ENDBRANCH   7   8
ENDBRANCH   6   7
ENDBRANCH   5   6
BRANCH   5  11
HETATM   11  N           1     -33.826  -2.086  -9.986  0.00  0.00    -0.066 N 
HETATM   12  H           1     -34.235  -2.932  -9.530  0.00  0.00     0.275 HD
HETATM   13  H           1     -32.995  -1.765  -9.441  0.00  0.00     0.275 HD
HETATM   14  H           1     -34.542  -1.324 -10.013  0.00  0.00     0.275 HD
ENDBRANCH   5  11
ENDBRANCH   3   5
BRANCH   4  15
HETATM   15  C           1     -36.368  -0.631 -13.023  0.00  0.00     0.186 C 
BRANCH  15  16
HETATM   16  C           1     -37.562  -0.097 -12.241  0.00  0.00     0.046 C 
BRANCH  16  17
HETATM   17  C           1     -37.502  -0.608 -10.808  0.00  0.00     0.076 C 
BRANCH  17  18
HETATM   18  S           1     -37.391   0.799  -9.667  0.00  0.00    -0.173 SA
HETATM   19  C           1     -37.482  -0.176  -8.139  0.00  0.00     0.089 C 
ENDBRANCH  17  18
ENDBRANCH  16  17
ENDBRANCH  15  16
BRANCH  15  20
HETATM   20  C           1     -35.882   0.426 -13.983  0.00  0.00     0.196 C 
HETATM   21  O           1     -34.892   1.131 -13.688  0.00  0.00    -0.646 OA
HETATM   22  O           1     -36.467   0.597 -15.074  0.00  0.00    -0.646 OA
ENDBRANCH  15  20
ENDBRANCH   4  15
TORSDOF 10
ENDMDL
MODEL 2
REMARK VINA RESULT:      -5.9     12.603     14.430
REMARK  10 active torsions:
REMARK  status: ('A' for Active; 'I' for Inactive)
REMARK    1  A    between atoms: C_1  and  C_14 
REMARK    2  A    between atoms: C_1  and  C_2 
REMARK    3  A    between atoms: C_1  and  N_8 
REMARK    4  A    between atoms: C_2  and  C_3 
REMARK    5  A    between atoms: C_3  and  C_4 
REMARK    6  A    between atoms: S_6  and  C_7 
REMARK    7  A    between atoms: C_7  and  C_13 
REMARK    8  A    between atoms: C_13  and  C_22 
REMARK       I    between atoms: C_14  and  N_18 
REMARK    9  A    between atoms: N_18  and  C_22 
REMARK   10  A    between atoms: C_21  and  C_22 
ROOT
HETATM    1  O           1     -21.516  -3.189  -7.307  0.00  0.00    -0.271 OA
HETATM    2  H           1     -22.171  -5.766  -8.972  0.00  0.00     0.163 HD
HETATM    3  C           1     -21.565  -4.366  -7.573  0.00  0.00     0.249 C 
HETATM    4  N           1     -22.130  -4.779  -8.750  0.00  0.00    -0.345 N 
ENDROOT
BRANCH   3   5
HETATM    5  C           1     -21.005  -5.381  -6.607  0.00  0.00     0.275 C 
BRANCH   5   6
HETATM    6  C           1     -22.131  -5.949  -5.756  0.00  0.00     0.053 C 
BRANCH   6   7
HETATM    7  C           1     -21.654  -7.220  -5.064  0.00  0.00     0.115 C 
BRANCH   7   8
HETATM    8  C           1     -21.611  -6.996  -3.573  0.00  0.00     0.172 C 
HETATM    9  O           1     -21.569  -7.973  -2.795  0.00  0.00    -0.648 OA
HETATM   10  O           1     -21.616  -5.832  -3.115  0.00  0.00    -0.648 OA
ENDBRANCH   7   8
ENDBRANCH   6   7
ENDBRANCH   5   6
BRANCH   5  11
HETATM   11  N           1     -19.993  -4.719  -5.719  0.00  0.00    -0.066 N 
HETATM   12  H           1     -19.333  -4.155  -6.301  0.00  0.00     0.275 HD
HETATM   13  H           1     -20.481  -4.092  -5.041  0.00  0.00     0.275 HD
HETATM   14  H           1     -19.457  -5.450  -5.196  0.00  0.00     0.275 HD
ENDBRANCH   5  11
ENDBRANCH   3   5
BRANCH   4  15
HETATM   15  C           1     -22.668  -3.803  -9.677  0.00  0.00     0.186 C 
BRANCH  15  16
HETATM   16  C           1     -22.158  -4.103 -11.081  0.00  0.00     0.046 C 
BRANCH  16  17
HETATM   17  C           1     -22.397  -2.896 -11.978  0.00  0.00     0.076 C 
BRANCH  17  18
HETATM   18  S           1     -23.754  -3.256 -13.128  0.00  0.00    -0.173 SA
HETATM   19  C           1     -22.919  -2.643 -14.619  0.00  0.00     0.089 C 
ENDBRANCH  17  18
ENDBRANCH  16  17
ENDBRANCH  15  16
BRANCH  15  20
HETATM   20  C           1     -24.175  -3.874  -9.663  0.00  0.00     0.196 C 
HETATM   21  O           1     -24.752  -4.961  -9.884  0.00  0.00    -0.646 OA
HETATM   22  O           1     -24.847  -2.847  -9.429  0.00  0.00    -0.646 OA
ENDBRANCH  15  20
ENDBRANCH   4  15
TORSDOF 10
ENDMDL
MODEL 3
REMARK VINA RESULT:      -5.4     14.641     16.750
REMARK  10 active torsions:
REMARK  status: ('A' for Active; 'I' for Inactive)
REMARK    1  A    between atoms: C_1  and  C_14 
REMARK    2  A    between atoms: C_1  and  C_2 
REMARK    3  A    between atoms: C_1  and  N_8 
REMARK    4  A    between atoms: C_2  and  C_3 
REMARK    5  A    between atoms: C_3  and  C_4 
REMARK    6  A    between atoms: S_6  and  C_7 
REMARK    7  A    between atoms: C_7  and  C_13 
REMARK    8  A    between atoms: C_13  and  C_22 
REMARK       I    between atoms: C_14  and  N_18 
REMARK    9  A    between atoms: N_18  and  C_22 
REMARK   10  A    between atoms: C_21  and  C_22 
ROOT
HETATM    1  O           1     -21.812  -7.582  -4.850  0.00  0.00    -0.271 OA
HETATM    2  H           1     -20.767  -4.650  -4.466  0.00  0.00     0.163 HD
HETATM    3  C           1     -21.429  -6.600  -4.262  0.00  0.00     0.249 C 
HETATM    4  N           1     -21.087  -5.473  -4.960  0.00  0.00    -0.345 N 
ENDROOT
BRANCH   3   5
HETATM    5  C           1     -21.326  -6.616  -2.756  0.00  0.00     0.275 C 
BRANCH   5   6
HETATM    6  C           1     -21.528  -8.036  -2.247  0.00  0.00     0.053 C 
BRANCH   6   7
HETATM    7  C           1     -20.742  -8.231  -0.957  0.00  0.00     0.115 C 
BRANCH   7   8
HETATM    8  C           1     -21.687  -8.212   0.218  0.00  0.00     0.172 C 
HETATM    9  O           1     -22.870  -7.839   0.062  0.00  0.00    -0.648 OA
HETATM   10  O           1     -21.288  -8.569   1.347  0.00  0.00    -0.648 OA
ENDBRANCH   7   8
ENDBRANCH   6   7
ENDBRANCH   5   6
BRANCH   5  11
HETATM   11  N           1     -22.381  -5.722  -2.175  0.00  0.00    -0.066 N 
HETATM   12  H           1     -21.927  -4.971  -1.606  0.00  0.00     0.275 HD
HETATM   13  H           1     -22.933  -5.287  -2.947  0.00  0.00     0.275 HD
HETATM   14  H           1     -23.017  -6.285  -1.565  0.00  0.00     0.275 HD
ENDBRANCH   5  11
ENDBRANCH   3   5
BRANCH   4  15
HETATM   15  C           1     -21.187  -5.459  -6.406  0.00  0.00     0.186 C 
BRANCH  15  16
HETATM   16  C           1     -21.715  -4.105  -6.865  0.00  0.00     0.046 C 
BRANCH  16  17
HETATM   17  C           1     -22.886  -4.311  -7.815  0.00  0.00     0.076 C 
BRANCH  17  18
HETATM   18  S           1     -22.315  -4.135  -9.529  0.00  0.00    -0.173 SA
HETATM   19  C           1     -23.798  -4.834 -10.306  0.00  0.00     0.089 C 
ENDBRANCH  17  18
ENDBRANCH  16  17
ENDBRANCH  15  16
BRANCH  15  20
HETATM   20  C           1     -19.823  -5.696  -7.006  0.00  0.00     0.196 C 
HETATM   21  O           1     -19.368  -6.858  -7.084  0.00  0.00    -0.646 OA
HETATM   22  O           1     -19.147  -4.732  -7.425  0.00  0.00    -0.646 OA
ENDBRANCH  15  20
ENDBRANCH   4  15
TORSDOF 10
ENDMDL
MODEL 4
REMARK VINA RESULT:      -5.4     13.758     16.087
REMARK  10 active torsions:
REMARK  status: ('A' for Active; 'I' for Inactive)
REMARK    1  A    between atoms: C_1  and  C_14 
REMARK    2  A    between atoms: C_1  and  C_2 
REMARK    3  A    between atoms: C_1  and  N_8 
REMARK    4  A    between atoms: C_2  and  C_3 
REMARK    5  A    between atoms: C_3  and  C_4 
REMARK    6  A    between atoms: S_6  and  C_7 
REMARK    7  A    between atoms: C_7  and  C_13 
REMARK    8  A    between atoms: C_13  and  C_22 
REMARK       I    between atoms: C_14  and  N_18 
REMARK    9  A    between atoms: N_18  and  C_22 
REMARK   10  A    between atoms: C_21  and  C_22 
ROOT
HETATM    1  O           1     -19.329  -4.743  -6.587  0.00  0.00    -0.271 OA
HETATM    2  H           1     -22.285  -5.792  -6.620  0.00  0.00     0.163 HD
HETATM    3  C           1     -20.468  -4.861  -6.967  0.00  0.00     0.249 C 
HETATM    4  N           1     -21.329  -5.694  -6.302  0.00  0.00    -0.345 N 
ENDROOT
BRANCH   3   5
HETATM    5  C           1     -20.945  -4.092  -8.175  0.00  0.00     0.275 C 
BRANCH   5   6
HETATM    6  C           1     -22.436  -4.326  -8.371  0.00  0.00     0.053 C 
BRANCH   6   7
HETATM    7  C           1     -22.959  -3.391  -9.454  0.00  0.00     0.115 C 
BRANCH   7   8
HETATM    8  C           1     -24.158  -4.016 -10.122  0.00  0.00     0.172 C 
HETATM    9  O           1     -25.210  -3.355 -10.264  0.00  0.00    -0.648 OA
HETATM   10  O           1     -24.100  -5.195 -10.535  0.00  0.00    -0.648 OA
ENDBRANCH   7   8
ENDBRANCH   6   7
ENDBRANCH   5   6
BRANCH   5  11
HETATM   11  N           1     -20.201  -4.562  -9.390  0.00  0.00    -0.066 N 
HETATM   12  H           1     -19.764  -5.492  -9.194  0.00  0.00     0.275 HD
HETATM   13  H           1     -20.866  -4.654 -10.191  0.00  0.00     0.275 HD
HETATM   14  H           1     -19.455  -3.871  -9.632  0.00  0.00     0.275 HD
ENDBRANCH   5  11
ENDBRANCH   3   5
BRANCH   4  15
HETATM   15  C           1     -20.871  -6.432  -5.142  0.00  0.00     0.186 C 
BRANCH  15  16
HETATM   16  C           1     -21.990  -6.500  -4.109  0.00  0.00     0.046 C 
BRANCH  16  17
HETATM   17  C           1     -21.426  -6.203  -2.727  0.00  0.00     0.076 C 
BRANCH  17  18
HETATM   18  S           1     -21.235  -7.755  -1.804  0.00  0.00    -0.173 SA
HETATM   19  C           1     -22.415  -7.349  -0.486  0.00  0.00     0.089 C 
ENDBRANCH  17  18
ENDBRANCH  16  17
ENDBRANCH  15  16
BRANCH  15  20
HETATM   20  C           1     -20.483  -7.830  -5.556  0.00  0.00     0.196 C 
HETATM   21  O           1     -19.283  -8.106  -5.776  0.00  0.00    -0.646 OA
HETATM   22  O           1     -21.359  -8.712  -5.679  0.00  0.00    -0.646 OA
ENDBRANCH  15  20
ENDBRANCH   4  15
TORSDOF 10
ENDMDL
MODEL 5
REMARK VINA RESULT:      -5.2     25.687     26.864
REMARK  10 active torsions:
REMARK  status: ('A' for Active; 'I' for Inactive)
REMARK    1  A    between atoms: C_1  and  C_14 
REMARK    2  A    between atoms: C_1  and  C_2 
REMARK    3  A    between atoms: C_1  and  N_8 
REMARK    4  A    between atoms: C_2  and  C_3 
REMARK    5  A    between atoms: C_3  and  C_4 
REMARK    6  A    between atoms: S_6  and  C_7 
REMARK    7  A    between atoms: C_7  and  C_13 
REMARK    8  A    between atoms: C_13  and  C_22 
REMARK       I    between atoms: C_14  and  N_18 
REMARK    9  A    between atoms: N_18  and  C_22 
REMARK   10  A    between atoms: C_21  and  C_22 
ROOT
HETATM    1  O           1     -12.228   6.951 -21.902  0.00  0.00    -0.271 OA
HETATM    2  H           1     -12.650   7.554 -18.853  0.00  0.00     0.163 HD
HETATM    3  C           1     -12.531   6.740 -20.753  0.00  0.00     0.249 C 
HETATM    4  N           1     -12.395   7.731 -19.816  0.00  0.00    -0.345 N 
ENDROOT
BRANCH   3   5
HETATM    5  C           1     -13.058   5.386 -20.348  0.00  0.00     0.275 C 
BRANCH   5   6
HETATM    6  C           1     -12.050   4.699 -19.437  0.00  0.00     0.053 C 
BRANCH   6   7
HETATM    7  C           1     -10.705   4.604 -20.147  0.00  0.00     0.115 C 
BRANCH   7   8
HETATM    8  C           1      -9.709   5.505 -19.461  0.00  0.00     0.172 C 
HETATM    9  O           1      -8.840   6.102 -20.133  0.00  0.00    -0.648 OA
HETATM   10  O           1      -9.751   5.654 -18.220  0.00  0.00    -0.648 OA
ENDBRANCH   7   8
ENDBRANCH   6   7
ENDBRANCH   5   6
BRANCH   5  11
HETATM   11  N           1     -13.275   4.548 -21.573  0.00  0.00    -0.066 N 
HETATM   12  H           1     -12.781   4.983 -22.385  0.00  0.00     0.275 HD
HETATM   13  H           1     -12.898   3.588 -21.411  0.00  0.00     0.275 HD
HETATM   14  H           1     -14.299   4.492 -21.779  0.00  0.00     0.275 HD
ENDBRANCH   5  11
ENDBRANCH   3   5
BRANCH   4  15
HETATM   15  C           1     -11.889   9.031 -20.206  0.00  0.00     0.186 C 
BRANCH  15  16
HETATM   16  C           1     -12.803  10.118 -19.653  0.00  0.00     0.046 C 
BRANCH  16  17
HETATM   17  C           1     -13.417   9.648 -18.341  0.00  0.00     0.076 C 
BRANCH  17  18
HETATM   18  S           1     -14.765  10.767 -17.868  0.00  0.00    -0.173 SA
HETATM   19  C           1     -14.415  12.039 -19.115  0.00  0.00     0.089 C 
ENDBRANCH  17  18
ENDBRANCH  16  17
ENDBRANCH  15  16
BRANCH  15  20
HETATM   20  C           1     -10.497   9.215 -19.653  0.00  0.00     0.196 C 
HETATM   21  O           1      -9.600   9.713 -20.369  0.00  0.00    -0.646 OA
HETATM   22  O           1     -10.239   8.871 -18.480  0.00  0.00    -0.646 OA
ENDBRANCH  15  20
ENDBRANCH   4  15
TORSDOF 10
ENDMDL
MODEL 6
REMARK VINA RESULT:      -5.1     14.736     17.203
REMARK  10 active torsions:
REMARK  status: ('A' for Active; 'I' for Inactive)
REMARK    1  A    between atoms: C_1  and  C_14 
REMARK    2  A    between atoms: C_1  and  C_2 
REMARK    3  A    between atoms: C_1  and  N_8 
REMARK    4  A    between atoms: C_2  and  C_3 
REMARK    5  A    between atoms: C_3  and  C_4 
REMARK    6  A    between atoms: S_6  and  C_7 
REMARK    7  A    between atoms: C_7  and  C_13 
REMARK    8  A    between atoms: C_13  and  C_22 
REMARK       I    between atoms: C_14  and  N_18 
REMARK    9  A    between atoms: N_18  and  C_22 
REMARK   10  A    between atoms: C_21  and  C_22 
ROOT
HETATM    1  O           1     -22.524  -5.745  -5.553  0.00  0.00    -0.271 OA
HETATM    2  H           1     -19.775  -6.907  -4.588  0.00  0.00     0.163 HD
HETATM    3  C           1     -21.327  -5.887  -5.504  0.00  0.00     0.249 C 
HETATM    4  N           1     -20.779  -6.788  -4.628  0.00  0.00    -0.345 N 
ENDROOT
BRANCH   3   5
HETATM    5  C           1     -20.432  -5.073  -6.406  0.00  0.00     0.275 C 
BRANCH   5   6
HETATM    6  C           1     -21.238  -3.947  -7.039  0.00  0.00     0.053 C 
BRANCH   6   7
HETATM    7  C           1     -21.219  -4.098  -8.555  0.00  0.00     0.115 C 
BRANCH   7   8
HETATM    8  C           1     -22.612  -3.899  -9.098  0.00  0.00     0.172 C 
HETATM    9  O           1     -23.605  -4.148  -8.380  0.00  0.00    -0.648 OA
HETATM   10  O           1     -22.774  -3.486 -10.267  0.00  0.00    -0.648 OA
ENDBRANCH   7   8
ENDBRANCH   6   7
ENDBRANCH   5   6
BRANCH   5  11
HETATM   11  N           1     -19.875  -5.956  -7.484  0.00  0.00    -0.066 N 
HETATM   12  H           1     -18.867  -5.725  -7.637  0.00  0.00     0.275 HD
HETATM   13  H           1     -19.963  -6.956  -7.196  0.00  0.00     0.275 HD
HETATM   14  H           1     -20.406  -5.800  -8.371  0.00  0.00     0.275 HD
ENDBRANCH   5  11
ENDBRANCH   3   5
BRANCH   4  15
HETATM   15  C           1     -21.639  -7.569  -3.762  0.00  0.00     0.186 C 
BRANCH  15  16
HETATM   16  C           1     -21.083  -8.983  -3.637  0.00  0.00     0.046 C 
BRANCH  16  17
HETATM   17  C           1     -19.726  -9.058  -4.322  0.00  0.00     0.076 C 
BRANCH  17  18
HETATM   18  S           1     -18.453  -9.481  -3.099  0.00  0.00    -0.173 SA
HETATM   19  C           1     -19.521 -10.505  -2.047  0.00  0.00     0.089 C 
ENDBRANCH  17  18
ENDBRANCH  16  17
ENDBRANCH  15  16
BRANCH  15  20
HETATM   20  C           1     -21.694  -6.928  -2.397  0.00  0.00     0.196 C 
HETATM   21  O           1     -21.115  -7.467  -1.429  0.00  0.00    -0.646 OA
HETATM   22  O           1     -22.318  -5.857  -2.234  0.00  0.00    -0.646 OA
ENDBRANCH  15  20
ENDBRANCH   4  15
TORSDOF 10
ENDMDL
MODEL 7
REMARK VINA RESULT:      -5.1     25.760     27.143
REMARK  10 active torsions:
REMARK  status: ('A' for Active; 'I' for Inactive)
REMARK    1  A    between atoms: C_1  and  C_14 
REMARK    2  A    between atoms: C_1  and  C_2 
REMARK    3  A    between atoms: C_1  and  N_8 
REMARK    4  A    between atoms: C_2  and  C_3 
REMARK    5  A    between atoms: C_3  and  C_4 
REMARK    6  A    between atoms: S_6  and  C_7 
REMARK    7  A    between atoms: C_7  and  C_13 
REMARK    8  A    between atoms: C_13  and  C_22 
REMARK       I    between atoms: C_14  and  N_18 
REMARK    9  A    between atoms: N_18  and  C_22 
REMARK   10  A    between atoms: C_21  and  C_22 
ROOT
HETATM    1  O           1      -9.010   6.034 -19.993  0.00  0.00    -0.271 OA
HETATM    2  H           1     -11.648   7.093 -21.320  0.00  0.00     0.163 HD
HETATM    3  C           1     -10.069   5.984 -20.570  0.00  0.00     0.249 C 
HETATM    4  N           1     -10.760   7.136 -20.836  0.00  0.00    -0.345 N 
ENDROOT
BRANCH   3   5
HETATM    5  C           1     -10.632   4.651 -20.999  0.00  0.00     0.275 C 
BRANCH   5   6
HETATM    6  C           1     -11.871   4.873 -21.854  0.00  0.00     0.053 C 
BRANCH   6   7
HETATM    7  C           1     -13.068   4.192 -21.204  0.00  0.00     0.115 C 
BRANCH   7   8
HETATM    8  C           1     -13.992   5.237 -20.630  0.00  0.00     0.172 C 
HETATM    9  O           1     -13.554   6.080 -19.817  0.00  0.00    -0.648 OA
HETATM   10  O           1     -15.195   5.260 -20.967  0.00  0.00    -0.648 OA
ENDBRANCH   7   8
ENDBRANCH   6   7
ENDBRANCH   5   6
BRANCH   5  11
HETATM   11  N           1     -11.001   3.851 -19.784  0.00  0.00    -0.066 N 
HETATM   12  H           1     -11.348   4.493 -19.036  0.00  0.00     0.275 HD
HETATM   13  H           1     -11.751   3.168 -20.031  0.00  0.00     0.275 HD
HETATM   14  H           1     -10.159   3.336 -19.437  0.00  0.00     0.275 HD
ENDBRANCH   5  11
ENDBRANCH   3   5
BRANCH   4  15
HETATM   15  C           1     -10.219   8.416 -20.424  0.00  0.00     0.186 C 
BRANCH  15  16
HETATM   16  C           1     -10.549   9.468 -21.476  0.00  0.00     0.046 C 
BRANCH  16  17
HETATM   17  C           1     -11.450   8.859 -22.541  0.00  0.00     0.076 C 
BRANCH  17  18
HETATM   18  S           1     -13.110   9.583 -22.418  0.00  0.00    -0.173 SA
HETATM   19  C           1     -12.584  11.162 -21.693  0.00  0.00     0.089 C 
ENDBRANCH  17  18
ENDBRANCH  16  17
ENDBRANCH  15  16
BRANCH  15  20
HETATM   20  C           1     -10.827   8.817 -19.103  0.00  0.00     0.196 C 
HETATM   21  O           1     -10.088   9.072 -18.126  0.00  0.00    -0.646 OA
HETATM   22  O           1     -12.068   8.896 -18.983  0.00  0.00    -0.646 OA
ENDBRANCH  15  20
ENDBRANCH   4  15
TORSDOF 10
ENDMDL
MODEL 8
REMARK VINA RESULT:      -4.9      2.340      3.420
REMARK  10 active torsions:
REMARK  status: ('A' for Active; 'I' for Inactive)
REMARK    1  A    between atoms: C_1  and  C_14 
REMARK    2  A    between atoms: C_1  and  C_2 
REMARK    3  A    between atoms: C_1  and  N_8 
REMARK    4  A    between atoms: C_2  and  C_3 
REMARK    5  A    between atoms: C_3  and  C_4 
REMARK    6  A    between atoms: S_6  and  C_7 
REMARK    7  A    between atoms: C_7  and  C_13 
REMARK    8  A    between atoms: C_13  and  C_22 
REMARK       I    between atoms: C_14  and  N_18 
REMARK    9  A    between atoms: N_18  and  C_22 
REMARK   10  A    between atoms: C_21  and  C_22 
ROOT
HETATM    1  O           1     -35.517  -2.474 -12.714  0.00  0.00    -0.271 OA
HETATM    2  H           1     -34.215  -0.085 -11.153  0.00  0.00     0.163 HD
HETATM    3  C           1     -34.704  -1.891 -12.037  0.00  0.00     0.249 C 
HETATM    4  N           1     -34.896  -0.573 -11.721  0.00  0.00    -0.345 N 
ENDROOT
BRANCH   3   5
HETATM    5  C           1     -33.478  -2.616 -11.540  0.00  0.00     0.275 C 
BRANCH   5   6
HETATM    6  C           1     -33.277  -3.890 -12.349  0.00  0.00     0.053 C 
BRANCH   6   7
HETATM    7  C           1     -33.167  -5.080 -11.405  0.00  0.00     0.115 C 
BRANCH   7   8
HETATM    8  C           1     -34.433  -5.897 -11.473  0.00  0.00     0.172 C 
HETATM    9  O           1     -35.172  -5.821 -12.478  0.00  0.00    -0.648 OA
HETATM   10  O           1     -34.743  -6.649 -10.524  0.00  0.00    -0.648 OA
ENDBRANCH   7   8
ENDBRANCH   6   7
ENDBRANCH   5   6
BRANCH   5  11
HETATM   11  N           1     -33.658  -2.967 -10.093  0.00  0.00    -0.066 N 
HETATM   12  H           1     -34.175  -3.872 -10.015  0.00  0.00     0.275 HD
HETATM   13  H           1     -32.722  -3.061  -9.638  0.00  0.00     0.275 HD
HETATM   14  H           1     -34.204  -2.212  -9.616  0.00  0.00     0.275 HD
ENDBRANCH   5  11
ENDBRANCH   3   5
BRANCH   4  15
HETATM   15  C           1     -36.074   0.123 -12.199  0.00  0.00     0.186 C 
BRANCH  15  16
HETATM   16  C           1     -36.551  -0.519 -13.496  0.00  0.00     0.046 C 
BRANCH  16  17
HETATM   17  C           1     -36.269   0.418 -14.662  0.00  0.00     0.076 C 
BRANCH  17  18
HETATM   18  S           1     -36.882  -0.326 -16.200  0.00  0.00    -0.173 SA
HETATM   19  C           1     -35.410  -1.334 -16.533  0.00  0.00     0.089 C 
ENDBRANCH  17  18
ENDBRANCH  16  17
ENDBRANCH  15  16
BRANCH  15  20
HETATM   20  C           1     -37.166   0.033 -11.161  0.00  0.00     0.196 C 
HETATM   21  O           1     -38.075  -0.817 -11.282  0.00  0.00    -0.646 OA
HETATM   22  O           1     -37.162   0.808 -10.181  0.00  0.00    -0.646 OA
ENDBRANCH  15  20
ENDBRANCH   4  15
TORSDOF 10
ENDMDL
MODEL 9
REMARK VINA RESULT:      -4.9     14.879     17.197
REMARK  10 active torsions:
REMARK  status: ('A' for Active; 'I' for Inactive)
REMARK    1  A    between atoms: C_1  and  C_14 
REMARK    2  A    between atoms: C_1  and  C_2 
REMARK    3  A    between atoms: C_1  and  N_8 
REMARK    4  A    between atoms: C_2  and  C_3 
REMARK    5  A    between atoms: C_3  and  C_4 
REMARK    6  A    between atoms: S_6  and  C_7 
REMARK    7  A    between atoms: C_7  and  C_13 
REMARK    8  A    between atoms: C_13  and  C_22 
REMARK       I    between atoms: C_14  and  N_18 
REMARK    9  A    between atoms: N_18  and  C_22 
REMARK   10  A    between atoms: C_21  and  C_22 
ROOT
HETATM    1  O           1     -20.595  -5.118  -5.051  0.00  0.00    -0.271 OA
HETATM    2  H           1     -21.060  -7.743  -6.703  0.00  0.00     0.163 HD
HETATM    3  C           1     -20.922  -5.806  -5.988  0.00  0.00     0.249 C 
HETATM    4  N           1     -20.786  -7.167  -5.918  0.00  0.00    -0.345 N 
ENDROOT
BRANCH   3   5
HETATM    5  C           1     -21.479  -5.166  -7.235  0.00  0.00     0.275 C 
BRANCH   5   6
HETATM    6  C           1     -20.474  -5.303  -8.370  0.00  0.00     0.053 C 
BRANCH   6   7
HETATM    7  C           1     -20.226  -3.938  -8.998  0.00  0.00     0.115 C 
BRANCH   7   8
HETATM    8  C           1     -20.766  -3.926 -10.407  0.00  0.00     0.172 C 
HETATM    9  O           1     -21.963  -3.633 -10.615  0.00  0.00    -0.648 OA
HETATM   10  O           1     -20.015  -4.209 -11.366  0.00  0.00    -0.648 OA
ENDBRANCH   7   8
ENDBRANCH   6   7
ENDBRANCH   5   6
BRANCH   5  11
HETATM   11  N           1     -21.743  -3.712  -6.975  0.00  0.00    -0.066 N 
HETATM   12  H           1     -22.688  -3.458  -7.344  0.00  0.00     0.275 HD
HETATM   13  H           1     -21.712  -3.531  -5.947  0.00  0.00     0.275 HD
HETATM   14  H           1     -21.015  -3.134  -7.454  0.00  0.00     0.275 HD
ENDBRANCH   5  11
ENDBRANCH   3   5
BRANCH   4  15
HETATM   15  C           1     -20.251  -7.781  -4.719  0.00  0.00     0.186 C 
BRANCH  15  16
HETATM   16  C           1     -21.393  -8.118  -3.769  0.00  0.00     0.046 C 
BRANCH  16  17
HETATM   17  C           1     -20.832  -8.435  -2.389  0.00  0.00     0.076 C 
BRANCH  17  18
HETATM   18  S           1     -21.894  -7.694  -1.118  0.00  0.00    -0.173 SA
HETATM   19  C           1     -22.175  -6.123  -1.983  0.00  0.00     0.089 C 
ENDBRANCH  17  18
ENDBRANCH  16  17
ENDBRANCH  15  16
BRANCH  15  20
HETATM   20  C           1     -19.512  -9.044  -5.088  0.00  0.00     0.196 C 
HETATM   21  O           1     -18.339  -9.220  -4.694  0.00  0.00    -0.646 OA
HETATM   22  O           1     -20.074  -9.915  -5.786  0.00  0.00    -0.646 OA
ENDBRANCH  15  20
ENDBRANCH   4  15
TORSDOF 10
ENDMDL
