MODEL 1
REMARK VINA RESULT:      -8.1      0.000      0.000
REMARK  6 active torsions:
REMARK  status: ('A' for Active; 'I' for Inactive)
REMARK    1  A    between atoms: C_1  and  C_21 
REMARK    2  A    between atoms: C_4  and  C_5 
REMARK    3  A    between atoms: C_5  and  C_23 
REMARK    4  A    between atoms: N_9  and  C_23 
REMARK    5  A    between atoms: C_21  and  N_22 
REMARK       I    between atoms: N_22  and  C_24 
REMARK    6  A    between atoms: C_23  and  C_24 
ROOT
HETATM    1  C           1     -21.065  -5.836  -6.888  0.00  0.00     0.278 C 
ENDROOT
BRANCH   1   2
HETATM    2  C           1     -21.087  -5.579  -5.387  0.00  0.00     0.083 C 
BRANCH   2   3
HETATM    3  C           1     -21.167  -6.884  -4.657  0.00  0.00    -0.028 A 
HETATM    4  C           1     -20.893  -8.126  -5.183  0.00  0.00     0.096 A 
HETATM    5  N           1     -21.087  -9.052  -4.193  0.00  0.00    -0.365 N 
HETATM    6  H           1     -20.951 -10.087  -4.304  0.00  0.00     0.165 HD
HETATM    7  C           1     -21.483  -8.430  -3.030  0.00  0.00     0.042 A 
HETATM    8  C           1     -21.542  -7.062  -3.297  0.00  0.00    -0.002 A 
HETATM    9  C           1     -21.792  -8.970  -1.775  0.00  0.00     0.030 A 
HETATM   10  C           1     -21.928  -6.187  -2.264  0.00  0.00     0.014 A 
HETATM   11  C           1     -22.239  -6.709  -1.003  0.00  0.00     0.001 A 
HETATM   12  C           1     -22.172  -8.080  -0.765  0.00  0.00     0.002 A 
ENDBRANCH   2   3
ENDBRANCH   1   2
BRANCH   1  13
HETATM   13  N           1     -19.655  -6.095  -7.330  0.00  0.00    -0.066 N 
HETATM   14  H           1     -19.008  -5.981  -6.516  0.00  0.00     0.275 HD
HETATM   15  H           1     -19.579  -7.069  -7.700  0.00  0.00     0.275 HD
HETATM   16  H           1     -19.395  -5.415  -8.080  0.00  0.00     0.275 HD
ENDBRANCH   1  13
BRANCH   1  17
HETATM   17  C           1     -21.606  -4.630  -7.614  0.00  0.00     0.249 C 
HETATM   18  O           1     -21.449  -3.525  -7.149  0.00  0.00    -0.271 OA
HETATM   19  N           1     -22.273  -4.786  -8.799  0.00  0.00    -0.345 N 
HETATM   20  H           1     -22.405  -5.712  -9.187  0.00  0.00     0.163 HD
BRANCH  19  21
HETATM   21  C           1     -22.793  -3.626  -9.496  0.00  0.00     0.181 C 
HETATM   22  C           1     -22.121  -3.508 -10.857  0.00  0.00     0.043 C 
BRANCH  21  23
HETATM   23  C           1     -24.283  -3.778  -9.683  0.00  0.00     0.196 C 
HETATM   24  O           1     -24.765  -4.893  -9.976  0.00  0.00    -0.646 OA
HETATM   25  O           1     -25.034  -2.789  -9.543  0.00  0.00    -0.646 OA
ENDBRANCH  21  23
ENDBRANCH  19  21
ENDBRANCH   1  17
TORSDOF 6
ENDMDL
MODEL 2
REMARK VINA RESULT:      -8.0      2.724      7.596
REMARK  6 active torsions:
REMARK  status: ('A' for Active; 'I' for Inactive)
REMARK    1  A    between atoms: C_1  and  C_21 
REMARK    2  A    between atoms: C_4  and  C_5 
REMARK    3  A    between atoms: C_5  and  C_23 
REMARK    4  A    between atoms: N_9  and  C_23 
REMARK    5  A    between atoms: C_21  and  N_22 
REMARK       I    between atoms: N_22  and  C_24 
REMARK    6  A    between atoms: C_23  and  C_24 
ROOT
HETATM    1  C           1     -22.182  -5.176  -6.696  0.00  0.00     0.278 C 
ENDROOT
BRANCH   1   2
HETATM    2  C           1     -21.569  -3.894  -7.244  0.00  0.00     0.083 C 
BRANCH   2   3
HETATM    3  C           1     -21.339  -4.040  -8.716  0.00  0.00    -0.028 A 
HETATM    4  C           1     -20.156  -4.397  -9.321  0.00  0.00     0.096 A 
HETATM    5  N           1     -20.365  -4.415 -10.674  0.00  0.00    -0.365 N 
HETATM    6  H           1     -19.637  -4.655 -11.391  0.00  0.00     0.165 HD
HETATM    7  C           1     -21.668  -4.074 -10.959  0.00  0.00     0.042 A 
HETATM    8  C           1     -22.303  -3.832  -9.740  0.00  0.00    -0.002 A 
HETATM    9  C           1     -22.326  -3.961 -12.190  0.00  0.00     0.030 A 
HETATM   10  C           1     -23.661  -3.458  -9.747  0.00  0.00     0.014 A 
HETATM   11  C           1     -24.335  -3.342 -10.968  0.00  0.00     0.001 A 
HETATM   12  C           1     -23.675  -3.590 -12.170  0.00  0.00     0.002 A 
ENDBRANCH   2   3
ENDBRANCH   1   2
BRANCH   1  13
HETATM   13  N           1     -23.625  -4.936  -6.362  0.00  0.00    -0.066 N 
HETATM   14  H           1     -24.172  -5.813  -6.527  0.00  0.00     0.275 HD
HETATM   15  H           1     -23.709  -4.659  -5.358  0.00  0.00     0.275 HD
HETATM   16  H           1     -24.000  -4.172  -6.969  0.00  0.00     0.275 HD
ENDBRANCH   1  13
BRANCH   1  17
HETATM   17  C           1     -21.442  -5.596  -5.451  0.00  0.00     0.249 C 
HETATM   18  O           1     -20.254  -5.392  -5.356  0.00  0.00    -0.271 OA
HETATM   19  N           1     -22.115  -6.209  -4.428  0.00  0.00    -0.345 N 
HETATM   20  H           1     -23.109  -6.381  -4.508  0.00  0.00     0.163 HD
BRANCH  19  21
HETATM   21  C           1     -21.403  -6.613  -3.231  0.00  0.00     0.181 C 
HETATM   22  C           1     -22.183  -6.171  -2.002  0.00  0.00     0.043 C 
BRANCH  21  23
HETATM   23  C           1     -21.254  -8.114  -3.219  0.00  0.00     0.196 C 
HETATM   24  O           1     -21.759  -8.801  -4.134  0.00  0.00    -0.646 OA
HETATM   25  O           1     -20.623  -8.672  -2.295  0.00  0.00    -0.646 OA
ENDBRANCH  21  23
ENDBRANCH  19  21
ENDBRANCH   1  17
TORSDOF 6
ENDMDL
MODEL 3
REMARK VINA RESULT:      -7.9      3.927      5.927
REMARK  6 active torsions:
REMARK  status: ('A' for Active; 'I' for Inactive)
REMARK    1  A    between atoms: C_1  and  C_21 
REMARK    2  A    between atoms: C_4  and  C_5 
REMARK    3  A    between atoms: C_5  and  C_23 
REMARK    4  A    between atoms: N_9  and  C_23 
REMARK    5  A    between atoms: C_21  and  N_22 
REMARK       I    between atoms: N_22  and  C_24 
REMARK    6  A    between atoms: C_23  and  C_24 
ROOT
HETATM    1  C           1     -23.628  -3.184 -10.753  0.00  0.00     0.278 C 
ENDROOT
BRANCH   1   2
HETATM    2  C           1     -22.965  -4.494 -10.350  0.00  0.00     0.083 C 
BRANCH   2   3
HETATM    3  C           1     -22.703  -4.489  -8.877  0.00  0.00    -0.028 A 
HETATM    4  C           1     -23.653  -4.419  -7.884  0.00  0.00     0.096 A 
HETATM    5  N           1     -23.003  -4.440  -6.679  0.00  0.00    -0.365 N 
HETATM    6  H           1     -23.473  -4.400  -5.741  0.00  0.00     0.165 HD
HETATM    7  C           1     -21.642  -4.523  -6.874  0.00  0.00     0.042 A 
HETATM    8  C           1     -21.427  -4.554  -8.252  0.00  0.00    -0.002 A 
HETATM    9  C           1     -20.596  -4.570  -5.944  0.00  0.00     0.030 A 
HETATM   10  C           1     -20.104  -4.637  -8.729  0.00  0.00     0.014 A 
HETATM   11  C           1     -19.047  -4.686  -7.814  0.00  0.00     0.001 A 
HETATM   12  C           1     -19.291  -4.653  -6.443  0.00  0.00     0.002 A 
ENDBRANCH   2   3
ENDBRANCH   1   2
BRANCH   1  13
HETATM   13  N           1     -25.076  -3.431 -11.061  0.00  0.00    -0.066 N 
HETATM   14  H           1     -25.311  -3.017 -11.992  0.00  0.00     0.275 HD
HETATM   15  H           1     -25.256  -4.461 -11.084  0.00  0.00     0.275 HD
HETATM   16  H           1     -25.669  -2.989 -10.323  0.00  0.00     0.275 HD
ENDBRANCH   1  13
BRANCH   1  17
HETATM   17  C           1     -22.944  -2.627 -11.976  0.00  0.00     0.249 C 
HETATM   18  O           1     -21.742  -2.496 -11.988  0.00  0.00    -0.271 OA
HETATM   19  N           1     -23.682  -2.270 -13.072  0.00  0.00    -0.345 N 
HETATM   20  H           1     -24.688  -2.380 -13.062  0.00  0.00     0.163 HD
BRANCH  19  21
HETATM   21  C           1     -23.023  -1.735 -14.248  0.00  0.00     0.181 C 
HETATM   22  C           1     -22.693  -2.869 -15.206  0.00  0.00     0.043 C 
BRANCH  21  23
HETATM   23  C           1     -23.939  -0.749 -14.931  0.00  0.00     0.196 C 
HETATM   24  O           1     -23.465   0.117 -15.698  0.00  0.00    -0.646 OA
HETATM   25  O           1     -25.172  -0.800 -14.731  0.00  0.00    -0.646 OA
ENDBRANCH  21  23
ENDBRANCH  19  21
ENDBRANCH   1  17
TORSDOF 6
ENDMDL
MODEL 4
REMARK VINA RESULT:      -7.9      2.615      7.955
REMARK  6 active torsions:
REMARK  status: ('A' for Active; 'I' for Inactive)
REMARK    1  A    between atoms: C_1  and  C_21 
REMARK    2  A    between atoms: C_4  and  C_5 
REMARK    3  A    between atoms: C_5  and  C_23 
REMARK    4  A    between atoms: N_9  and  C_23 
REMARK    5  A    between atoms: C_21  and  N_22 
REMARK       I    between atoms: N_22  and  C_24 
REMARK    6  A    between atoms: C_23  and  C_24 
ROOT
HETATM    1  C           1     -22.094  -4.315  -7.231  0.00  0.00     0.278 C 
ENDROOT
BRANCH   1   2
HETATM    2  C           1     -21.951  -4.834  -8.656  0.00  0.00     0.083 C 
BRANCH   2   3
HETATM    3  C           1     -23.059  -4.287  -9.501  0.00  0.00    -0.028 A 
HETATM    4  C           1     -24.366  -4.110  -9.110  0.00  0.00     0.096 A 
HETATM    5  N           1     -25.055  -3.590 -10.173  0.00  0.00    -0.365 N 
HETATM    6  H           1     -26.077  -3.349 -10.167  0.00  0.00     0.165 HD
HETATM    7  C           1     -24.214  -3.427 -11.251  0.00  0.00     0.042 A 
HETATM    8  C           1     -22.949  -3.860 -10.853  0.00  0.00    -0.002 A 
HETATM    9  C           1     -24.475  -2.934 -12.536  0.00  0.00     0.030 A 
HETATM   10  C           1     -21.891  -3.801 -11.780  0.00  0.00     0.014 A 
HETATM   11  C           1     -22.134  -3.311 -13.068  0.00  0.00     0.001 A 
HETATM   12  C           1     -23.407  -2.885 -13.438  0.00  0.00     0.002 A 
ENDBRANCH   2   3
ENDBRANCH   1   2
BRANCH   1  13
HETATM   13  N           1     -21.569  -2.912  -7.156  0.00  0.00    -0.066 N 
HETATM   14  H           1     -21.755  -2.420  -8.061  0.00  0.00     0.275 HD
HETATM   15  H           1     -22.047  -2.403  -6.379  0.00  0.00     0.275 HD
HETATM   16  H           1     -20.540  -2.935  -6.977  0.00  0.00     0.275 HD
ENDBRANCH   1  13
BRANCH   1  17
HETATM   17  C           1     -21.308  -5.196  -6.293  0.00  0.00     0.249 C 
HETATM   18  O           1     -20.113  -5.314  -6.433  0.00  0.00    -0.271 OA
HETATM   19  N           1     -21.947  -5.862  -5.282  0.00  0.00    -0.345 N 
HETATM   20  H           1     -22.948  -5.764  -5.165  0.00  0.00     0.163 HD
BRANCH  19  21
HETATM   21  C           1     -21.191  -6.709  -4.380  0.00  0.00     0.181 C 
HETATM   22  C           1     -21.652  -6.467  -2.950  0.00  0.00     0.043 C 
BRANCH  21  23
HETATM   23  C           1     -21.417  -8.156  -4.742  0.00  0.00     0.196 C 
HETATM   24  O           1     -21.803  -8.966  -3.872  0.00  0.00    -0.646 OA
HETATM   25  O           1     -21.219  -8.544  -5.914  0.00  0.00    -0.646 OA
ENDBRANCH  21  23
ENDBRANCH  19  21
ENDBRANCH   1  17
TORSDOF 6
ENDMDL
MODEL 5
REMARK VINA RESULT:      -7.8      2.550      7.611
REMARK  6 active torsions:
REMARK  status: ('A' for Active; 'I' for Inactive)
REMARK    1  A    between atoms: C_1  and  C_21 
REMARK    2  A    between atoms: C_4  and  C_5 
REMARK    3  A    between atoms: C_5  and  C_23 
REMARK    4  A    between atoms: N_9  and  C_23 
REMARK    5  A    between atoms: C_21  and  N_22 
REMARK       I    between atoms: N_22  and  C_24 
REMARK    6  A    between atoms: C_23  and  C_24 
ROOT
HETATM    1  C           1     -20.532  -4.851  -6.755  0.00  0.00     0.278 C 
ENDROOT
BRANCH   1   2
HETATM    2  C           1     -20.727  -5.097  -8.246  0.00  0.00     0.083 C 
BRANCH   2   3
HETATM    3  C           1     -22.037  -4.519  -8.681  0.00  0.00    -0.028 A 
HETATM    4  C           1     -23.139  -4.314  -7.884  0.00  0.00     0.096 A 
HETATM    5  N           1     -24.125  -3.770  -8.663  0.00  0.00    -0.365 N 
HETATM    6  H           1     -25.083  -3.506  -8.323  0.00  0.00     0.165 HD
HETATM    7  C           1     -23.680  -3.618  -9.957  0.00  0.00     0.042 A 
HETATM    8  C           1     -22.365  -4.083  -9.995  0.00  0.00    -0.002 A 
HETATM    9  C           1     -24.335  -3.109 -11.085  0.00  0.00     0.030 A 
HETATM   10  C           1     -21.667  -4.041 -11.217  0.00  0.00     0.014 A 
HETATM   11  C           1     -22.306  -3.535 -12.355  0.00  0.00     0.001 A 
HETATM   12  C           1     -23.620  -3.077 -12.287  0.00  0.00     0.002 A 
ENDBRANCH   2   3
ENDBRANCH   1   2
BRANCH   1  13
HETATM   13  N           1     -19.095  -4.514  -6.488  0.00  0.00    -0.066 N 
HETATM   14  H           1     -19.009  -4.074  -5.544  0.00  0.00     0.275 HD
HETATM   15  H           1     -18.522  -5.388  -6.517  0.00  0.00     0.275 HD
HETATM   16  H           1     -18.752  -3.848  -7.217  0.00  0.00     0.275 HD
ENDBRANCH   1  13
BRANCH   1  17
HETATM   17  C           1     -20.909  -6.091  -5.985  0.00  0.00     0.249 C 
HETATM   18  O           1     -21.205  -7.103  -6.577  0.00  0.00    -0.271 OA
HETATM   19  N           1     -20.915  -6.073  -4.617  0.00  0.00    -0.345 N 
HETATM   20  H           1     -20.668  -5.225  -4.121  0.00  0.00     0.163 HD
BRANCH  19  21
HETATM   21  C           1     -21.278  -7.266  -3.877  0.00  0.00     0.181 C 
HETATM   22  C           1     -20.080  -8.203  -3.806  0.00  0.00     0.043 C 
BRANCH  21  23
HETATM   23  C           1     -21.699  -6.882  -2.480  0.00  0.00     0.196 C 
HETATM   24  O           1     -22.482  -5.924  -2.304  0.00  0.00    -0.646 OA
HETATM   25  O           1     -21.266  -7.523  -1.498  0.00  0.00    -0.646 OA
ENDBRANCH  21  23
ENDBRANCH  19  21
ENDBRANCH   1  17
TORSDOF 6
ENDMDL
MODEL 6
REMARK VINA RESULT:      -7.7      3.171      7.554
REMARK  6 active torsions:
REMARK  status: ('A' for Active; 'I' for Inactive)
REMARK    1  A    between atoms: C_1  and  C_21 
REMARK    2  A    between atoms: C_4  and  C_5 
REMARK    3  A    between atoms: C_5  and  C_23 
REMARK    4  A    between atoms: N_9  and  C_23 
REMARK    5  A    between atoms: C_21  and  N_22 
REMARK       I    between atoms: N_22  and  C_24 
REMARK    6  A    between atoms: C_23  and  C_24 
ROOT
HETATM    1  C           1     -20.809  -5.488  -6.142  0.00  0.00     0.278 C 
ENDROOT
BRANCH   1   2
HETATM    2  C           1     -20.606  -5.176  -7.618  0.00  0.00     0.083 C 
BRANCH   2   3
HETATM    3  C           1     -21.868  -4.608  -8.187  0.00  0.00    -0.028 A 
HETATM    4  C           1     -23.052  -4.423  -7.510  0.00  0.00     0.096 A 
HETATM    5  N           1     -23.956  -3.883  -8.387  0.00  0.00    -0.365 N 
HETATM    6  H           1     -24.947  -3.633  -8.149  0.00  0.00     0.165 HD
HETATM    7  C           1     -23.377  -3.716  -9.625  0.00  0.00     0.042 A 
HETATM    8  C           1     -22.060  -4.166  -9.526  0.00  0.00    -0.002 A 
HETATM    9  C           1     -23.914  -3.206 -10.813  0.00  0.00     0.030 A 
HETATM   10  C           1     -21.236  -4.107 -10.666  0.00  0.00     0.014 A 
HETATM   11  C           1     -21.757  -3.599 -11.862  0.00  0.00     0.001 A 
HETATM   12  C           1     -23.076  -3.156 -11.932  0.00  0.00     0.002 A 
ENDBRANCH   2   3
ENDBRANCH   1   2
BRANCH   1  13
HETATM   13  N           1     -20.120  -4.445  -5.311  0.00  0.00    -0.066 N 
HETATM   14  H           1     -20.609  -3.528  -5.427  0.00  0.00     0.275 HD
HETATM   15  H           1     -20.146  -4.728  -4.306  0.00  0.00     0.275 HD
HETATM   16  H           1     -19.127  -4.353  -5.623  0.00  0.00     0.275 HD
ENDBRANCH   1  13
BRANCH   1  17
HETATM   17  C           1     -20.226  -6.844  -5.828  0.00  0.00     0.249 C 
HETATM   18  O           1     -19.395  -7.328  -6.560  0.00  0.00    -0.271 OA
HETATM   19  N           1     -20.640  -7.526  -4.716  0.00  0.00    -0.345 N 
HETATM   20  H           1     -21.337  -7.121  -4.104  0.00  0.00     0.163 HD
BRANCH  19  21
HETATM   21  C           1     -20.080  -8.830  -4.415  0.00  0.00     0.181 C 
HETATM   22  C           1     -19.821  -8.939  -2.920  0.00  0.00     0.043 C 
BRANCH  21  23
HETATM   23  C           1     -21.053  -9.903  -4.837  0.00  0.00     0.196 C 
HETATM   24  O           1     -21.871 -10.364  -4.011  0.00  0.00    -0.646 OA
HETATM   25  O           1     -21.042 -10.330  -6.011  0.00  0.00    -0.646 OA
ENDBRANCH  21  23
ENDBRANCH  19  21
ENDBRANCH   1  17
TORSDOF 6
ENDMDL
MODEL 7
REMARK VINA RESULT:      -7.7     13.250     15.531
REMARK  6 active torsions:
REMARK  status: ('A' for Active; 'I' for Inactive)
REMARK    1  A    between atoms: C_1  and  C_21 
REMARK    2  A    between atoms: C_4  and  C_5 
REMARK    3  A    between atoms: C_5  and  C_23 
REMARK    4  A    between atoms: N_9  and  C_23 
REMARK    5  A    between atoms: C_21  and  N_22 
REMARK       I    between atoms: N_22  and  C_24 
REMARK    6  A    between atoms: C_23  and  C_24 
ROOT
HETATM    1  C           1     -36.019  -0.369 -11.161  0.00  0.00     0.278 C 
ENDROOT
BRANCH   1   2
HETATM    2  C           1     -36.199  -1.815 -10.718  0.00  0.00     0.083 C 
BRANCH   2   3
HETATM    3  C           1     -34.932  -2.574 -10.963  0.00  0.00    -0.028 A 
HETATM    4  C           1     -33.722  -2.035 -11.334  0.00  0.00     0.096 A 
HETATM    5  N           1     -32.824  -3.062 -11.455  0.00  0.00    -0.365 N 
HETATM    6  H           1     -31.817  -2.951 -11.726  0.00  0.00     0.165 HD
HETATM    7  C           1     -33.434  -4.263 -11.168  0.00  0.00     0.042 A 
HETATM    8  C           1     -34.765  -3.982 -10.855  0.00  0.00    -0.002 A 
HETATM    9  C           1     -32.915  -5.563 -11.163  0.00  0.00     0.030 A 
HETATM   10  C           1     -35.621  -5.049 -10.520  0.00  0.00     0.014 A 
HETATM   11  C           1     -35.118  -6.355 -10.509  0.00  0.00     0.001 A 
HETATM   12  C           1     -33.785  -6.605 -10.826  0.00  0.00     0.002 A 
ENDBRANCH   2   3
ENDBRANCH   1   2
BRANCH   1  13
HETATM   13  N           1     -36.735   0.539 -10.204  0.00  0.00    -0.066 N 
HETATM   14  H           1     -37.758   0.537 -10.421  0.00  0.00     0.275 HD
HETATM   15  H           1     -36.586   0.200  -9.227  0.00  0.00     0.275 HD
HETATM   16  H           1     -36.360   1.509 -10.299  0.00  0.00     0.275 HD
ENDBRANCH   1  13
BRANCH   1  17
HETATM   17  C           1     -36.591  -0.190 -12.545  0.00  0.00     0.249 C 
HETATM   18  O           1     -37.775  -0.345 -12.734  0.00  0.00    -0.271 OA
HETATM   19  N           1     -35.770   0.147 -13.587  0.00  0.00    -0.345 N 
HETATM   20  H           1     -34.779   0.275 -13.429  0.00  0.00     0.163 HD
BRANCH  19  21
HETATM   21  C           1     -36.321   0.318 -14.918  0.00  0.00     0.181 C 
HETATM   22  C           1     -35.834   1.636 -15.503  0.00  0.00     0.043 C 
BRANCH  21  23
HETATM   23  C           1     -35.869  -0.821 -15.798  0.00  0.00     0.196 C 
HETATM   24  O           1     -35.150  -1.728 -15.327  0.00  0.00    -0.646 OA
HETATM   25  O           1     -36.216  -0.858 -16.999  0.00  0.00    -0.646 OA
ENDBRANCH  21  23
ENDBRANCH  19  21
ENDBRANCH   1  17
TORSDOF 6
ENDMDL
MODEL 8
REMARK VINA RESULT:      -7.3      3.816      5.896
REMARK  6 active torsions:
REMARK  status: ('A' for Active; 'I' for Inactive)
REMARK    1  A    between atoms: C_1  and  C_21 
REMARK    2  A    between atoms: C_4  and  C_5 
REMARK    3  A    between atoms: C_5  and  C_23 
REMARK    4  A    between atoms: N_9  and  C_23 
REMARK    5  A    between atoms: C_21  and  N_22 
REMARK       I    between atoms: N_22  and  C_24 
REMARK    6  A    between atoms: C_23  and  C_24 
ROOT
HETATM    1  C           1     -24.297  -3.415 -10.258  0.00  0.00     0.278 C 
ENDROOT
BRANCH   1   2
HETATM    2  C           1     -23.722  -4.718  -9.717  0.00  0.00     0.083 C 
BRANCH   2   3
HETATM    3  C           1     -22.252  -4.556  -9.482  0.00  0.00    -0.028 A 
HETATM    4  C           1     -21.306  -4.254 -10.434  0.00  0.00     0.096 A 
HETATM    5  N           1     -20.088  -4.198  -9.812  0.00  0.00    -0.365 N 
HETATM    6  H           1     -19.178  -3.985 -10.290  0.00  0.00     0.165 HD
HETATM    7  C           1     -20.228  -4.459  -8.467  0.00  0.00     0.042 A 
HETATM    8  C           1     -21.584  -4.688  -8.233  0.00  0.00    -0.002 A 
HETATM    9  C           1     -19.266  -4.509  -7.450  0.00  0.00     0.030 A 
HETATM   10  C           1     -22.005  -4.984  -6.922  0.00  0.00     0.014 A 
HETATM   11  C           1     -21.057  -5.037  -5.894  0.00  0.00     0.001 A 
HETATM   12  C           1     -19.709  -4.804  -6.156  0.00  0.00     0.002 A 
ENDBRANCH   2   3
ENDBRANCH   1   2
BRANCH   1  13
HETATM   13  N           1     -25.697  -3.238  -9.748  0.00  0.00    -0.066 N 
HETATM   14  H           1     -25.839  -3.838  -8.904  0.00  0.00     0.275 HD
HETATM   15  H           1     -25.849  -2.236  -9.492  0.00  0.00     0.275 HD
HETATM   16  H           1     -26.375  -3.515 -10.493  0.00  0.00     0.275 HD
ENDBRANCH   1  13
BRANCH   1  17
HETATM   17  C           1     -24.313  -3.459 -11.766  0.00  0.00     0.249 C 
HETATM   18  O           1     -24.590  -4.487 -12.337  0.00  0.00    -0.271 OA
HETATM   19  N           1     -24.015  -2.334 -12.487  0.00  0.00    -0.345 N 
HETATM   20  H           1     -23.783  -1.473 -12.008  0.00  0.00     0.163 HD
BRANCH  19  21
HETATM   21  C           1     -24.031  -2.377 -13.936  0.00  0.00     0.181 C 
HETATM   22  C           1     -24.333  -0.989 -14.482  0.00  0.00     0.043 C 
BRANCH  21  23
HETATM   23  C           1     -22.683  -2.833 -14.439  0.00  0.00     0.196 C 
HETATM   24  O           1     -22.401  -2.728 -15.653  0.00  0.00    -0.646 OA
HETATM   25  O           1     -21.849  -3.314 -13.643  0.00  0.00    -0.646 OA
ENDBRANCH  21  23
ENDBRANCH  19  21
ENDBRANCH   1  17
TORSDOF 6
ENDMDL
MODEL 9
REMARK VINA RESULT:      -7.3      2.404      7.682
REMARK  6 active torsions:
REMARK  status: ('A' for Active; 'I' for Inactive)
REMARK    1  A    between atoms: C_1  and  C_21 
REMARK    2  A    between atoms: C_4  and  C_5 
REMARK    3  A    between atoms: C_5  and  C_23 
REMARK    4  A    between atoms: N_9  and  C_23 
REMARK    5  A    between atoms: C_21  and  N_22 
REMARK       I    between atoms: N_22  and  C_24 
REMARK    6  A    between atoms: C_23  and  C_24 
ROOT
HETATM    1  C           1     -21.409  -4.497  -7.483  0.00  0.00     0.278 C 
ENDROOT
BRANCH   1   2
HETATM    2  C           1     -21.245  -5.419  -8.684  0.00  0.00     0.083 C 
BRANCH   2   3
HETATM    3  C           1     -21.195  -4.603  -9.938  0.00  0.00    -0.028 A 
HETATM    4  C           1     -20.060  -4.240 -10.625  0.00  0.00     0.096 A 
HETATM    5  N           1     -20.446  -3.500 -11.711  0.00  0.00    -0.365 N 
HETATM    6  H           1     -19.791  -3.087 -12.420  0.00  0.00     0.165 HD
HETATM    7  C           1     -21.817  -3.376 -11.740  0.00  0.00     0.042 A 
HETATM    8  C           1     -22.313  -4.063 -10.631  0.00  0.00    -0.002 A 
HETATM    9  C           1     -22.647  -2.714 -12.653  0.00  0.00     0.030 A 
HETATM   10  C           1     -23.706  -4.092 -10.420  0.00  0.00     0.014 A 
HETATM   11  C           1     -24.550  -3.437 -11.323  0.00  0.00     0.001 A 
HETATM   12  C           1     -24.026  -2.759 -12.422  0.00  0.00     0.002 A 
ENDBRANCH   2   3
ENDBRANCH   1   2
BRANCH   1  13
HETATM   13  N           1     -20.057  -4.071  -6.991  0.00  0.00    -0.066 N 
HETATM   14  H           1     -20.087  -3.946  -5.953  0.00  0.00     0.275 HD
HETATM   15  H           1     -19.353  -4.805  -7.232  0.00  0.00     0.275 HD
HETATM   16  H           1     -19.790  -3.168  -7.444  0.00  0.00     0.275 HD
ENDBRANCH   1  13
BRANCH   1  17
HETATM   17  C           1     -22.137  -5.227  -6.382  0.00  0.00     0.249 C 
HETATM   18  O           1     -23.323  -5.050  -6.222  0.00  0.00    -0.271 OA
HETATM   19  N           1     -21.457  -6.088  -5.565  0.00  0.00    -0.345 N 
HETATM   20  H           1     -20.465  -6.235  -5.700  0.00  0.00     0.163 HD
BRANCH  19  21
HETATM   21  C           1     -22.158  -6.790  -4.507  0.00  0.00     0.181 C 
HETATM   22  C           1     -21.707  -8.243  -4.475  0.00  0.00     0.043 C 
BRANCH  21  23
HETATM   23  C           1     -21.847  -6.138  -3.182  0.00  0.00     0.196 C 
HETATM   24  O           1     -20.737  -5.593  -2.998  0.00  0.00    -0.646 OA
HETATM   25  O           1     -22.701  -6.142  -2.269  0.00  0.00    -0.646 OA
ENDBRANCH  21  23
ENDBRANCH  19  21
ENDBRANCH   1  17
TORSDOF 6
ENDMDL
