MODEL 1
REMARK VINA RESULT:      -5.8      0.000      0.000
REMARK  7 active torsions:
REMARK  status: ('A' for Active; 'I' for Inactive)
REMARK    1  A    between atoms: N_2  and  C_15 
REMARK       I    between atoms: N_2  and  C_3 
REMARK    2  A    between atoms: C_3  and  C_17 
REMARK    3  A    between atoms: N_7  and  C_17 
REMARK    4  A    between atoms: Se_12  and  C_13 
REMARK    5  A    between atoms: C_13  and  C_14 
REMARK    6  A    between atoms: C_14  and  C_15 
REMARK    7  A    between atoms: C_15  and  C_16 
ROOT
HETATM    1  N           1     -23.286  -2.125 -12.906  0.00  0.00    -0.345 N 
HETATM    2  C           1     -23.571  -2.153 -14.244  0.00  0.00     0.243 C 
HETATM    3  O           1     -23.445  -3.180 -14.867  0.00  0.00    -0.272 OA
HETATM    4  H           1     -23.392  -1.265 -12.384  0.00  0.00     0.163 HD
ENDROOT
BRANCH   1   5
HETATM    5  C           1     -22.831  -3.328 -12.236  0.00  0.00     0.185 C 
BRANCH   5   6
HETATM    6  C           1     -21.697  -2.979 -11.281  0.00  0.00     0.036 C 
BRANCH   6   7
HETATM    7  C           1     -20.735  -4.155 -11.183  0.00  0.00     0.003 C 
BRANCH   7   8
HETATM    8 Se           1     -20.223  -4.425  -9.322  0.00  0.00     0.000 Se
HETATM    9  C           1     -21.943  -3.862  -8.597  0.00  0.00     0.000 C 
ENDBRANCH   7   8
ENDBRANCH   6   7
ENDBRANCH   5   6
BRANCH   5  10
HETATM   10  C           1     -23.975  -3.933 -11.460  0.00  0.00     0.196 C 
HETATM   11  O           1     -24.932  -3.216 -11.096  0.00  0.00    -0.646 OA
HETATM   12  O           1     -23.965  -5.152 -11.179  0.00  0.00    -0.646 OA
ENDBRANCH   5  10
ENDBRANCH   1   5
BRANCH   2  13
HETATM   13  C           1     -24.044  -0.901 -14.941  0.00  0.00     0.332 C 
BRANCH  13  14
HETATM   14  N           1     -23.053  -0.509 -15.996  0.00  0.00    -0.071 N 
HETATM   15  H           1     -22.287   0.053 -15.561  0.00  0.00     0.274 HD
HETATM   16  H           1     -23.533   0.062 -16.728  0.00  0.00     0.274 HD
HETATM   17  H           1     -22.649  -1.368 -16.432  0.00  0.00     0.274 HD
ENDBRANCH  13  14
ENDBRANCH   2  13
TORSDOF 7
ENDMDL
MODEL 2
REMARK VINA RESULT:      -5.5     11.649     12.466
REMARK  7 active torsions:
REMARK  status: ('A' for Active; 'I' for Inactive)
REMARK    1  A    between atoms: N_2  and  C_15 
REMARK       I    between atoms: N_2  and  C_3 
REMARK    2  A    between atoms: C_3  and  C_17 
REMARK    3  A    between atoms: N_7  and  C_17 
REMARK    4  A    between atoms: Se_12  and  C_13 
REMARK    5  A    between atoms: C_13  and  C_14 
REMARK    6  A    between atoms: C_14  and  C_15 
REMARK    7  A    between atoms: C_15  and  C_16 
ROOT
HETATM    1  N           1     -34.693  -0.444 -12.188  0.00  0.00    -0.345 N 
HETATM    2  C           1     -35.121  -0.307 -13.481  0.00  0.00     0.243 C 
HETATM    3  O           1     -35.790  -1.173 -13.991  0.00  0.00    -0.272 OA
HETATM    4  H           1     -34.132   0.282 -11.761  0.00  0.00     0.163 HD
ENDROOT
BRANCH   1   5
HETATM    5  C           1     -35.043  -1.630 -11.431  0.00  0.00     0.185 C 
BRANCH   5   6
HETATM    6  C           1     -33.832  -2.099 -10.636  0.00  0.00     0.036 C 
BRANCH   6   7
HETATM    7  C           1     -33.167  -3.261 -11.362  0.00  0.00     0.003 C 
BRANCH   7   8
HETATM    8 Se           1     -34.535  -4.432 -12.107  0.00  0.00     0.000 Se
HETATM    9  C           1     -34.052  -5.967 -11.007  0.00  0.00     0.000 C 
ENDBRANCH   7   8
ENDBRANCH   6   7
ENDBRANCH   5   6
BRANCH   5  10
HETATM   10  C           1     -36.172  -1.305 -10.484  0.00  0.00     0.196 C 
HETATM   11  O           1     -35.947  -0.645  -9.446  0.00  0.00    -0.646 OA
HETATM   12  O           1     -37.333  -1.696 -10.737  0.00  0.00    -0.646 OA
ENDBRANCH   5  10
ENDBRANCH   1   5
BRANCH   2  13
HETATM   13  C           1     -34.756   0.927 -14.270  0.00  0.00     0.332 C 
BRANCH  13  14
HETATM   14  N           1     -35.910   1.325 -15.140  0.00  0.00    -0.071 N 
HETATM   15  H           1     -36.211   0.506 -15.715  0.00  0.00     0.274 HD
HETATM   16  H           1     -35.617   2.106 -15.771  0.00  0.00     0.274 HD
HETATM   17  H           1     -36.706   1.642 -14.543  0.00  0.00     0.274 HD
ENDBRANCH  13  14
ENDBRANCH   2  13
TORSDOF 7
ENDMDL
MODEL 3
REMARK VINA RESULT:      -5.4     12.792     14.152
REMARK  7 active torsions:
REMARK  status: ('A' for Active; 'I' for Inactive)
REMARK    1  A    between atoms: N_2  and  C_15 
REMARK       I    between atoms: N_2  and  C_3 
REMARK    2  A    between atoms: C_3  and  C_17 
REMARK    3  A    between atoms: N_7  and  C_17 
REMARK    4  A    between atoms: Se_12  and  C_13 
REMARK    5  A    between atoms: C_13  and  C_14 
REMARK    6  A    between atoms: C_14  and  C_15 
REMARK    7  A    between atoms: C_15  and  C_16 
ROOT
HETATM    1  N           1     -36.011   0.338 -11.512  0.00  0.00    -0.345 N 
HETATM    2  C           1     -37.248   0.032 -11.012  0.00  0.00     0.243 C 
HETATM    3  O           1     -37.969  -0.732 -11.608  0.00  0.00    -0.272 OA
HETATM    4  H           1     -35.407   0.977 -11.012  0.00  0.00     0.163 HD
ENDROOT
BRANCH   1   5
HETATM    5  C           1     -35.566  -0.255 -12.759  0.00  0.00     0.185 C 
BRANCH   5   6
HETATM    6  C           1     -34.702   0.745 -13.515  0.00  0.00     0.036 C 
BRANCH   6   7
HETATM    7  C           1     -35.430   1.194 -14.775  0.00  0.00     0.003 C 
BRANCH   7   8
HETATM    8 Se           1     -36.884  -0.044 -15.163  0.00  0.00     0.000 Se
HETATM    9  C           1     -35.920  -0.993 -16.566  0.00  0.00     0.000 C 
ENDBRANCH   7   8
ENDBRANCH   6   7
ENDBRANCH   5   6
BRANCH   5  10
HETATM   10  C           1     -34.760  -1.496 -12.464  0.00  0.00     0.196 C 
HETATM   11  O           1     -34.133  -1.594 -11.388  0.00  0.00    -0.646 OA
HETATM   12  O           1     -34.718  -2.427 -13.298  0.00  0.00    -0.646 OA
ENDBRANCH   5  10
ENDBRANCH   1   5
BRANCH   2  13
HETATM   13  C           1     -37.710   0.649  -9.715  0.00  0.00     0.332 C 
BRANCH  13  14
HETATM   14  N           1     -36.557   1.335  -9.046  0.00  0.00    -0.071 N 
HETATM   15  H           1     -36.095   1.980  -9.725  0.00  0.00     0.274 HD
HETATM   16  H           1     -35.868   0.618  -8.720  0.00  0.00     0.274 HD
HETATM   17  H           1     -36.903   1.882  -8.226  0.00  0.00     0.274 HD
ENDBRANCH  13  14
ENDBRANCH   2  13
TORSDOF 7
ENDMDL
MODEL 4
REMARK VINA RESULT:      -5.2      3.679      5.953
REMARK  7 active torsions:
REMARK  status: ('A' for Active; 'I' for Inactive)
REMARK    1  A    between atoms: N_2  and  C_15 
REMARK       I    between atoms: N_2  and  C_3 
REMARK    2  A    between atoms: C_3  and  C_17 
REMARK    3  A    between atoms: N_7  and  C_17 
REMARK    4  A    between atoms: Se_12  and  C_13 
REMARK    5  A    between atoms: C_13  and  C_14 
REMARK    6  A    between atoms: C_14  and  C_15 
REMARK    7  A    between atoms: C_15  and  C_16 
ROOT
HETATM    1  N           1     -22.230  -4.729  -8.631  0.00  0.00    -0.345 N 
HETATM    2  C           1     -21.656  -4.316  -7.459  0.00  0.00     0.243 C 
HETATM    3  O           1     -21.562  -3.137  -7.215  0.00  0.00    -0.272 OA
HETATM    4  H           1     -22.309  -5.717  -8.835  0.00  0.00     0.163 HD
ENDROOT
BRANCH   1   5
HETATM    5  C           1     -22.724  -3.751  -9.581  0.00  0.00     0.185 C 
BRANCH   5   6
HETATM    6  C           1     -22.140  -4.042 -10.957  0.00  0.00     0.036 C 
BRANCH   6   7
HETATM    7  C           1     -22.382  -2.850 -11.873  0.00  0.00     0.003 C 
BRANCH   7   8
HETATM    8 Se           1     -23.822  -3.266 -13.118  0.00  0.00     0.000 Se
HETATM    9  C           1     -22.883  -2.589 -14.686  0.00  0.00     0.000 C 
ENDBRANCH   7   8
ENDBRANCH   6   7
ENDBRANCH   5   6
BRANCH   5  10
HETATM   10  C           1     -24.229  -3.830  -9.645  0.00  0.00     0.196 C 
HETATM   11  O           1     -24.788  -4.920  -9.894  0.00  0.00    -0.646 OA
HETATM   12  O           1     -24.918  -2.805  -9.451  0.00  0.00    -0.646 OA
ENDBRANCH   5  10
ENDBRANCH   1   5
BRANCH   2  13
HETATM   13  C           1     -21.142  -5.334  -6.470  0.00  0.00     0.332 C 
BRANCH  13  14
HETATM   14  N           1     -20.417  -6.423  -7.203  0.00  0.00    -0.071 N 
HETATM   15  H           1     -20.994  -6.740  -8.014  0.00  0.00     0.274 HD
HETATM   16  H           1     -20.252  -7.227  -6.556  0.00  0.00     0.274 HD
HETATM   17  H           1     -19.500  -6.061  -7.548  0.00  0.00     0.274 HD
ENDBRANCH  13  14
ENDBRANCH   2  13
TORSDOF 7
ENDMDL
MODEL 5
REMARK VINA RESULT:      -4.6      8.206      9.481
REMARK  7 active torsions:
REMARK  status: ('A' for Active; 'I' for Inactive)
REMARK    1  A    between atoms: N_2  and  C_15 
REMARK       I    between atoms: N_2  and  C_3 
REMARK    2  A    between atoms: C_3  and  C_17 
REMARK    3  A    between atoms: N_7  and  C_17 
REMARK    4  A    between atoms: Se_12  and  C_13 
REMARK    5  A    between atoms: C_13  and  C_14 
REMARK    6  A    between atoms: C_14  and  C_15 
REMARK    7  A    between atoms: C_15  and  C_16 
ROOT
HETATM    1  N           1     -27.163  -6.734 -17.599  0.00  0.00    -0.345 N 
HETATM    2  C           1     -26.898  -6.471 -16.282  0.00  0.00     0.243 C 
HETATM    3  O           1     -27.687  -5.838 -15.622  0.00  0.00    -0.272 OA
HETATM    4  H           1     -26.502  -7.265 -18.151  0.00  0.00     0.163 HD
ENDROOT
BRANCH   1   5
HETATM    5  C           1     -28.390  -6.251 -18.202  0.00  0.00     0.185 C 
BRANCH   5   6
HETATM    6  C           1     -28.171  -6.035 -19.693  0.00  0.00     0.036 C 
BRANCH   6   7
HETATM    7  C           1     -26.732  -6.384 -20.051  0.00  0.00     0.003 C 
BRANCH   7   8
HETATM    8 Se           1     -26.700  -8.045 -21.070  0.00  0.00     0.000 Se
HETATM    9  C           1     -24.772  -8.023 -21.357  0.00  0.00     0.000 C 
ENDBRANCH   7   8
ENDBRANCH   6   7
ENDBRANCH   5   6
BRANCH   5  10
HETATM   10  C           1     -29.484  -7.270 -17.997  0.00  0.00     0.196 C 
HETATM   11  O           1     -30.343  -7.094 -17.106  0.00  0.00    -0.646 OA
HETATM   12  O           1     -29.531  -8.291 -18.718  0.00  0.00    -0.646 OA
ENDBRANCH   5  10
ENDBRANCH   1   5
BRANCH   2  13
HETATM   13  C           1     -25.621  -6.973 -15.654  0.00  0.00     0.332 C 
BRANCH  13  14
HETATM   14  N           1     -24.667  -7.399 -16.730  0.00  0.00    -0.071 N 
HETATM   15  H           1     -23.688  -7.344 -16.368  0.00  0.00     0.274 HD
HETATM   16  H           1     -24.771  -6.767 -17.556  0.00  0.00     0.274 HD
HETATM   17  H           1     -24.878  -8.382 -17.015  0.00  0.00     0.274 HD
ENDBRANCH  13  14
ENDBRANCH   2  13
TORSDOF 7
ENDMDL
MODEL 6
REMARK VINA RESULT:      -4.6     12.518     13.303
REMARK  7 active torsions:
REMARK  status: ('A' for Active; 'I' for Inactive)
REMARK    1  A    between atoms: N_2  and  C_15 
REMARK       I    between atoms: N_2  and  C_3 
REMARK    2  A    between atoms: C_3  and  C_17 
REMARK    3  A    between atoms: N_7  and  C_17 
REMARK    4  A    between atoms: Se_12  and  C_13 
REMARK    5  A    between atoms: C_13  and  C_14 
REMARK    6  A    between atoms: C_14  and  C_15 
REMARK    7  A    between atoms: C_15  and  C_16 
ROOT
HETATM    1  N           1     -35.872  -0.896 -13.856  0.00  0.00    -0.345 N 
HETATM    2  C           1     -35.418   0.043 -14.743  0.00  0.00     0.243 C 
HETATM    3  O           1     -34.339   0.560 -14.575  0.00  0.00    -0.272 OA
HETATM    4  H           1     -36.775  -1.329 -13.997  0.00  0.00     0.163 HD
ENDROOT
BRANCH   1   5
HETATM    5  C           1     -35.058  -1.269 -12.715  0.00  0.00     0.185 C 
BRANCH   5   6
HETATM    6  C           1     -35.881  -1.138 -11.441  0.00  0.00     0.036 C 
BRANCH   6   7
HETATM    7  C           1     -36.747   0.113 -11.522  0.00  0.00     0.003 C 
BRANCH   7   8
HETATM    8 Se           1     -38.065   0.086 -10.087  0.00  0.00     0.000 Se
HETATM    9  C           1     -36.746   0.059  -8.653  0.00  0.00     0.000 C 
ENDBRANCH   7   8
ENDBRANCH   6   7
ENDBRANCH   5   6
BRANCH   5  10
HETATM   10  C           1     -34.599  -2.698 -12.873  0.00  0.00     0.196 C 
HETATM   11  O           1     -34.434  -3.179 -14.015  0.00  0.00    -0.646 OA
HETATM   12  O           1     -34.384  -3.401 -11.861  0.00  0.00    -0.646 OA
ENDBRANCH   5  10
ENDBRANCH   1   5
BRANCH   2  13
HETATM   13  C           1     -36.265   0.432 -15.930  0.00  0.00     0.332 C 
BRANCH  13  14
HETATM   14  N           1     -36.256  -0.679 -16.937  0.00  0.00    -0.071 N 
HETATM   15  H           1     -36.961  -1.401 -16.664  0.00  0.00     0.274 HD
HETATM   16  H           1     -35.305  -1.113 -16.968  0.00  0.00     0.274 HD
HETATM   17  H           1     -36.496  -0.298 -17.880  0.00  0.00     0.274 HD
ENDBRANCH  13  14
ENDBRANCH   2  13
TORSDOF 7
ENDMDL
MODEL 7
REMARK VINA RESULT:      -4.6     12.334     13.426
REMARK  7 active torsions:
REMARK  status: ('A' for Active; 'I' for Inactive)
REMARK    1  A    between atoms: N_2  and  C_15 
REMARK       I    between atoms: N_2  and  C_3 
REMARK    2  A    between atoms: C_3  and  C_17 
REMARK    3  A    between atoms: N_7  and  C_17 
REMARK    4  A    between atoms: Se_12  and  C_13 
REMARK    5  A    between atoms: C_13  and  C_14 
REMARK    6  A    between atoms: C_14  and  C_15 
REMARK    7  A    between atoms: C_15  and  C_16 
ROOT
HETATM    1  N           1     -36.591  -0.553 -10.931  0.00  0.00    -0.345 N 
HETATM    2  C           1     -36.751  -0.005  -9.688  0.00  0.00     0.243 C 
HETATM    3  O           1     -35.834  -0.010  -8.902  0.00  0.00    -0.272 OA
HETATM    4  H           1     -37.360  -0.549 -11.589  0.00  0.00     0.163 HD
ENDROOT
BRANCH   1   5
HETATM    5  C           1     -35.319  -1.140 -11.307  0.00  0.00     0.185 C 
BRANCH   5   6
HETATM    6  C           1     -35.366  -2.644 -11.071  0.00  0.00     0.036 C 
BRANCH   6   7
HETATM    7  C           1     -34.032  -3.111 -10.504  0.00  0.00     0.003 C 
BRANCH   7   8
HETATM    8 Se           1     -33.278  -4.487 -11.660  0.00  0.00     0.000 Se
HETATM    9  C           1     -34.263  -5.952 -10.833  0.00  0.00     0.000 C 
ENDBRANCH   7   8
ENDBRANCH   6   7
ENDBRANCH   5   6
BRANCH   5  10
HETATM   10  C           1     -35.051  -0.867 -12.766  0.00  0.00     0.196 C 
HETATM   11  O           1     -34.818   0.299 -13.152  0.00  0.00    -0.646 OA
HETATM   12  O           1     -35.064  -1.807 -13.591  0.00  0.00    -0.646 OA
ENDBRANCH   5  10
ENDBRANCH   1   5
BRANCH   2  13
HETATM   13  C           1     -38.075   0.606  -9.297  0.00  0.00     0.332 C 
BRANCH  13  14
HETATM   14  N           1     -37.842   1.943  -8.661  0.00  0.00    -0.071 N 
HETATM   15  H           1     -37.346   2.568  -9.336  0.00  0.00     0.274 HD
HETATM   16  H           1     -37.258   1.823  -7.802  0.00  0.00     0.274 HD
HETATM   17  H           1     -38.759   2.371  -8.400  0.00  0.00     0.274 HD
ENDBRANCH  13  14
ENDBRANCH   2  13
TORSDOF 7
ENDMDL
MODEL 8
REMARK VINA RESULT:      -4.5     11.468     12.799
REMARK  7 active torsions:
REMARK  status: ('A' for Active; 'I' for Inactive)
REMARK    1  A    between atoms: N_2  and  C_15 
REMARK       I    between atoms: N_2  and  C_3 
REMARK    2  A    between atoms: C_3  and  C_17 
REMARK    3  A    between atoms: N_7  and  C_17 
REMARK    4  A    between atoms: Se_12  and  C_13 
REMARK    5  A    between atoms: C_13  and  C_14 
REMARK    6  A    between atoms: C_14  and  C_15 
REMARK    7  A    between atoms: C_15  and  C_16 
ROOT
HETATM    1  N           1     -34.285  -5.176 -10.477  0.00  0.00    -0.345 N 
HETATM    2  C           1     -34.639  -6.461 -10.790  0.00  0.00     0.243 C 
HETATM    3  O           1     -35.119  -6.709 -11.870  0.00  0.00    -0.272 OA
HETATM    4  H           1     -33.882  -4.969  -9.572  0.00  0.00     0.163 HD
ENDROOT
BRANCH   1   5
HETATM    5  C           1     -34.488  -4.113 -11.442  0.00  0.00     0.185 C 
BRANCH   5   6
HETATM    6  C           1     -34.532  -2.774 -10.718  0.00  0.00     0.036 C 
BRANCH   6   7
HETATM    7  C           1     -35.963  -2.250 -10.706  0.00  0.00     0.003 C 
BRANCH   7   8
HETATM    8 Se           1     -36.048  -0.567 -11.685  0.00  0.00     0.000 Se
HETATM    9  C           1     -36.994   0.393 -10.278  0.00  0.00     0.000 C 
ENDBRANCH   7   8
ENDBRANCH   6   7
ENDBRANCH   5   6
BRANCH   5  10
HETATM   10  C           1     -33.350  -4.112 -12.433  0.00  0.00     0.196 C 
HETATM   11  O           1     -33.576  -3.891 -13.643  0.00  0.00    -0.646 OA
HETATM   12  O           1     -32.182  -4.332 -12.045  0.00  0.00    -0.646 OA
ENDBRANCH   5  10
ENDBRANCH   1   5
BRANCH   2  13
HETATM   13  C           1     -34.428  -7.567  -9.785  0.00  0.00     0.332 C 
BRANCH  13  14
HETATM   14  N           1     -33.568  -8.637 -10.391  0.00  0.00    -0.071 N 
HETATM   15  H           1     -32.958  -8.217 -11.128  0.00  0.00     0.274 HD
HETATM   16  H           1     -34.177  -9.372 -10.818  0.00  0.00     0.274 HD
HETATM   17  H           1     -32.972  -9.067  -9.649  0.00  0.00     0.274 HD
ENDBRANCH  13  14
ENDBRANCH   2  13
TORSDOF 7
ENDMDL
MODEL 9
REMARK VINA RESULT:      -4.5     11.424     12.392
REMARK  7 active torsions:
REMARK  status: ('A' for Active; 'I' for Inactive)
REMARK    1  A    between atoms: N_2  and  C_15 
REMARK       I    between atoms: N_2  and  C_3 
REMARK    2  A    between atoms: C_3  and  C_17 
REMARK    3  A    between atoms: N_7  and  C_17 
REMARK    4  A    between atoms: Se_12  and  C_13 
REMARK    5  A    between atoms: C_13  and  C_14 
REMARK    6  A    between atoms: C_14  and  C_15 
REMARK    7  A    between atoms: C_15  and  C_16 
ROOT
HETATM    1  N           1     -35.233  -2.528 -11.497  0.00  0.00    -0.345 N 
HETATM    2  C           1     -35.561  -1.204 -11.375  0.00  0.00     0.243 C 
HETATM    3  O           1     -34.880  -0.361 -11.909  0.00  0.00    -0.272 OA
HETATM    4  H           1     -35.804  -3.234 -11.050  0.00  0.00     0.163 HD
ENDROOT
BRANCH   1   5
HETATM    5  C           1     -34.067  -2.918 -12.266  0.00  0.00     0.185 C 
BRANCH   5   6
HETATM    6  C           1     -33.146  -3.763 -11.396  0.00  0.00     0.036 C 
BRANCH   6   7
HETATM    7  C           1     -33.982  -4.627 -10.461  0.00  0.00     0.003 C 
BRANCH   7   8
HETATM    8 Se           1     -33.622  -6.509 -10.819  0.00  0.00     0.000 Se
HETATM    9  C           1     -35.012  -7.171  -9.625  0.00  0.00     0.000 C 
ENDBRANCH   7   8
ENDBRANCH   6   7
ENDBRANCH   5   6
BRANCH   5  10
HETATM   10  C           1     -34.503  -3.722 -13.466  0.00  0.00     0.196 C 
HETATM   11  O           1     -35.064  -4.827 -13.307  0.00  0.00    -0.646 OA
HETATM   12  O           1     -34.304  -3.282 -14.619  0.00  0.00    -0.646 OA
ENDBRANCH   5  10
ENDBRANCH   1   5
BRANCH   2  13
HETATM   13  C           1     -36.775  -0.799 -10.575  0.00  0.00     0.332 C 
BRANCH  13  14
HETATM   14  N           1     -36.537   0.543  -9.949  0.00  0.00    -0.071 N 
HETATM   15  H           1     -37.446   0.939  -9.619  0.00  0.00     0.274 HD
HETATM   16  H           1     -36.112   1.186 -10.655  0.00  0.00     0.274 HD
HETATM   17  H           1     -35.888   0.440  -9.137  0.00  0.00     0.274 HD
ENDBRANCH  13  14
ENDBRANCH   2  13
TORSDOF 7
ENDMDL
