MODEL 1
REMARK VINA RESULT:      -6.0      0.000      0.000
REMARK  10 active torsions:
REMARK  status: ('A' for Active; 'I' for Inactive)
REMARK       I    between atoms: N_6  and  C_23 
REMARK    1  A    between atoms: C_7  and  C_20 
REMARK    2  A    between atoms: C_7  and  C_22 
REMARK    3  A    between atoms: Se_10  and  C_20 
REMARK    4  A    between atoms: N_13  and  C_15 
REMARK    5  A    between atoms: C_14  and  C_15 
REMARK    6  A    between atoms: C_14  and  C_24 
REMARK    7  A    between atoms: C_15  and  C_16 
REMARK       I    between atoms: C_16  and  N_17 
REMARK    8  A    between atoms: N_17  and  C_22 
REMARK    9  A    between atoms: C_18  and  C_22 
REMARK   10  A    between atoms: C_23  and  C_24 
ROOT
HETATM    1  C           1     -21.121  -5.723  -6.905  0.00  0.00     0.275 C 
ENDROOT
BRANCH   1   2
HETATM    2  N           1     -19.692  -5.436  -6.549  0.00  0.00    -0.066 N 
HETATM    3  H           1     -19.659  -4.858  -5.679  0.00  0.00     0.275 HD
HETATM    4  H           1     -19.186  -6.337  -6.387  0.00  0.00     0.275 HD
HETATM    5  H           1     -19.235  -4.916  -7.331  0.00  0.00     0.275 HD
ENDBRANCH   1   2
BRANCH   1   6
HETATM    6  C           1     -21.944  -5.853  -5.630  0.00  0.00     0.052 C 
BRANCH   6   7
HETATM    7  C           1     -21.544  -7.127  -4.895  0.00  0.00     0.105 C 
BRANCH   7   8
HETATM    8  C           1     -21.578  -6.880  -3.407  0.00  0.00     0.215 C 
HETATM    9  N           1     -20.762  -7.600  -2.575  0.00  0.00    -0.370 N 
HETATM   10  H           1     -20.783  -7.435  -1.577  0.00  0.00     0.159 HD
HETATM   11  H           1     -20.136  -8.297  -2.960  0.00  0.00     0.159 HD
HETATM   12  O           1     -22.324  -6.049  -2.948  0.00  0.00    -0.274 OA
ENDBRANCH   7   8
ENDBRANCH   6   7
ENDBRANCH   1   6
BRANCH   1  13
HETATM   13  C           1     -21.666  -4.594  -7.744  0.00  0.00     0.249 C 
HETATM   14  O           1     -21.614  -3.458  -7.335  0.00  0.00    -0.271 OA
HETATM   15  N           1     -22.218  -4.856  -8.969  0.00  0.00    -0.345 N 
HETATM   16  H           1     -22.261  -5.807  -9.311  0.00  0.00     0.163 HD
BRANCH  15  17
HETATM   17  C           1     -22.742  -3.771  -9.775  0.00  0.00     0.185 C 
BRANCH  17  18
HETATM   18  C           1     -22.258  -3.925 -11.210  0.00  0.00     0.036 C 
BRANCH  18  19
HETATM   19  C           1     -22.480  -2.622 -11.965  0.00  0.00     0.003 C 
BRANCH  19  20
HETATM   20 Se           1     -23.966  -2.837 -13.209  0.00  0.00     0.000 Se
HETATM   21  C           1     -22.894  -2.501 -14.802  0.00  0.00     0.000 C 
ENDBRANCH  19  20
ENDBRANCH  18  19
ENDBRANCH  17  18
BRANCH  17  22
HETATM   22  C           1     -24.250  -3.804  -9.745  0.00  0.00     0.196 C 
HETATM   23  O           1     -24.855  -4.884  -9.925  0.00  0.00    -0.646 OA
HETATM   24  O           1     -24.895  -2.752  -9.542  0.00  0.00    -0.646 OA
ENDBRANCH  17  22
ENDBRANCH  15  17
ENDBRANCH   1  13
TORSDOF 10
ENDMDL
MODEL 2
REMARK VINA RESULT:      -6.0      3.525      7.513
REMARK  10 active torsions:
REMARK  status: ('A' for Active; 'I' for Inactive)
REMARK       I    between atoms: N_6  and  C_23 
REMARK    1  A    between atoms: C_7  and  C_20 
REMARK    2  A    between atoms: C_7  and  C_22 
REMARK    3  A    between atoms: Se_10  and  C_20 
REMARK    4  A    between atoms: N_13  and  C_15 
REMARK    5  A    between atoms: C_14  and  C_15 
REMARK    6  A    between atoms: C_14  and  C_24 
REMARK    7  A    between atoms: C_15  and  C_16 
REMARK       I    between atoms: C_16  and  N_17 
REMARK    8  A    between atoms: N_17  and  C_22 
REMARK    9  A    between atoms: C_18  and  C_22 
REMARK   10  A    between atoms: C_23  and  C_24 
ROOT
HETATM    1  C           1     -24.210  -4.706 -10.015  0.00  0.00     0.275 C 
ENDROOT
BRANCH   1   2
HETATM    2  N           1     -25.258  -3.634 -10.076  0.00  0.00    -0.066 N 
HETATM    3  H           1     -25.653  -3.478  -9.121  0.00  0.00     0.275 HD
HETATM    4  H           1     -24.827  -2.747 -10.425  0.00  0.00     0.275 HD
HETATM    5  H           1     -26.021  -3.929 -10.725  0.00  0.00     0.275 HD
ENDBRANCH   1   2
BRANCH   1   6
HETATM    6  C           1     -23.429  -4.725 -11.323  0.00  0.00     0.052 C 
BRANCH   6   7
HETATM    7  C           1     -22.987  -3.309 -11.672  0.00  0.00     0.105 C 
BRANCH   7   8
HETATM    8  C           1     -23.475  -2.956 -13.055  0.00  0.00     0.215 C 
HETATM    9  N           1     -22.620  -3.029 -14.122  0.00  0.00    -0.370 N 
HETATM   10  H           1     -22.946  -2.792 -15.050  0.00  0.00     0.159 HD
HETATM   11  H           1     -21.660  -3.321 -13.982  0.00  0.00     0.159 HD
HETATM   12  O           1     -24.619  -2.607 -13.222  0.00  0.00    -0.274 OA
ENDBRANCH   7   8
ENDBRANCH   6   7
ENDBRANCH   1   6
BRANCH   1  13
HETATM   13  C           1     -23.269  -4.424  -8.870  0.00  0.00     0.249 C 
HETATM   14  O           1     -23.576  -3.623  -8.020  0.00  0.00    -0.271 OA
HETATM   15  N           1     -22.067  -5.075  -8.795  0.00  0.00    -0.345 N 
HETATM   16  H           1     -21.810  -5.746  -9.508  0.00  0.00     0.163 HD
BRANCH  15  17
HETATM   17  C           1     -21.163  -4.803  -7.695  0.00  0.00     0.185 C 
BRANCH  17  18
HETATM   18  C           1     -21.026  -6.050  -6.831  0.00  0.00     0.036 C 
BRANCH  18  19
HETATM   19  C           1     -21.301  -5.694  -5.377  0.00  0.00     0.003 C 
BRANCH  19  20
HETATM   20 Se           1     -21.546  -7.328  -4.342  0.00  0.00     0.000 Se
HETATM   21  C           1     -21.831  -6.407  -2.648  0.00  0.00     0.000 C 
ENDBRANCH  19  20
ENDBRANCH  18  19
ENDBRANCH  17  18
BRANCH  17  22
HETATM   22  C           1     -19.810  -4.416  -8.239  0.00  0.00     0.196 C 
HETATM   23  O           1     -18.806  -4.444  -7.495  0.00  0.00    -0.646 OA
HETATM   24  O           1     -19.694  -4.065  -9.434  0.00  0.00    -0.646 OA
ENDBRANCH  17  22
ENDBRANCH  15  17
ENDBRANCH   1  13
TORSDOF 10
ENDMDL
MODEL 3
REMARK VINA RESULT:      -5.9      3.609      7.407
REMARK  10 active torsions:
REMARK  status: ('A' for Active; 'I' for Inactive)
REMARK       I    between atoms: N_6  and  C_23 
REMARK    1  A    between atoms: C_7  and  C_20 
REMARK    2  A    between atoms: C_7  and  C_22 
REMARK    3  A    between atoms: Se_10  and  C_20 
REMARK    4  A    between atoms: N_13  and  C_15 
REMARK    5  A    between atoms: C_14  and  C_15 
REMARK    6  A    between atoms: C_14  and  C_24 
REMARK    7  A    between atoms: C_15  and  C_16 
REMARK       I    between atoms: C_16  and  N_17 
REMARK    8  A    between atoms: N_17  and  C_22 
REMARK    9  A    between atoms: C_18  and  C_22 
REMARK   10  A    between atoms: C_23  and  C_24 
ROOT
HETATM    1  C           1     -23.647  -4.433  -9.103  0.00  0.00     0.275 C 
ENDROOT
BRANCH   1   2
HETATM    2  N           1     -24.576  -3.261  -8.979  0.00  0.00    -0.066 N 
HETATM    3  H           1     -25.178  -3.381  -8.133  0.00  0.00     0.275 HD
HETATM    4  H           1     -24.017  -2.382  -8.887  0.00  0.00     0.275 HD
HETATM    5  H           1     -25.179  -3.203  -9.830  0.00  0.00     0.275 HD
ENDBRANCH   1   2
BRANCH   1   6
HETATM    6  C           1     -23.348  -4.688 -10.575  0.00  0.00     0.052 C 
BRANCH   6   7
HETATM    7  C           1     -23.759  -3.472 -11.395  0.00  0.00     0.105 C 
BRANCH   7   8
HETATM    8  C           1     -22.609  -3.047 -12.274  0.00  0.00     0.215 C 
HETATM    9  N           1     -21.348  -2.945 -11.750  0.00  0.00    -0.370 N 
HETATM   10  H           1     -20.576  -2.660 -12.339  0.00  0.00     0.159 HD
HETATM   11  H           1     -21.188  -3.156 -10.772  0.00  0.00     0.159 HD
HETATM   12  O           1     -22.799  -2.795 -13.440  0.00  0.00    -0.274 OA
ENDBRANCH   7   8
ENDBRANCH   6   7
ENDBRANCH   1   6
BRANCH   1  13
HETATM   13  C           1     -22.361  -4.133  -8.372  0.00  0.00     0.249 C 
HETATM   14  O           1     -21.620  -3.272  -8.781  0.00  0.00    -0.271 OA
HETATM   15  N           1     -22.035  -4.838  -7.245  0.00  0.00    -0.345 N 
HETATM   16  H           1     -22.655  -5.560  -6.902  0.00  0.00     0.163 HD
BRANCH  15  17
HETATM   17  C           1     -20.799  -4.551  -6.543  0.00  0.00     0.185 C 
BRANCH  17  18
HETATM   18  C           1     -20.858  -5.154  -5.146  0.00  0.00     0.036 C 
BRANCH  18  19
HETATM   19  C           1     -21.921  -6.242  -5.105  0.00  0.00     0.003 C 
BRANCH  19  20
HETATM   20 Se           1     -21.516  -7.493  -3.666  0.00  0.00     0.000 Se
HETATM   21  C           1     -22.019  -6.266  -2.237  0.00  0.00     0.000 C 
ENDBRANCH  19  20
ENDBRANCH  18  19
ENDBRANCH  17  18
BRANCH  17  22
HETATM   22  C           1     -19.639  -5.148  -7.301  0.00  0.00     0.196 C 
HETATM   23  O           1     -18.646  -4.442  -7.581  0.00  0.00    -0.646 OA
HETATM   24  O           1     -19.672  -6.348  -7.651  0.00  0.00    -0.646 OA
ENDBRANCH  17  22
ENDBRANCH  15  17
ENDBRANCH   1  13
TORSDOF 10
ENDMDL
MODEL 4
REMARK VINA RESULT:      -5.7      3.812      7.579
REMARK  10 active torsions:
REMARK  status: ('A' for Active; 'I' for Inactive)
REMARK       I    between atoms: N_6  and  C_23 
REMARK    1  A    between atoms: C_7  and  C_20 
REMARK    2  A    between atoms: C_7  and  C_22 
REMARK    3  A    between atoms: Se_10  and  C_20 
REMARK    4  A    between atoms: N_13  and  C_15 
REMARK    5  A    between atoms: C_14  and  C_15 
REMARK    6  A    between atoms: C_14  and  C_24 
REMARK    7  A    between atoms: C_15  and  C_16 
REMARK       I    between atoms: C_16  and  N_17 
REMARK    8  A    between atoms: N_17  and  C_22 
REMARK    9  A    between atoms: C_18  and  C_22 
REMARK   10  A    between atoms: C_23  and  C_24 
ROOT
HETATM    1  C           1     -20.490  -4.964  -6.576  0.00  0.00     0.275 C 
ENDROOT
BRANCH   1   2
HETATM    2  N           1     -19.946  -5.853  -7.656  0.00  0.00    -0.066 N 
HETATM    3  H           1     -20.080  -5.394  -8.585  0.00  0.00     0.275 HD
HETATM    4  H           1     -18.926  -6.016  -7.491  0.00  0.00     0.275 HD
HETATM    5  H           1     -20.451  -6.767  -7.642  0.00  0.00     0.275 HD
ENDBRANCH   1   2
BRANCH   1   6
HETATM    6  C           1     -21.297  -3.837  -7.207  0.00  0.00     0.052 C 
BRANCH   6   7
HETATM    7  C           1     -21.460  -4.102  -8.698  0.00  0.00     0.105 C 
BRANCH   7   8
HETATM    8  C           1     -22.921  -4.301  -9.017  0.00  0.00     0.215 C 
HETATM    9  N           1     -23.869  -4.062  -8.058  0.00  0.00    -0.370 N 
HETATM   10  H           1     -24.849  -4.195  -8.271  0.00  0.00     0.159 HD
HETATM   11  H           1     -23.589  -3.752  -7.136  0.00  0.00     0.159 HD
HETATM   12  O           1     -23.256  -4.671 -10.117  0.00  0.00    -0.274 OA
ENDBRANCH   7   8
ENDBRANCH   6   7
ENDBRANCH   1   6
BRANCH   1  13
HETATM   13  C           1     -21.379  -5.771  -5.662  0.00  0.00     0.249 C 
HETATM   14  O           1     -22.575  -5.609  -5.685  0.00  0.00    -0.271 OA
HETATM   15  N           1     -20.829  -6.687  -4.805  0.00  0.00    -0.345 N 
HETATM   16  H           1     -19.826  -6.822  -4.785  0.00  0.00     0.163 HD
BRANCH  15  17
HETATM   17  C           1     -21.683  -7.461  -3.927  0.00  0.00     0.185 C 
BRANCH  17  18
HETATM   18  C           1     -21.196  -8.904  -3.888  0.00  0.00     0.036 C 
BRANCH  18  19
HETATM   19  C           1     -19.882  -9.018  -4.647  0.00  0.00     0.003 C 
BRANCH  19  20
HETATM   20 Se           1     -18.451  -9.480  -3.406  0.00  0.00     0.000 Se
HETATM   21  C           1     -17.210 -10.055  -4.794  0.00  0.00     0.000 C 
ENDBRANCH  19  20
ENDBRANCH  18  19
ENDBRANCH  17  18
BRANCH  17  22
HETATM   22  C           1     -21.637  -6.877  -2.537  0.00  0.00     0.196 C 
HETATM   23  O           1     -20.903  -7.392  -1.665  0.00  0.00    -0.646 OA
HETATM   24  O           1     -22.335  -5.878  -2.255  0.00  0.00    -0.646 OA
ENDBRANCH  17  22
ENDBRANCH  15  17
ENDBRANCH   1  13
TORSDOF 10
ENDMDL
MODEL 5
REMARK VINA RESULT:      -5.7      3.779      7.913
REMARK  10 active torsions:
REMARK  status: ('A' for Active; 'I' for Inactive)
REMARK       I    between atoms: N_6  and  C_23 
REMARK    1  A    between atoms: C_7  and  C_20 
REMARK    2  A    between atoms: C_7  and  C_22 
REMARK    3  A    between atoms: Se_10  and  C_20 
REMARK    4  A    between atoms: N_13  and  C_15 
REMARK    5  A    between atoms: C_14  and  C_15 
REMARK    6  A    between atoms: C_14  and  C_24 
REMARK    7  A    between atoms: C_15  and  C_16 
REMARK       I    between atoms: C_16  and  N_17 
REMARK    8  A    between atoms: N_17  and  C_22 
REMARK    9  A    between atoms: C_18  and  C_22 
REMARK   10  A    between atoms: C_23  and  C_24 
ROOT
HETATM    1  C           1     -21.981  -4.646  -8.711  0.00  0.00     0.275 C 
ENDROOT
BRANCH   1   2
HETATM    2  N           1     -23.062  -3.702  -8.274  0.00  0.00    -0.066 N 
HETATM    3  H           1     -23.521  -3.284  -9.114  0.00  0.00     0.275 HD
HETATM    4  H           1     -23.772  -4.224  -7.712  0.00  0.00     0.275 HD
HETATM    5  H           1     -22.646  -2.942  -7.690  0.00  0.00     0.275 HD
ENDBRANCH   1   2
BRANCH   1   6
HETATM    6  C           1     -21.035  -3.926  -9.664  0.00  0.00     0.052 C 
BRANCH   6   7
HETATM    7  C           1     -21.221  -4.471 -11.074  0.00  0.00     0.105 C 
BRANCH   7   8
HETATM    8  C           1     -22.104  -3.535 -11.863  0.00  0.00     0.215 C 
HETATM    9  N           1     -21.948  -3.427 -13.219  0.00  0.00    -0.370 N 
HETATM   10  H           1     -22.540  -2.801 -13.748  0.00  0.00     0.159 HD
HETATM   11  H           1     -21.241  -3.977 -13.692  0.00  0.00     0.159 HD
HETATM   12  O           1     -22.947  -2.880 -11.298  0.00  0.00    -0.274 OA
ENDBRANCH   7   8
ENDBRANCH   6   7
ENDBRANCH   1   6
BRANCH   1  13
HETATM   13  C           1     -21.214  -5.126  -7.504  0.00  0.00     0.249 C 
HETATM   14  O           1     -20.047  -4.839  -7.377  0.00  0.00    -0.271 OA
HETATM   15  N           1     -21.840  -5.885  -6.552  0.00  0.00    -0.345 N 
HETATM   16  H           1     -22.817  -6.125  -6.659  0.00  0.00     0.163 HD
BRANCH  15  17
HETATM   17  C           1     -21.102  -6.346  -5.393  0.00  0.00     0.185 C 
BRANCH  17  18
HETATM   18  C           1     -22.039  -6.428  -4.195  0.00  0.00     0.036 C 
BRANCH  18  19
HETATM   19  C           1     -21.233  -6.313  -2.909  0.00  0.00     0.003 C 
BRANCH  19  20
HETATM   20 Se           1     -21.354  -7.985  -1.913  0.00  0.00     0.000 Se
HETATM   21  C           1     -22.479  -7.252  -0.501  0.00  0.00     0.000 C 
ENDBRANCH  19  20
ENDBRANCH  18  19
ENDBRANCH  17  18
BRANCH  17  22
HETATM   22  C           1     -20.523  -7.710  -5.674  0.00  0.00     0.196 C 
HETATM   23  O           1     -21.281  -8.696  -5.806  0.00  0.00    -0.646 OA
HETATM   24  O           1     -19.285  -7.856  -5.774  0.00  0.00    -0.646 OA
ENDBRANCH  17  22
ENDBRANCH  15  17
ENDBRANCH   1  13
TORSDOF 10
ENDMDL
MODEL 6
REMARK VINA RESULT:      -5.6     19.390     20.575
REMARK  10 active torsions:
REMARK  status: ('A' for Active; 'I' for Inactive)
REMARK       I    between atoms: N_6  and  C_23 
REMARK    1  A    between atoms: C_7  and  C_20 
REMARK    2  A    between atoms: C_7  and  C_22 
REMARK    3  A    between atoms: Se_10  and  C_20 
REMARK    4  A    between atoms: N_13  and  C_15 
REMARK    5  A    between atoms: C_14  and  C_15 
REMARK    6  A    between atoms: C_14  and  C_24 
REMARK    7  A    between atoms: C_15  and  C_16 
REMARK       I    between atoms: C_16  and  N_17 
REMARK    8  A    between atoms: N_17  and  C_22 
REMARK    9  A    between atoms: C_18  and  C_22 
REMARK   10  A    between atoms: C_23  and  C_24 
ROOT
HETATM    1  C           1     -12.706   5.346 -20.776  0.00  0.00     0.275 C 
ENDROOT
BRANCH   1   2
HETATM    2  N           1     -12.352   4.617 -22.038  0.00  0.00    -0.066 N 
HETATM    3  H           1     -11.701   5.202 -22.609  0.00  0.00     0.275 HD
HETATM    4  H           1     -11.886   3.712 -21.797  0.00  0.00     0.275 HD
HETATM    5  H           1     -13.220   4.426 -22.586  0.00  0.00     0.275 HD
ENDBRANCH   1   2
BRANCH   1   6
HETATM    6  C           1     -11.963   4.720 -19.603  0.00  0.00     0.052 C 
BRANCH   6   7
HETATM    7  C           1     -10.528   4.417 -20.015  0.00  0.00     0.105 C 
BRANCH   7   8
HETATM    8  C           1      -9.609   5.473 -19.453  0.00  0.00     0.215 C 
HETATM    9  N           1      -9.579   5.706 -18.103  0.00  0.00    -0.370 N 
HETATM   10  H           1      -8.963   6.414 -17.725  0.00  0.00     0.159 HD
HETATM   11  H           1     -10.173   5.168 -17.484  0.00  0.00     0.159 HD
HETATM   12  O           1      -8.901   6.115 -20.191  0.00  0.00    -0.274 OA
ENDBRANCH   7   8
ENDBRANCH   6   7
ENDBRANCH   1   6
BRANCH   1  13
HETATM   13  C           1     -12.311   6.797 -20.907  0.00  0.00     0.249 C 
HETATM   14  O           1     -11.968   7.235 -21.979  0.00  0.00    -0.271 OA
HETATM   15  N           1     -12.342   7.616 -19.811  0.00  0.00    -0.345 N 
HETATM   16  H           1     -12.629   7.249 -18.913  0.00  0.00     0.163 HD
BRANCH  15  17
HETATM   17  C           1     -11.961   9.009 -19.937  0.00  0.00     0.185 C 
BRANCH  17  18
HETATM   18  C           1     -12.868   9.864 -19.061  0.00  0.00     0.036 C 
BRANCH  18  19
HETATM   19  C           1     -13.513  10.953 -19.907  0.00  0.00     0.003 C 
BRANCH  19  20
HETATM   20 Se           1     -14.998  11.746 -18.923  0.00  0.00     0.000 Se
HETATM   21  C           1     -14.884  10.503 -17.426  0.00  0.00     0.000 C 
ENDBRANCH  19  20
ENDBRANCH  18  19
ENDBRANCH  17  18
BRANCH  17  22
HETATM   22  C           1     -10.528   9.182 -19.499  0.00  0.00     0.196 C 
HETATM   23  O           1     -10.184   8.852 -18.343  0.00  0.00    -0.646 OA
HETATM   24  O           1      -9.685   9.656 -20.291  0.00  0.00    -0.646 OA
ENDBRANCH  17  22
ENDBRANCH  15  17
ENDBRANCH   1  13
TORSDOF 10
ENDMDL
MODEL 7
REMARK VINA RESULT:      -5.6      3.778      7.610
REMARK  10 active torsions:
REMARK  status: ('A' for Active; 'I' for Inactive)
REMARK       I    between atoms: N_6  and  C_23 
REMARK    1  A    between atoms: C_7  and  C_20 
REMARK    2  A    between atoms: C_7  and  C_22 
REMARK    3  A    between atoms: Se_10  and  C_20 
REMARK    4  A    between atoms: N_13  and  C_15 
REMARK    5  A    between atoms: C_14  and  C_15 
REMARK    6  A    between atoms: C_14  and  C_24 
REMARK    7  A    between atoms: C_15  and  C_16 
REMARK       I    between atoms: C_16  and  N_17 
REMARK    8  A    between atoms: N_17  and  C_22 
REMARK    9  A    between atoms: C_18  and  C_22 
REMARK   10  A    between atoms: C_23  and  C_24 
ROOT
HETATM    1  C           1     -21.041  -4.032  -7.808  0.00  0.00     0.275 C 
ENDROOT
BRANCH   1   2
HETATM    2  N           1     -20.219  -4.574  -8.940  0.00  0.00    -0.066 N 
HETATM    3  H           1     -19.364  -5.040  -8.559  0.00  0.00     0.275 HD
HETATM    4  H           1     -20.785  -5.271  -9.477  0.00  0.00     0.275 HD
HETATM    5  H           1     -19.937  -3.792  -9.572  0.00  0.00     0.275 HD
ENDBRANCH   1   2
BRANCH   1   6
HETATM    6  C           1     -22.520  -4.188  -8.136  0.00  0.00     0.052 C 
BRANCH   6   7
HETATM    7  C           1     -22.706  -4.196  -9.649  0.00  0.00     0.105 C 
BRANCH   7   8
HETATM    8  C           1     -24.149  -3.901  -9.979  0.00  0.00     0.215 C 
HETATM    9  N           1     -25.131  -4.774  -9.595  0.00  0.00    -0.370 N 
HETATM   10  H           1     -26.099  -4.577  -9.816  0.00  0.00     0.159 HD
HETATM   11  H           1     -24.889  -5.617  -9.089  0.00  0.00     0.159 HD
HETATM   12  O           1     -24.438  -2.895 -10.583  0.00  0.00    -0.274 OA
ENDBRANCH   7   8
ENDBRANCH   6   7
ENDBRANCH   1   6
BRANCH   1  13
HETATM   13  C           1     -20.721  -4.794  -6.545  0.00  0.00     0.249 C 
HETATM   14  O           1     -20.126  -4.250  -5.646  0.00  0.00    -0.271 OA
HETATM   15  N           1     -21.105  -6.102  -6.419  0.00  0.00    -0.345 N 
HETATM   16  H           1     -21.603  -6.558  -7.173  0.00  0.00     0.163 HD
BRANCH  15  17
HETATM   17  C           1     -20.797  -6.834  -5.206  0.00  0.00     0.185 C 
BRANCH  17  18
HETATM   18  C           1     -22.034  -6.890  -4.320  0.00  0.00     0.036 C 
BRANCH  18  19
HETATM   19  C           1     -21.706  -6.313  -2.950  0.00  0.00     0.003 C 
BRANCH  19  20
HETATM   20 Se           1     -21.105  -7.744  -1.769  0.00  0.00     0.000 Se
HETATM   21  C           1     -22.473  -7.425  -0.418  0.00  0.00     0.000 C 
ENDBRANCH  19  20
ENDBRANCH  18  19
ENDBRANCH  17  18
BRANCH  17  22
HETATM   22  C           1     -20.366  -8.236  -5.560  0.00  0.00     0.196 C 
HETATM   23  O           1     -19.153  -8.495  -5.720  0.00  0.00    -0.646 OA
HETATM   24  O           1     -21.221  -9.138  -5.695  0.00  0.00    -0.646 OA
ENDBRANCH  17  22
ENDBRANCH  15  17
ENDBRANCH   1  13
TORSDOF 10
ENDMDL
MODEL 8
REMARK VINA RESULT:      -5.3      4.065      8.360
REMARK  10 active torsions:
REMARK  status: ('A' for Active; 'I' for Inactive)
REMARK       I    between atoms: N_6  and  C_23 
REMARK    1  A    between atoms: C_7  and  C_20 
REMARK    2  A    between atoms: C_7  and  C_22 
REMARK    3  A    between atoms: Se_10  and  C_20 
REMARK    4  A    between atoms: N_13  and  C_15 
REMARK    5  A    between atoms: C_14  and  C_15 
REMARK    6  A    between atoms: C_14  and  C_24 
REMARK    7  A    between atoms: C_15  and  C_16 
REMARK       I    between atoms: C_16  and  N_17 
REMARK    8  A    between atoms: N_17  and  C_22 
REMARK    9  A    between atoms: C_18  and  C_22 
REMARK   10  A    between atoms: C_23  and  C_24 
ROOT
HETATM    1  C           1     -21.011  -5.343  -6.174  0.00  0.00     0.275 C 
ENDROOT
BRANCH   1   2
HETATM    2  N           1     -20.345  -6.245  -7.171  0.00  0.00    -0.066 N 
HETATM    3  H           1     -19.759  -6.949  -6.668  0.00  0.00     0.275 HD
HETATM    4  H           1     -21.075  -6.738  -7.735  0.00  0.00     0.275 HD
HETATM    5  H           1     -19.740  -5.677  -7.805  0.00  0.00     0.275 HD
ENDBRANCH   1   2
BRANCH   1   6
HETATM    6  C           1     -22.013  -4.448  -6.892  0.00  0.00     0.052 C 
BRANCH   6   7
HETATM    7  C           1     -21.709  -4.440  -8.385  0.00  0.00     0.105 C 
BRANCH   7   8
HETATM    8  C           1     -22.884  -3.862  -9.134  0.00  0.00     0.215 C 
HETATM    9  N           1     -24.114  -3.801  -8.536  0.00  0.00    -0.370 N 
HETATM   10  H           1     -24.902  -3.413  -9.038  0.00  0.00     0.159 HD
HETATM   11  H           1     -24.234  -4.143  -7.591  0.00  0.00     0.159 HD
HETATM   12  O           1     -22.740  -3.453 -10.262  0.00  0.00    -0.274 OA
ENDBRANCH   7   8
ENDBRANCH   6   7
ENDBRANCH   1   6
BRANCH   1  13
HETATM   13  C           1     -21.729  -6.178  -5.142  0.00  0.00     0.249 C 
HETATM   14  O           1     -22.934  -6.248  -5.155  0.00  0.00    -0.271 OA
HETATM   15  N           1     -21.013  -6.854  -4.191  0.00  0.00    -0.345 N 
HETATM   16  H           1     -20.003  -6.795  -4.180  0.00  0.00     0.163 HD
BRANCH  15  17
HETATM   17  C           1     -21.703  -7.656  -3.200  0.00  0.00     0.185 C 
BRANCH  17  18
HETATM   18  C           1     -20.911  -8.929  -2.936  0.00  0.00     0.036 C 
BRANCH  18  19
HETATM   19  C           1     -21.788 -10.142  -3.213  0.00  0.00     0.003 C 
BRANCH  19  20
HETATM   20 Se           1     -21.744 -11.342  -1.677  0.00  0.00     0.000 Se
HETATM   21  C           1     -23.328 -10.584  -0.832  0.00  0.00     0.000 C 
ENDBRANCH  19  20
ENDBRANCH  18  19
ENDBRANCH  17  18
BRANCH  17  22
HETATM   22  C           1     -21.835  -6.869  -1.919  0.00  0.00     0.196 C 
HETATM   23  O           1     -22.096  -5.647  -1.960  0.00  0.00    -0.646 OA
HETATM   24  O           1     -21.680  -7.438  -0.817  0.00  0.00    -0.646 OA
ENDBRANCH  17  22
ENDBRANCH  15  17
ENDBRANCH   1  13
TORSDOF 10
ENDMDL
MODEL 9
REMARK VINA RESULT:      -5.2      4.527      8.193
REMARK  10 active torsions:
REMARK  status: ('A' for Active; 'I' for Inactive)
REMARK       I    between atoms: N_6  and  C_23 
REMARK    1  A    between atoms: C_7  and  C_20 
REMARK    2  A    between atoms: C_7  and  C_22 
REMARK    3  A    between atoms: Se_10  and  C_20 
REMARK    4  A    between atoms: N_13  and  C_15 
REMARK    5  A    between atoms: C_14  and  C_15 
REMARK    6  A    between atoms: C_14  and  C_24 
REMARK    7  A    between atoms: C_15  and  C_16 
REMARK       I    between atoms: C_16  and  N_17 
REMARK    8  A    between atoms: N_17  and  C_22 
REMARK    9  A    between atoms: C_18  and  C_22 
REMARK   10  A    between atoms: C_23  and  C_24 
ROOT
HETATM    1  C           1     -22.427  -5.098  -6.878  0.00  0.00     0.275 C 
ENDROOT
BRANCH   1   2
HETATM    2  N           1     -23.833  -4.853  -6.415  0.00  0.00    -0.066 N 
HETATM    3  H           1     -23.918  -3.872  -6.064  0.00  0.00     0.275 HD
HETATM    4  H           1     -24.492  -4.995  -7.214  0.00  0.00     0.275 HD
HETATM    5  H           1     -24.068  -5.519  -5.646  0.00  0.00     0.275 HD
ENDBRANCH   1   2
BRANCH   1   6
HETATM    6  C           1     -21.842  -3.804  -7.428  0.00  0.00     0.052 C 
BRANCH   6   7
HETATM    7  C           1     -21.631  -3.939  -8.931  0.00  0.00     0.105 C 
BRANCH   7   8
HETATM    8  C           1     -20.215  -4.382  -9.203  0.00  0.00     0.215 C 
HETATM    9  N           1     -19.260  -4.257  -8.229  0.00  0.00    -0.370 N 
HETATM   10  H           1     -18.310  -4.553  -8.410  0.00  0.00     0.159 HD
HETATM   11  H           1     -19.506  -3.868  -7.327  0.00  0.00     0.159 HD
HETATM   12  O           1     -19.922  -4.846 -10.279  0.00  0.00    -0.274 OA
ENDBRANCH   7   8
ENDBRANCH   6   7
ENDBRANCH   1   6
BRANCH   1  13
HETATM   13  C           1     -21.592  -5.577  -5.716  0.00  0.00     0.249 C 
HETATM   14  O           1     -20.399  -5.389  -5.713  0.00  0.00    -0.271 OA
HETATM   15  N           1     -22.186  -6.224  -4.667  0.00  0.00    -0.345 N 
HETATM   16  H           1     -23.185  -6.382  -4.670  0.00  0.00     0.163 HD
BRANCH  15  17
HETATM   17  C           1     -21.383  -6.684  -3.551  0.00  0.00     0.185 C 
BRANCH  17  18
HETATM   18  C           1     -22.192  -6.576  -2.265  0.00  0.00     0.036 C 
BRANCH  18  19
HETATM   19  C           1     -21.476  -7.324  -1.150  0.00  0.00     0.003 C 
BRANCH  19  20
HETATM   20 Se           1     -22.790  -8.046   0.097  0.00  0.00     0.000 Se
HETATM   21  C           1     -22.142  -9.880  -0.027  0.00  0.00     0.000 C 
ENDBRANCH  19  20
ENDBRANCH  18  19
ENDBRANCH  17  18
BRANCH  17  22
HETATM   22  C           1     -20.984  -8.122  -3.777  0.00  0.00     0.196 C 
HETATM   23  O           1     -21.864  -8.997  -3.932  0.00  0.00    -0.646 OA
HETATM   24  O           1     -19.775  -8.439  -3.807  0.00  0.00    -0.646 OA
ENDBRANCH  17  22
ENDBRANCH  15  17
ENDBRANCH   1  13
TORSDOF 10
ENDMDL
