MODEL 1
REMARK VINA RESULT:      -7.1      0.000      0.000
REMARK  10 active torsions:
REMARK  status: ('A' for Active; 'I' for Inactive)
REMARK    1  A    between atoms: C_2  and  C_4 
REMARK    2  A    between atoms: C_4  and  C_5 
REMARK    3  A    between atoms: C_5  and  C_6 
REMARK    4  A    between atoms: C_5  and  N_9 
REMARK       I    between atoms: N_9  and  C_10 
REMARK    5  A    between atoms: C_10  and  C_11 
REMARK    6  A    between atoms: C_11  and  C_12 
REMARK    7  A    between atoms: C_11  and  N_19 
REMARK    8  A    between atoms: C_12  and  C_13 
REMARK    9  A    between atoms: C_13  and  C_14 
REMARK   10  A    between atoms: C_14  and  N_15 
REMARK       I    between atoms: N_15  and  C_16 
REMARK       I    between atoms: C_16  and  N_17 
ROOT
HETATM    1  C           1     -24.232  -4.639  -9.911  0.00  0.00     0.274 C 
ENDROOT
BRANCH   1   2
HETATM    2  C           1     -23.285  -4.536  -8.740  0.00  0.00     0.249 C 
HETATM    3  N           1     -21.992  -4.970  -8.864  0.00  0.00    -0.345 N 
HETATM    4  H           1     -21.672  -5.361  -9.742  0.00  0.00     0.163 HD
HETATM    5  O           1     -23.667  -4.070  -7.693  0.00  0.00    -0.271 OA
BRANCH   3   6
HETATM    6  C           1     -21.083  -4.871  -7.740  0.00  0.00     0.185 C 
BRANCH   6   7
HETATM    7  C           1     -20.841  -6.258  -7.160  0.00  0.00     0.040 C 
BRANCH   7   8
HETATM    8  C           1     -21.530  -6.370  -5.805  0.00  0.00    -0.020 C 
HETATM    9  C           1     -21.480  -7.816  -5.329  0.00  0.00     0.009 C 
HETATM   10  C           1     -20.815  -5.479  -4.798  0.00  0.00     0.009 C 
ENDBRANCH   7   8
ENDBRANCH   6   7
BRANCH   6  11
HETATM   11  C           1     -19.773  -4.283  -8.203  0.00  0.00     0.196 C 
HETATM   12  O           1     -18.750  -4.400  -7.493  0.00  0.00    -0.646 OA
HETATM   13  O           1     -19.710  -3.679  -9.296  0.00  0.00    -0.646 OA
ENDBRANCH   6  11
ENDBRANCH   3   6
ENDBRANCH   1   2
BRANCH   1  14
HETATM   14  C           1     -23.447  -4.521 -11.210  0.00  0.00     0.044 C 
BRANCH  14  15
HETATM   15  C           1     -23.360  -3.056 -11.621  0.00  0.00     0.023 C 
BRANCH  15  16
HETATM   16  C           1     -23.290  -2.957 -13.138  0.00  0.00     0.138 C 
BRANCH  16  17
HETATM   17  N           1     -24.046  -1.779 -13.588  0.00  0.00    -0.227 N 
HETATM   18  C           1     -23.797  -1.260 -14.715  0.00  0.00     0.665 C 
HETATM   19  N           1     -24.448  -0.245 -15.104  0.00  0.00    -0.235 N 
HETATM   20  N           1     -22.873  -1.769 -15.476  0.00  0.00    -0.235 N 
HETATM   21  H           1     -24.241   0.185 -16.038  0.00  0.00     0.174 HD
HETATM   22  H           1     -25.193   0.166 -14.489  0.00  0.00     0.174 HD
HETATM   23  H           1     -22.667  -1.340 -16.407  0.00  0.00     0.174 HD
HETATM   24  H           1     -22.336  -2.605 -15.156  0.00  0.00     0.174 HD
HETATM   25  H           1     -24.792  -1.369 -12.975  0.00  0.00     0.177 HD
ENDBRANCH  16  17
ENDBRANCH  15  16
ENDBRANCH  14  15
ENDBRANCH   1  14
BRANCH   1  26
HETATM   26  N           1     -25.241  -3.532  -9.834  0.00  0.00    -0.067 N 
HETATM   27  H           1     -25.166  -2.933 -10.686  0.00  0.00     0.275 HD
HETATM   28  H           1     -26.201  -3.941  -9.780  0.00  0.00     0.275 HD
HETATM   29  H           1     -25.059  -2.953  -8.983  0.00  0.00     0.275 HD
ENDBRANCH   1  26
TORSDOF 10
ENDMDL
MODEL 2
REMARK VINA RESULT:      -6.9     12.544     15.033
REMARK  10 active torsions:
REMARK  status: ('A' for Active; 'I' for Inactive)
REMARK    1  A    between atoms: C_2  and  C_4 
REMARK    2  A    between atoms: C_4  and  C_5 
REMARK    3  A    between atoms: C_5  and  C_6 
REMARK    4  A    between atoms: C_5  and  N_9 
REMARK       I    between atoms: N_9  and  C_10 
REMARK    5  A    between atoms: C_10  and  C_11 
REMARK    6  A    between atoms: C_11  and  C_12 
REMARK    7  A    between atoms: C_11  and  N_19 
REMARK    8  A    between atoms: C_12  and  C_13 
REMARK    9  A    between atoms: C_13  and  C_14 
REMARK   10  A    between atoms: C_14  and  N_15 
REMARK       I    between atoms: N_15  and  C_16 
REMARK       I    between atoms: C_16  and  N_17 
ROOT
HETATM    1  C           1     -33.886  -2.080 -11.788  0.00  0.00     0.274 C 
ENDROOT
BRANCH   1   2
HETATM    2  C           1     -35.073  -1.785 -12.673  0.00  0.00     0.249 C 
HETATM    3  N           1     -34.880  -1.435 -13.983  0.00  0.00    -0.345 N 
HETATM    4  H           1     -33.941  -1.373 -14.357  0.00  0.00     0.163 HD
HETATM    5  O           1     -36.193  -1.859 -12.227  0.00  0.00    -0.271 OA
BRANCH   3   6
HETATM    6  C           1     -36.019  -1.152 -14.833  0.00  0.00     0.185 C 
BRANCH   6   7
HETATM    7  C           1     -36.449   0.295 -14.638  0.00  0.00     0.040 C 
BRANCH   7   8
HETATM    8  C           1     -35.316   1.223 -15.059  0.00  0.00    -0.020 C 
HETATM    9  C           1     -35.883   2.377 -15.876  0.00  0.00     0.009 C 
HETATM   10  C           1     -34.623   1.772 -13.820  0.00  0.00     0.009 C 
ENDBRANCH   7   8
ENDBRANCH   6   7
BRANCH   6  11
HETATM   11  C           1     -35.638  -1.375 -16.275  0.00  0.00     0.196 C 
HETATM   12  O           1     -36.391  -0.975 -17.190  0.00  0.00    -0.646 OA
HETATM   13  O           1     -34.569  -1.960 -16.557  0.00  0.00    -0.646 OA
ENDBRANCH   6  11
ENDBRANCH   3   6
ENDBRANCH   1   2
BRANCH   1  14
HETATM   14  C           1     -33.490  -3.542 -11.941  0.00  0.00     0.044 C 
BRANCH  14  15
HETATM   15  C           1     -33.796  -4.290 -10.650  0.00  0.00     0.023 C 
BRANCH  15  16
HETATM   16  C           1     -34.701  -5.476 -10.953  0.00  0.00     0.138 C 
BRANCH  16  17
HETATM   17  N           1     -33.899  -6.708 -10.989  0.00  0.00    -0.227 N 
HETATM   18  C           1     -34.210  -7.688 -10.251  0.00  0.00     0.665 C 
HETATM   19  N           1     -33.520  -8.749 -10.281  0.00  0.00    -0.235 N 
HETATM   20  N           1     -35.240  -7.605  -9.461  0.00  0.00    -0.235 N 
HETATM   21  H           1     -33.778  -9.562  -9.669  0.00  0.00     0.174 HD
HETATM   22  H           1     -32.688  -8.815 -10.919  0.00  0.00     0.174 HD
HETATM   23  H           1     -35.497  -8.415  -8.851  0.00  0.00     0.174 HD
HETATM   24  H           1     -35.809  -6.730  -9.435  0.00  0.00     0.174 HD
HETATM   25  H           1     -33.068  -6.775 -11.627  0.00  0.00     0.177 HD
ENDBRANCH  16  17
ENDBRANCH  15  16
ENDBRANCH  14  15
ENDBRANCH   1  14
BRANCH   1  26
HETATM   26  N           1     -34.251  -1.808 -10.358  0.00  0.00    -0.067 N 
HETATM   27  H           1     -33.413  -1.449  -9.848  0.00  0.00     0.275 HD
HETATM   28  H           1     -35.012  -1.093 -10.324  0.00  0.00     0.275 HD
HETATM   29  H           1     -34.581  -2.692  -9.909  0.00  0.00     0.275 HD
ENDBRANCH   1  26
TORSDOF 10
ENDMDL
MODEL 3
REMARK VINA RESULT:      -6.9      2.534      3.787
REMARK  10 active torsions:
REMARK  status: ('A' for Active; 'I' for Inactive)
REMARK    1  A    between atoms: C_2  and  C_4 
REMARK    2  A    between atoms: C_4  and  C_5 
REMARK    3  A    between atoms: C_5  and  C_6 
REMARK    4  A    between atoms: C_5  and  N_9 
REMARK       I    between atoms: N_9  and  C_10 
REMARK    5  A    between atoms: C_10  and  C_11 
REMARK    6  A    between atoms: C_11  and  C_12 
REMARK    7  A    between atoms: C_11  and  N_19 
REMARK    8  A    between atoms: C_12  and  C_13 
REMARK    9  A    between atoms: C_13  and  C_14 
REMARK   10  A    between atoms: C_14  and  N_15 
REMARK       I    between atoms: N_15  and  C_16 
REMARK       I    between atoms: C_16  and  N_17 
ROOT
HETATM    1  C           1     -21.490  -4.861  -8.192  0.00  0.00     0.274 C 
ENDROOT
BRANCH   1   2
HETATM    2  C           1     -20.792  -5.525  -7.030  0.00  0.00     0.249 C 
HETATM    3  N           1     -21.475  -6.404  -6.233  0.00  0.00    -0.345 N 
HETATM    4  H           1     -22.449  -6.607  -6.422  0.00  0.00     0.163 HD
HETATM    5  O           1     -19.630  -5.283  -6.805  0.00  0.00    -0.271 OA
BRANCH   3   6
HETATM    6  C           1     -20.804  -7.043  -5.118  0.00  0.00     0.185 C 
BRANCH   6   7
HETATM    7  C           1     -21.794  -7.239  -3.977  0.00  0.00     0.040 C 
BRANCH   7   8
HETATM    8  C           1     -21.154  -6.793  -2.667  0.00  0.00    -0.020 C 
HETATM    9  C           1     -22.212  -6.150  -1.780  0.00  0.00     0.009 C 
HETATM   10  C           1     -20.561  -8.001  -1.956  0.00  0.00     0.009 C 
ENDBRANCH   7   8
ENDBRANCH   6   7
BRANCH   6  11
HETATM   11  C           1     -20.267  -8.383  -5.555  0.00  0.00     0.196 C 
HETATM   12  O           1     -21.035  -9.365  -5.644  0.00  0.00    -0.646 OA
HETATM   13  O           1     -19.054  -8.511  -5.829  0.00  0.00    -0.646 OA
ENDBRANCH   6  11
ENDBRANCH   3   6
ENDBRANCH   1   2
BRANCH   1  14
HETATM   14  C           1     -20.475  -4.078  -9.015  0.00  0.00     0.044 C 
BRANCH  14  15
HETATM   15  C           1     -20.642  -4.422 -10.489  0.00  0.00     0.023 C 
BRANCH  15  16
HETATM   16  C           1     -21.823  -3.649 -11.060  0.00  0.00     0.138 C 
BRANCH  16  17
HETATM   17  N           1     -21.776  -3.696 -12.529  0.00  0.00    -0.227 N 
HETATM   18  C           1     -22.607  -3.028 -13.211  0.00  0.00     0.665 C 
HETATM   19  N           1     -22.567  -3.067 -14.476  0.00  0.00    -0.235 N 
HETATM   20  N           1     -23.503  -2.300 -12.612  0.00  0.00    -0.235 N 
HETATM   21  H           1     -23.257  -2.513 -15.041  0.00  0.00     0.174 HD
HETATM   22  H           1     -21.844  -3.656 -14.959  0.00  0.00     0.174 HD
HETATM   23  H           1     -24.190  -1.748 -13.174  0.00  0.00     0.174 HD
HETATM   24  H           1     -23.537  -2.267 -11.569  0.00  0.00     0.174 HD
HETATM   25  H           1     -21.053  -4.283 -13.012  0.00  0.00     0.177 HD
ENDBRANCH  16  17
ENDBRANCH  15  16
ENDBRANCH  14  15
ENDBRANCH   1  14
BRANCH   1  26
HETATM   26  N           1     -22.541  -3.924  -7.673  0.00  0.00    -0.067 N 
HETATM   27  H           1     -22.259  -3.572  -6.731  0.00  0.00     0.275 HD
HETATM   28  H           1     -22.644  -3.119  -8.331  0.00  0.00     0.275 HD
HETATM   29  H           1     -23.452  -4.432  -7.597  0.00  0.00     0.275 HD
ENDBRANCH   1  26
TORSDOF 10
ENDMDL
MODEL 4
REMARK VINA RESULT:      -6.9      3.545      8.174
REMARK  10 active torsions:
REMARK  status: ('A' for Active; 'I' for Inactive)
REMARK    1  A    between atoms: C_2  and  C_4 
REMARK    2  A    between atoms: C_4  and  C_5 
REMARK    3  A    between atoms: C_5  and  C_6 
REMARK    4  A    between atoms: C_5  and  N_9 
REMARK       I    between atoms: N_9  and  C_10 
REMARK    5  A    between atoms: C_10  and  C_11 
REMARK    6  A    between atoms: C_11  and  C_12 
REMARK    7  A    between atoms: C_11  and  N_19 
REMARK    8  A    between atoms: C_12  and  C_13 
REMARK    9  A    between atoms: C_13  and  C_14 
REMARK   10  A    between atoms: C_14  and  N_15 
REMARK       I    between atoms: N_15  and  C_16 
REMARK       I    between atoms: C_16  and  N_17 
ROOT
HETATM    1  C           1     -22.543  -4.761  -6.476  0.00  0.00     0.274 C 
ENDROOT
BRANCH   1   2
HETATM    2  C           1     -22.433  -4.121  -7.839  0.00  0.00     0.249 C 
HETATM    3  N           1     -23.421  -4.311  -8.767  0.00  0.00    -0.345 N 
HETATM    4  H           1     -24.226  -4.882  -8.539  0.00  0.00     0.163 HD
HETATM    5  O           1     -21.473  -3.439  -8.110  0.00  0.00    -0.271 OA
BRANCH   3   6
HETATM    6  C           1     -23.316  -3.695 -10.075  0.00  0.00     0.185 C 
BRANCH   6   7
HETATM    7  C           1     -22.728  -4.697 -11.059  0.00  0.00     0.040 C 
BRANCH   7   8
HETATM    8  C           1     -21.420  -4.151 -11.620  0.00  0.00    -0.020 C 
HETATM    9  C           1     -21.425  -2.631 -11.528  0.00  0.00     0.009 C 
HETATM   10  C           1     -20.253  -4.705 -10.814  0.00  0.00     0.009 C 
ENDBRANCH   7   8
ENDBRANCH   6   7
BRANCH   6  11
HETATM   11  C           1     -24.686  -3.273 -10.544  0.00  0.00     0.196 C 
HETATM   12  O           1     -25.602  -3.090  -9.713  0.00  0.00    -0.646 OA
HETATM   13  O           1     -24.905  -3.105 -11.763  0.00  0.00    -0.646 OA
ENDBRANCH   6  11
ENDBRANCH   3   6
ENDBRANCH   1   2
BRANCH   1  14
HETATM   14  C           1     -21.644  -5.988  -6.417  0.00  0.00     0.044 C 
BRANCH  14  15
HETATM   15  C           1     -21.922  -6.761  -5.134  0.00  0.00     0.023 C 
BRANCH  15  16
HETATM   16  C           1     -21.272  -6.044  -3.958  0.00  0.00     0.138 C 
BRANCH  16  17
HETATM   17  N           1     -22.145  -6.142  -2.780  0.00  0.00    -0.227 N 
HETATM   18  C           1     -21.818  -6.886  -1.809  0.00  0.00     0.665 C 
HETATM   19  N           1     -22.570  -6.971  -0.794  0.00  0.00    -0.235 N 
HETATM   20  N           1     -20.710  -7.564  -1.855  0.00  0.00    -0.235 N 
HETATM   21  H           1     -22.299  -7.588   0.010  0.00  0.00     0.174 HD
HETATM   22  H           1     -23.466  -6.424  -0.758  0.00  0.00     0.174 HD
HETATM   23  H           1     -20.440  -8.179  -1.054  0.00  0.00     0.174 HD
HETATM   24  H           1     -20.090  -7.495  -2.692  0.00  0.00     0.174 HD
HETATM   25  H           1     -23.040  -5.594  -2.743  0.00  0.00     0.177 HD
ENDBRANCH  16  17
ENDBRANCH  15  16
ENDBRANCH  14  15
ENDBRANCH   1  14
BRANCH   1  26
HETATM   26  N           1     -23.965  -5.170  -6.231  0.00  0.00    -0.067 N 
HETATM   27  H           1     -24.145  -5.206  -5.203  0.00  0.00     0.275 HD
HETATM   28  H           1     -24.608  -4.475  -6.674  0.00  0.00     0.275 HD
HETATM   29  H           1     -24.132  -6.115  -6.647  0.00  0.00     0.275 HD
ENDBRANCH   1  26
TORSDOF 10
ENDMDL
MODEL 5
REMARK VINA RESULT:      -6.7     12.272     14.250
REMARK  10 active torsions:
REMARK  status: ('A' for Active; 'I' for Inactive)
REMARK    1  A    between atoms: C_2  and  C_4 
REMARK    2  A    between atoms: C_4  and  C_5 
REMARK    3  A    between atoms: C_5  and  C_6 
REMARK    4  A    between atoms: C_5  and  N_9 
REMARK       I    between atoms: N_9  and  C_10 
REMARK    5  A    between atoms: C_10  and  C_11 
REMARK    6  A    between atoms: C_11  and  C_12 
REMARK    7  A    between atoms: C_11  and  N_19 
REMARK    8  A    between atoms: C_12  and  C_13 
REMARK    9  A    between atoms: C_13  and  C_14 
REMARK   10  A    between atoms: C_14  and  N_15 
REMARK       I    between atoms: N_15  and  C_16 
REMARK       I    between atoms: C_16  and  N_17 
ROOT
HETATM    1  C           1     -35.921   0.444 -14.845  0.00  0.00     0.274 C 
ENDROOT
BRANCH   1   2
HETATM    2  C           1     -36.616  -0.243 -13.695  0.00  0.00     0.249 C 
HETATM    3  N           1     -35.973  -0.389 -12.495  0.00  0.00    -0.345 N 
HETATM    4  H           1     -35.031  -0.036 -12.380  0.00  0.00     0.163 HD
HETATM    5  O           1     -37.740  -0.663 -13.832  0.00  0.00    -0.271 OA
BRANCH   3   6
HETATM    6  C           1     -36.640  -1.048 -11.390  0.00  0.00     0.185 C 
BRANCH   6   7
HETATM    7  C           1     -35.803  -2.232 -10.927  0.00  0.00     0.040 C 
BRANCH   7   8
HETATM    8  C           1     -34.489  -2.258 -11.697  0.00  0.00    -0.020 C 
HETATM    9  C           1     -33.325  -2.195 -10.716  0.00  0.00     0.009 C 
HETATM   10  C           1     -34.401  -3.544 -12.507  0.00  0.00     0.009 C 
ENDBRANCH   7   8
ENDBRANCH   6   7
BRANCH   6  11
HETATM   11  C           1     -36.809  -0.073 -10.251  0.00  0.00     0.196 C 
HETATM   12  O           1     -37.651   0.846 -10.334  0.00  0.00    -0.646 OA
HETATM   13  O           1     -36.105  -0.186  -9.223  0.00  0.00    -0.646 OA
ENDBRANCH   6  11
ENDBRANCH   3   6
ENDBRANCH   1   2
BRANCH   1  14
HETATM   14  C           1     -35.882  -0.490 -16.047  0.00  0.00     0.044 C 
BRANCH  14  15
HETATM   15  C           1     -35.138  -1.767 -15.675  0.00  0.00     0.023 C 
BRANCH  15  16
HETATM   16  C           1     -34.541  -2.390 -16.928  0.00  0.00     0.138 C 
BRANCH  16  17
HETATM   17  N           1     -33.953  -3.696 -16.595  0.00  0.00    -0.227 N 
HETATM   18  C           1     -32.758  -3.954 -16.922  0.00  0.00     0.665 C 
HETATM   19  N           1     -32.252  -5.079 -16.635  0.00  0.00    -0.235 N 
HETATM   20  N           1     -32.050  -3.065 -17.552  0.00  0.00    -0.235 N 
HETATM   21  H           1     -31.260  -5.293 -16.906  0.00  0.00     0.174 HD
HETATM   22  H           1     -32.824  -5.798 -16.127  0.00  0.00     0.174 HD
HETATM   23  H           1     -31.063  -3.278 -17.822  0.00  0.00     0.174 HD
HETATM   24  H           1     -32.467  -2.137 -17.789  0.00  0.00     0.174 HD
HETATM   25  H           1     -34.525  -4.414 -16.086  0.00  0.00     0.177 HD
ENDBRANCH  16  17
ENDBRANCH  15  16
ENDBRANCH  14  15
ENDBRANCH   1  14
BRANCH   1  26
HETATM   26  N           1     -34.520   0.798 -14.442  0.00  0.00    -0.067 N 
HETATM   27  H           1     -33.843   0.230 -14.999  0.00  0.00     0.275 HD
HETATM   28  H           1     -34.353   1.814 -14.620  0.00  0.00     0.275 HD
HETATM   29  H           1     -34.389   0.596 -13.424  0.00  0.00     0.275 HD
ENDBRANCH   1  26
TORSDOF 10
ENDMDL
MODEL 6
REMARK VINA RESULT:      -6.4      3.238      7.725
REMARK  10 active torsions:
REMARK  status: ('A' for Active; 'I' for Inactive)
REMARK    1  A    between atoms: C_2  and  C_4 
REMARK    2  A    between atoms: C_4  and  C_5 
REMARK    3  A    between atoms: C_5  and  C_6 
REMARK    4  A    between atoms: C_5  and  N_9 
REMARK       I    between atoms: N_9  and  C_10 
REMARK    5  A    between atoms: C_10  and  C_11 
REMARK    6  A    between atoms: C_11  and  C_12 
REMARK    7  A    between atoms: C_11  and  N_19 
REMARK    8  A    between atoms: C_12  and  C_13 
REMARK    9  A    between atoms: C_13  and  C_14 
REMARK   10  A    between atoms: C_14  and  N_15 
REMARK       I    between atoms: N_15  and  C_16 
REMARK       I    between atoms: C_16  and  N_17 
ROOT
HETATM    1  C           1     -22.417  -4.778  -6.566  0.00  0.00     0.274 C 
ENDROOT
BRANCH   1   2
HETATM    2  C           1     -22.373  -4.071  -7.898  0.00  0.00     0.249 C 
HETATM    3  N           1     -23.284  -4.385  -8.871  0.00  0.00    -0.345 N 
HETATM    4  H           1     -23.987  -5.092  -8.697  0.00  0.00     0.163 HD
HETATM    5  O           1     -21.534  -3.227  -8.106  0.00  0.00    -0.271 OA
BRANCH   3   6
HETATM    6  C           1     -23.241  -3.705 -10.150  0.00  0.00     0.185 C 
BRANCH   6   7
HETATM    7  C           1     -22.661  -4.641 -11.202  0.00  0.00     0.040 C 
BRANCH   7   8
HETATM    8  C           1     -21.316  -4.103 -11.676  0.00  0.00    -0.020 C 
HETATM    9  C           1     -21.306  -2.585 -11.552  0.00  0.00     0.009 C 
HETATM   10  C           1     -20.204  -4.690 -10.818  0.00  0.00     0.009 C 
ENDBRANCH   7   8
ENDBRANCH   6   7
BRANCH   6  11
HETATM   11  C           1     -24.637  -3.300 -10.551  0.00  0.00     0.196 C 
HETATM   12  O           1     -25.523  -3.161  -9.680  0.00  0.00    -0.646 OA
HETATM   13  O           1     -24.910  -3.102 -11.756  0.00  0.00    -0.646 OA
ENDBRANCH   6  11
ENDBRANCH   3   6
ENDBRANCH   1   2
BRANCH   1  14
HETATM   14  C           1     -21.579  -6.047  -6.635  0.00  0.00     0.044 C 
BRANCH  14  15
HETATM   15  C           1     -20.511  -6.011  -5.549  0.00  0.00     0.023 C 
BRANCH  15  16
HETATM   16  C           1     -20.594  -7.279  -4.712  0.00  0.00     0.138 C 
BRANCH  16  17
HETATM   17  N           1     -20.485  -8.454  -5.589  0.00  0.00    -0.227 N 
HETATM   18  C           1     -21.008  -9.553  -5.243  0.00  0.00     0.665 C 
HETATM   19  N           1     -20.915 -10.566  -5.999  0.00  0.00    -0.235 N 
HETATM   20  N           1     -21.643  -9.644  -4.111  0.00  0.00    -0.235 N 
HETATM   21  H           1     -21.348 -11.477  -5.711  0.00  0.00     0.174 HD
HETATM   22  H           1     -20.402 -10.493  -6.912  0.00  0.00     0.174 HD
HETATM   23  H           1     -22.074 -10.552  -3.825  0.00  0.00     0.174 HD
HETATM   24  H           1     -21.719  -8.810  -3.488  0.00  0.00     0.174 HD
HETATM   25  H           1     -19.974  -8.381  -6.503  0.00  0.00     0.177 HD
ENDBRANCH  16  17
ENDBRANCH  15  16
ENDBRANCH  14  15
ENDBRANCH   1  14
BRANCH   1  26
HETATM   26  N           1     -23.837  -5.136  -6.238  0.00  0.00    -0.067 N 
HETATM   27  H           1     -24.011  -6.135  -6.487  0.00  0.00     0.275 HD
HETATM   28  H           1     -24.004  -4.997  -5.216  0.00  0.00     0.275 HD
HETATM   29  H           1     -24.485  -4.522  -6.784  0.00  0.00     0.275 HD
ENDBRANCH   1  26
TORSDOF 10
ENDMDL
MODEL 7
REMARK VINA RESULT:      -6.3      3.072      5.210
REMARK  10 active torsions:
REMARK  status: ('A' for Active; 'I' for Inactive)
REMARK    1  A    between atoms: C_2  and  C_4 
REMARK    2  A    between atoms: C_4  and  C_5 
REMARK    3  A    between atoms: C_5  and  C_6 
REMARK    4  A    between atoms: C_5  and  N_9 
REMARK       I    between atoms: N_9  and  C_10 
REMARK    5  A    between atoms: C_10  and  C_11 
REMARK    6  A    between atoms: C_11  and  C_12 
REMARK    7  A    between atoms: C_11  and  N_19 
REMARK    8  A    between atoms: C_12  and  C_13 
REMARK    9  A    between atoms: C_13  and  C_14 
REMARK   10  A    between atoms: C_14  and  N_15 
REMARK       I    between atoms: N_15  and  C_16 
REMARK       I    between atoms: C_16  and  N_17 
ROOT
HETATM    1  C           1     -20.475  -5.158  -6.399  0.00  0.00     0.274 C 
ENDROOT
BRANCH   1   2
HETATM    2  C           1     -21.347  -5.954  -5.457  0.00  0.00     0.249 C 
HETATM    3  N           1     -20.775  -6.803  -4.547  0.00  0.00    -0.345 N 
HETATM    4  H           1     -19.768  -6.898  -4.507  0.00  0.00     0.163 HD
HETATM    5  O           1     -22.548  -5.840  -5.505  0.00  0.00    -0.271 OA
BRANCH   3   6
HETATM    6  C           1     -21.612  -7.566  -3.643  0.00  0.00     0.185 C 
BRANCH   6   7
HETATM    7  C           1     -21.052  -8.975  -3.503  0.00  0.00     0.040 C 
BRANCH   7   8
HETATM    8  C           1     -21.950  -9.956  -4.249  0.00  0.00    -0.020 C 
HETATM    9  C           1     -21.128 -10.702  -5.291  0.00  0.00     0.009 C 
HETATM   10  C           1     -22.543 -10.951  -3.262  0.00  0.00     0.009 C 
ENDBRANCH   7   8
ENDBRANCH   6   7
BRANCH   6  11
HETATM   11  C           1     -21.634  -6.896  -2.292  0.00  0.00     0.196 C 
HETATM   12  O           1     -21.042  -7.421  -1.324  0.00  0.00    -0.646 OA
HETATM   13  O           1     -22.244  -5.814  -2.140  0.00  0.00    -0.646 OA
ENDBRANCH   6  11
ENDBRANCH   3   6
ENDBRANCH   1   2
BRANCH   1  14
HETATM   14  C           1     -21.252  -3.955  -6.915  0.00  0.00     0.044 C 
BRANCH  14  15
HETATM   15  C           1     -21.528  -4.129  -8.403  0.00  0.00     0.023 C 
BRANCH  15  16
HETATM   16  C           1     -23.027  -4.045  -8.654  0.00  0.00     0.138 C 
BRANCH  16  17
HETATM   17  N           1     -23.271  -3.731 -10.070  0.00  0.00    -0.227 N 
HETATM   18  C           1     -24.450  -3.522 -10.478  0.00  0.00     0.665 C 
HETATM   19  N           1     -24.660  -3.251 -11.697  0.00  0.00    -0.235 N 
HETATM   20  N           1     -25.447  -3.584  -9.646  0.00  0.00    -0.235 N 
HETATM   21  H           1     -25.639  -3.079 -12.036  0.00  0.00     0.174 HD
HETATM   22  H           1     -23.855  -3.202 -12.370  0.00  0.00     0.174 HD
HETATM   23  H           1     -26.421  -3.412  -9.983  0.00  0.00     0.174 HD
HETATM   24  H           1     -25.274  -3.808  -8.640  0.00  0.00     0.174 HD
HETATM   25  H           1     -22.466  -3.680 -10.742  0.00  0.00     0.177 HD
ENDBRANCH  16  17
ENDBRANCH  15  16
ENDBRANCH  14  15
ENDBRANCH   1  14
BRANCH   1  26
HETATM   26  N           1     -20.069  -6.025  -7.554  0.00  0.00    -0.067 N 
HETATM   27  H           1     -20.013  -7.020  -7.241  0.00  0.00     0.275 HD
HETATM   28  H           1     -20.777  -5.940  -8.318  0.00  0.00     0.275 HD
HETATM   29  H           1     -19.134  -5.718  -7.908  0.00  0.00     0.275 HD
ENDBRANCH   1  26
TORSDOF 10
ENDMDL
MODEL 8
REMARK VINA RESULT:      -5.9      2.982      4.477
REMARK  10 active torsions:
REMARK  status: ('A' for Active; 'I' for Inactive)
REMARK    1  A    between atoms: C_2  and  C_4 
REMARK    2  A    between atoms: C_4  and  C_5 
REMARK    3  A    between atoms: C_5  and  C_6 
REMARK    4  A    between atoms: C_5  and  N_9 
REMARK       I    between atoms: N_9  and  C_10 
REMARK    5  A    between atoms: C_10  and  C_11 
REMARK    6  A    between atoms: C_11  and  C_12 
REMARK    7  A    between atoms: C_11  and  N_19 
REMARK    8  A    between atoms: C_12  and  C_13 
REMARK    9  A    between atoms: C_13  and  C_14 
REMARK   10  A    between atoms: C_14  and  N_15 
REMARK       I    between atoms: N_15  and  C_16 
REMARK       I    between atoms: C_16  and  N_17 
ROOT
HETATM    1  C           1     -20.847  -4.695  -6.943  0.00  0.00     0.274 C 
ENDROOT
BRANCH   1   2
HETATM    2  C           1     -21.648  -5.566  -6.005  0.00  0.00     0.249 C 
HETATM    3  N           1     -21.006  -6.387  -5.116  0.00  0.00    -0.345 N 
HETATM    4  H           1     -19.994  -6.411  -5.090  0.00  0.00     0.163 HD
HETATM    5  O           1     -22.855  -5.537  -6.037  0.00  0.00    -0.271 OA
BRANCH   3   6
HETATM    6  C           1     -21.775  -7.222  -4.216  0.00  0.00     0.185 C 
BRANCH   6   7
HETATM    7  C           1     -21.172  -8.619  -4.181  0.00  0.00     0.040 C 
BRANCH   7   8
HETATM    8  C           1     -19.659  -8.516  -4.022  0.00  0.00    -0.020 C 
HETATM    9  C           1     -19.242  -9.172  -2.712  0.00  0.00     0.009 C 
HETATM   10  C           1     -18.978  -9.224  -5.184  0.00  0.00     0.009 C 
ENDBRANCH   7   8
ENDBRANCH   6   7
BRANCH   6  11
HETATM   11  C           1     -21.746  -6.626  -2.830  0.00  0.00     0.196 C 
HETATM   12  O           1     -21.282  -5.479  -2.652  0.00  0.00    -0.646 OA
HETATM   13  O           1     -22.188  -7.279  -1.859  0.00  0.00    -0.646 OA
ENDBRANCH   6  11
ENDBRANCH   3   6
ENDBRANCH   1   2
BRANCH   1  14
HETATM   14  C           1     -21.793  -3.836  -7.770  0.00  0.00     0.044 C 
BRANCH  14  15
HETATM   15  C           1     -21.644  -4.190  -9.244  0.00  0.00     0.023 C 
BRANCH  15  16
HETATM   16  C           1     -22.847  -3.666 -10.016  0.00  0.00     0.138 C 
BRANCH  16  17
HETATM   17  N           1     -22.402  -3.119 -11.307  0.00  0.00    -0.227 N 
HETATM   18  C           1     -22.732  -3.694 -12.385  0.00  0.00     0.665 C 
HETATM   19  N           1     -22.349  -3.224 -13.497  0.00  0.00    -0.235 N 
HETATM   20  N           1     -23.466  -4.767 -12.352  0.00  0.00    -0.235 N 
HETATM   21  H           1     -22.623  -3.701 -14.391  0.00  0.00     0.174 HD
HETATM   22  H           1     -21.756  -2.357 -13.523  0.00  0.00     0.174 HD
HETATM   23  H           1     -23.739  -5.242 -13.242  0.00  0.00     0.174 HD
HETATM   24  H           1     -23.781  -5.155 -11.435  0.00  0.00     0.174 HD
HETATM   25  H           1     -21.810  -2.253 -11.334  0.00  0.00     0.177 HD
ENDBRANCH  16  17
ENDBRANCH  15  16
ENDBRANCH  14  15
ENDBRANCH   1  14
BRANCH   1  26
HETATM   26  N           1     -20.033  -5.564  -7.856  0.00  0.00    -0.067 N 
HETATM   27  H           1     -19.970  -5.116  -8.798  0.00  0.00     0.275 HD
HETATM   28  H           1     -19.073  -5.680  -7.461  0.00  0.00     0.275 HD
HETATM   29  H           1     -20.490  -6.500  -7.945  0.00  0.00     0.275 HD
ENDBRANCH   1  26
TORSDOF 10
ENDMDL
MODEL 9
REMARK VINA RESULT:      -5.9      2.730      4.404
REMARK  10 active torsions:
REMARK  status: ('A' for Active; 'I' for Inactive)
REMARK    1  A    between atoms: C_2  and  C_4 
REMARK    2  A    between atoms: C_4  and  C_5 
REMARK    3  A    between atoms: C_5  and  C_6 
REMARK    4  A    between atoms: C_5  and  N_9 
REMARK       I    between atoms: N_9  and  C_10 
REMARK    5  A    between atoms: C_10  and  C_11 
REMARK    6  A    between atoms: C_11  and  C_12 
REMARK    7  A    between atoms: C_11  and  N_19 
REMARK    8  A    between atoms: C_12  and  C_13 
REMARK    9  A    between atoms: C_13  and  C_14 
REMARK   10  A    between atoms: C_14  and  N_15 
REMARK       I    between atoms: N_15  and  C_16 
REMARK       I    between atoms: C_16  and  N_17 
ROOT
HETATM    1  C           1     -20.197  -4.488  -7.349  0.00  0.00     0.274 C 
ENDROOT
BRANCH   1   2
HETATM    2  C           1     -20.239  -5.427  -6.168  0.00  0.00     0.249 C 
HETATM    3  N           1     -19.972  -6.758  -6.341  0.00  0.00    -0.345 N 
HETATM    4  H           1     -19.748  -7.113  -7.263  0.00  0.00     0.163 HD
HETATM    5  O           1     -20.506  -5.003  -5.069  0.00  0.00    -0.271 OA
BRANCH   3   6
HETATM    6  C           1     -20.011  -7.659  -5.207  0.00  0.00     0.185 C 
BRANCH   6   7
HETATM    7  C           1     -21.338  -8.406  -5.199  0.00  0.00     0.040 C 
BRANCH   7   8
HETATM    8  C           1     -21.893  -8.441  -3.780  0.00  0.00    -0.020 C 
HETATM    9  C           1     -21.739  -9.845  -3.210  0.00  0.00     0.009 C 
HETATM   10  C           1     -21.127  -7.453  -2.911  0.00  0.00     0.009 C 
ENDBRANCH   7   8
ENDBRANCH   6   7
BRANCH   6  11
HETATM   11  C           1     -18.877  -8.648  -5.311  0.00  0.00     0.196 C 
HETATM   12  O           1     -18.402  -8.939  -6.430  0.00  0.00    -0.646 OA
HETATM   13  O           1     -18.411  -9.177  -4.278  0.00  0.00    -0.646 OA
ENDBRANCH   6  11
ENDBRANCH   3   6
ENDBRANCH   1   2
BRANCH   1  14
HETATM   14  C           1     -21.553  -3.814  -7.510  0.00  0.00     0.044 C 
BRANCH  14  15
HETATM   15  C           1     -22.419  -4.633  -8.458  0.00  0.00     0.023 C 
BRANCH  15  16
HETATM   16  C           1     -23.113  -3.703  -9.444  0.00  0.00     0.138 C 
BRANCH  16  17
HETATM   17  N           1     -22.211  -3.420 -10.570  0.00  0.00    -0.227 N 
HETATM   18  C           1     -22.407  -3.971 -11.692  0.00  0.00     0.665 C 
HETATM   19  N           1     -21.630  -3.727 -12.662  0.00  0.00    -0.235 N 
HETATM   20  N           1     -23.406  -4.788 -11.850  0.00  0.00    -0.235 N 
HETATM   21  H           1     -21.792  -4.185 -13.593  0.00  0.00     0.174 HD
HETATM   22  H           1     -20.822  -3.068 -12.534  0.00  0.00     0.174 HD
HETATM   23  H           1     -23.568  -5.243 -12.777  0.00  0.00     0.174 HD
HETATM   24  H           1     -24.046  -4.989 -11.050  0.00  0.00     0.174 HD
HETATM   25  H           1     -21.404  -2.760 -10.442  0.00  0.00     0.177 HD
ENDBRANCH  16  17
ENDBRANCH  15  16
ENDBRANCH  14  15
ENDBRANCH   1  14
BRANCH   1  26
HETATM   26  N           1     -19.874  -5.264  -8.591  0.00  0.00    -0.067 N 
HETATM   27  H           1     -18.960  -5.753  -8.469  0.00  0.00     0.275 HD
HETATM   28  H           1     -20.625  -5.969  -8.766  0.00  0.00     0.275 HD
HETATM   29  H           1     -19.814  -4.610  -9.405  0.00  0.00     0.275 HD
ENDBRANCH   1  26
TORSDOF 10
ENDMDL
