MODEL 1
REMARK VINA RESULT:      -7.1      0.000      0.000
REMARK  16 active torsions:
REMARK  status: ('A' for Active; 'I' for Inactive)
REMARK    1  A    between atoms: C_2  and  C_3 
REMARK    2  A    between atoms: C_2  and  C_7 
REMARK    3  A    between atoms: C_3  and  C_12 
REMARK       I    between atoms: N_4  and  C_12 
REMARK    4  A    between atoms: C_6  and  C_7 
REMARK    5  A    between atoms: C_7  and  N_19 
REMARK       I    between atoms: N_13  and  C_24 
REMARK    6  A    between atoms: C_14  and  N_19 
REMARK    7  A    between atoms: C_14  and  C_15 
REMARK    8  A    between atoms: C_15  and  C_16 
REMARK    9  A    between atoms: C_16  and  C_17 
REMARK   10  A    between atoms: C_16  and  N_37 
REMARK   11  A    between atoms: C_21  and  C_40 
REMARK   12  A    between atoms: C_21  and  C_22 
REMARK   13  A    between atoms: C_22  and  N_23 
REMARK       I    between atoms: N_23  and  C_24 
REMARK   14  A    between atoms: N_33  and  C_39 
REMARK       I    between atoms: N_37  and  C_38 
REMARK   15  A    between atoms: C_38  and  C_39 
REMARK   16  A    between atoms: C_39  and  C_40 
ROOT
HETATM    1  H           1     -20.541  -4.593  -4.413  0.00  0.00     0.163 HD
HETATM    2  O           1     -21.850  -7.377  -5.023  0.00  0.00    -0.271 OA
HETATM    3  N           1     -20.933  -5.343  -4.969  0.00  0.00    -0.345 N 
HETATM    4  C           1     -21.384  -6.482  -4.359  0.00  0.00     0.249 C 
ENDROOT
BRANCH   3   5
HETATM    5  C           1     -21.014  -5.210  -6.410  0.00  0.00     0.187 C 
BRANCH   5   6
HETATM    6  C           1     -21.369  -3.773  -6.768  0.00  0.00     0.066 C 
BRANCH   6   7
HETATM    7  C           1     -22.287  -3.764  -7.983  0.00  0.00     0.273 C 
BRANCH   7   8
HETATM    8  N           1     -21.966  -4.879  -8.834  0.00  0.00     0.098 N 
HETATM    9  H           1     -22.611  -5.647  -8.645  0.00  0.00     0.317 HD
BRANCH   8  10
HETATM   10  C           1     -22.121  -4.447 -10.197  0.00  0.00     0.320 C 
BRANCH  10  11
HETATM   11  C           1     -23.036  -3.231 -10.243  0.00  0.00     0.056 C 
BRANCH  11  12
HETATM   12  C           1     -24.346  -3.607 -10.923  0.00  0.00     0.105 C 
BRANCH  12  13
HETATM   13  C           1     -24.393  -2.992 -12.300  0.00  0.00     0.215 C 
HETATM   14  O           1     -25.362  -3.156 -13.003  0.00  0.00    -0.274 OA
HETATM   15  N           1     -23.336  -2.248 -12.753  0.00  0.00    -0.370 N 
HETATM   16  H           1     -22.524  -2.111 -12.165  0.00  0.00     0.159 HD
HETATM   17  H           1     -23.367  -1.836 -13.677  0.00  0.00     0.159 HD
ENDBRANCH  12  13
ENDBRANCH  11  12
ENDBRANCH  10  11
BRANCH  10  18
HETATM   18  C           1     -20.770  -4.084 -10.764  0.00  0.00     0.207 C 
HETATM   19  O           1     -20.608  -2.986 -11.339  0.00  0.00    -0.646 OA
HETATM   20  O           1     -19.813  -4.882 -10.658  0.00  0.00    -0.646 OA
ENDBRANCH  10  18
ENDBRANCH   8  10
ENDBRANCH   7   8
ENDBRANCH   6   7
ENDBRANCH   5   6
BRANCH   5  21
HETATM   21  C           1     -19.681  -5.566  -7.024  0.00  0.00     0.196 C 
HETATM   22  O           1     -19.359  -6.766  -7.163  0.00  0.00    -0.646 OA
HETATM   23  O           1     -18.901  -4.662  -7.391  0.00  0.00    -0.646 OA
ENDBRANCH   5  21
ENDBRANCH   3   5
BRANCH   4  24
HETATM   24  C           1     -21.300  -6.621  -2.859  0.00  0.00     0.274 C 
BRANCH  24  25
HETATM   25  N           1     -22.415  -5.846  -2.223  0.00  0.00    -0.067 N 
HETATM   26  H           1     -22.934  -6.464  -1.559  0.00  0.00     0.275 HD
HETATM   27  H           1     -23.068  -5.502  -2.963  0.00  0.00     0.275 HD
HETATM   28  H           1     -22.021  -5.030  -1.702  0.00  0.00     0.275 HD
ENDBRANCH  24  25
BRANCH  24  29
HETATM   29  C           1     -21.419  -8.090  -2.476  0.00  0.00     0.044 C 
BRANCH  29  30
HETATM   30  C           1     -20.434  -8.403  -1.357  0.00  0.00     0.023 C 
BRANCH  30  31
HETATM   31  C           1     -21.192  -8.580  -0.048  0.00  0.00     0.138 C 
BRANCH  31  32
HETATM   32  N           1     -22.096  -9.734  -0.156  0.00  0.00    -0.227 N 
HETATM   33  C           1     -23.325  -9.603   0.118  0.00  0.00     0.665 C 
HETATM   34  N           1     -23.787  -8.448   0.495  0.00  0.00    -0.235 N 
HETATM   35  N           1     -24.104 -10.598   0.024  0.00  0.00    -0.235 N 
HETATM   36  H           1     -24.802  -8.340   0.720  0.00  0.00     0.174 HD
HETATM   37  H           1     -23.145  -7.628   0.572  0.00  0.00     0.174 HD
HETATM   38  H           1     -25.123 -10.489   0.251  0.00  0.00     0.174 HD
HETATM   39  H           1     -23.730 -11.530  -0.280  0.00  0.00     0.174 HD
HETATM   40  H           1     -21.722 -10.667  -0.460  0.00  0.00     0.177 HD
ENDBRANCH  31  32
ENDBRANCH  30  31
ENDBRANCH  29  30
ENDBRANCH  24  29
ENDBRANCH   4  24
TORSDOF 16
ENDMDL
MODEL 2
REMARK VINA RESULT:      -7.1     13.822     16.166
REMARK  16 active torsions:
REMARK  status: ('A' for Active; 'I' for Inactive)
REMARK    1  A    between atoms: C_2  and  C_3 
REMARK    2  A    between atoms: C_2  and  C_7 
REMARK    3  A    between atoms: C_3  and  C_12 
REMARK       I    between atoms: N_4  and  C_12 
REMARK    4  A    between atoms: C_6  and  C_7 
REMARK    5  A    between atoms: C_7  and  N_19 
REMARK       I    between atoms: N_13  and  C_24 
REMARK    6  A    between atoms: C_14  and  N_19 
REMARK    7  A    between atoms: C_14  and  C_15 
REMARK    8  A    between atoms: C_15  and  C_16 
REMARK    9  A    between atoms: C_16  and  C_17 
REMARK   10  A    between atoms: C_16  and  N_37 
REMARK   11  A    between atoms: C_21  and  C_40 
REMARK   12  A    between atoms: C_21  and  C_22 
REMARK   13  A    between atoms: C_22  and  N_23 
REMARK       I    between atoms: N_23  and  C_24 
REMARK   14  A    between atoms: N_33  and  C_39 
REMARK       I    between atoms: N_37  and  C_38 
REMARK   15  A    between atoms: C_38  and  C_39 
REMARK   16  A    between atoms: C_39  and  C_40 
ROOT
HETATM    1  H           1     -34.243  -2.497 -13.040  0.00  0.00     0.163 HD
HETATM    2  O           1     -36.232  -3.086 -10.687  0.00  0.00    -0.271 OA
HETATM    3  N           1     -34.757  -3.046 -12.362  0.00  0.00    -0.345 N 
HETATM    4  C           1     -35.620  -2.431 -11.497  0.00  0.00     0.249 C 
ENDROOT
BRANCH   3   5
HETATM    5  C           1     -34.575  -4.484 -12.307  0.00  0.00     0.187 C 
BRANCH   5   6
HETATM    6  C           1     -34.646  -5.058 -13.716  0.00  0.00     0.066 C 
BRANCH   6   7
HETATM    7  C           1     -33.899  -4.142 -14.676  0.00  0.00     0.273 C 
BRANCH   7   8
HETATM    8  N           1     -33.769  -4.789 -15.954  0.00  0.00     0.098 N 
HETATM    9  H           1     -34.415  -4.361 -16.618  0.00  0.00     0.317 HD
BRANCH   8  10
HETATM   10  C           1     -32.418  -4.596 -16.406  0.00  0.00     0.320 C 
BRANCH  10  11
HETATM   11  C           1     -31.967  -5.821 -17.190  0.00  0.00     0.056 C 
BRANCH  11  12
HETATM   12  C           1     -30.549  -6.195 -16.775  0.00  0.00     0.105 C 
BRANCH  12  13
HETATM   13  C           1     -29.706  -6.416 -18.007  0.00  0.00     0.215 C 
HETATM   14  O           1     -29.272  -5.469 -18.619  0.00  0.00    -0.274 OA
HETATM   15  N           1     -29.434  -7.689 -18.430  0.00  0.00    -0.370 N 
HETATM   16  H           1     -29.798  -8.482 -17.917  0.00  0.00     0.159 HD
HETATM   17  H           1     -28.868  -7.837 -19.256  0.00  0.00     0.159 HD
ENDBRANCH  12  13
ENDBRANCH  11  12
ENDBRANCH  10  11
BRANCH  10  18
HETATM   18  C           1     -32.355  -3.378 -17.295  0.00  0.00     0.207 C 
HETATM   19  O           1     -31.256  -2.986 -17.742  0.00  0.00    -0.646 OA
HETATM   20  O           1     -33.404  -2.762 -17.585  0.00  0.00    -0.646 OA
ENDBRANCH  10  18
ENDBRANCH   8  10
ENDBRANCH   7   8
ENDBRANCH   6   7
ENDBRANCH   5   6
BRANCH   5  21
HETATM   21  C           1     -33.229  -4.798 -11.702  0.00  0.00     0.196 C 
HETATM   22  O           1     -33.030  -5.909 -11.164  0.00  0.00    -0.646 OA
HETATM   23  O           1     -32.314  -3.948 -11.739  0.00  0.00    -0.646 OA
ENDBRANCH   5  21
ENDBRANCH   3   5
BRANCH   4  24
HETATM   24  C           1     -35.809  -0.935 -11.554  0.00  0.00     0.274 C 
BRANCH  24  25
HETATM   25  N           1     -35.982  -0.401 -10.164  0.00  0.00    -0.067 N 
HETATM   26  H           1     -35.055  -0.374  -9.683  0.00  0.00     0.275 HD
HETATM   27  H           1     -36.634  -1.020  -9.631  0.00  0.00     0.275 HD
HETATM   28  H           1     -36.379   0.565 -10.207  0.00  0.00     0.275 HD
ENDBRANCH  24  25
BRANCH  24  29
HETATM   29  C           1     -34.587  -0.291 -12.197  0.00  0.00     0.044 C 
BRANCH  29  30
HETATM   30  C           1     -35.036   0.687 -13.274  0.00  0.00     0.023 C 
BRANCH  30  31
HETATM   31  C           1     -36.243   0.117 -14.007  0.00  0.00     0.138 C 
BRANCH  31  32
HETATM   32  N           1     -35.796  -0.577 -15.223  0.00  0.00    -0.227 N 
HETATM   33  C           1     -36.498  -0.524 -16.276  0.00  0.00     0.665 C 
HETATM   34  N           1     -37.613   0.144 -16.281  0.00  0.00    -0.235 N 
HETATM   35  N           1     -36.112  -1.121 -17.324  0.00  0.00    -0.235 N 
HETATM   36  H           1     -38.191   0.188 -17.151  0.00  0.00     0.174 HD
HETATM   37  H           1     -37.931   0.636 -15.416  0.00  0.00     0.174 HD
HETATM   38  H           1     -36.693  -1.077 -18.197  0.00  0.00     0.174 HD
HETATM   39  H           1     -35.211  -1.661 -17.320  0.00  0.00     0.174 HD
HETATM   40  H           1     -34.896  -1.116 -15.219  0.00  0.00     0.177 HD
ENDBRANCH  31  32
ENDBRANCH  30  31
ENDBRANCH  29  30
ENDBRANCH  24  29
ENDBRANCH   4  24
TORSDOF 16
ENDMDL
MODEL 3
REMARK VINA RESULT:      -7.0      2.553     10.020
REMARK  16 active torsions:
REMARK  status: ('A' for Active; 'I' for Inactive)
REMARK    1  A    between atoms: C_2  and  C_3 
REMARK    2  A    between atoms: C_2  and  C_7 
REMARK    3  A    between atoms: C_3  and  C_12 
REMARK       I    between atoms: N_4  and  C_12 
REMARK    4  A    between atoms: C_6  and  C_7 
REMARK    5  A    between atoms: C_7  and  N_19 
REMARK       I    between atoms: N_13  and  C_24 
REMARK    6  A    between atoms: C_14  and  N_19 
REMARK    7  A    between atoms: C_14  and  C_15 
REMARK    8  A    between atoms: C_15  and  C_16 
REMARK    9  A    between atoms: C_16  and  C_17 
REMARK   10  A    between atoms: C_16  and  N_37 
REMARK   11  A    between atoms: C_21  and  C_40 
REMARK   12  A    between atoms: C_21  and  C_22 
REMARK   13  A    between atoms: C_22  and  N_23 
REMARK       I    between atoms: N_23  and  C_24 
REMARK   14  A    between atoms: N_33  and  C_39 
REMARK       I    between atoms: N_37  and  C_38 
REMARK   15  A    between atoms: C_38  and  C_39 
REMARK   16  A    between atoms: C_39  and  C_40 
ROOT
HETATM    1  H           1     -21.849  -7.047  -7.213  0.00  0.00     0.163 HD
HETATM    2  O           1     -20.471  -4.365  -6.349  0.00  0.00    -0.271 OA
HETATM    3  N           1     -21.331  -6.406  -6.624  0.00  0.00    -0.345 N 
HETATM    4  C           1     -21.090  -5.129  -7.051  0.00  0.00     0.249 C 
ENDROOT
BRANCH   3   5
HETATM    5  C           1     -20.844  -6.844  -5.330  0.00  0.00     0.187 C 
BRANCH   5   6
HETATM    6  C           1     -21.952  -6.696  -4.296  0.00  0.00     0.066 C 
BRANCH   6   7
HETATM    7  C           1     -21.343  -6.659  -2.901  0.00  0.00     0.273 C 
BRANCH   7   8
HETATM    8  N           1     -21.748  -7.828  -2.168  0.00  0.00     0.098 N 
HETATM    9  H           1     -21.941  -8.588  -2.821  0.00  0.00     0.317 HD
BRANCH   8  10
HETATM   10  C           1     -20.661  -8.202  -1.304  0.00  0.00     0.320 C 
BRANCH  10  11
HETATM   11  C           1     -21.218  -8.725   0.013  0.00  0.00     0.056 C 
BRANCH  11  12
HETATM   12  C           1     -22.735  -8.834  -0.084  0.00  0.00     0.105 C 
BRANCH  12  13
HETATM   13  C           1     -23.142 -10.284   0.011  0.00  0.00     0.215 C 
HETATM   14  O           1     -24.312 -10.583   0.037  0.00  0.00    -0.274 OA
HETATM   15  N           1     -22.183 -11.261   0.066  0.00  0.00    -0.370 N 
HETATM   16  H           1     -21.203 -11.011   0.045  0.00  0.00     0.159 HD
HETATM   17  H           1     -22.456 -12.233   0.130  0.00  0.00     0.159 HD
ENDBRANCH  12  13
ENDBRANCH  11  12
ENDBRANCH  10  11
BRANCH  10  18
HETATM   18  C           1     -19.841  -9.280  -1.968  0.00  0.00     0.207 C 
HETATM   19  O           1     -18.721  -9.007  -2.451  0.00  0.00    -0.646 OA
HETATM   20  O           1     -20.282 -10.449  -2.035  0.00  0.00    -0.646 OA
ENDBRANCH  10  18
ENDBRANCH   8  10
ENDBRANCH   7   8
ENDBRANCH   6   7
ENDBRANCH   5   6
BRANCH   5  21
HETATM   21  C           1     -20.423  -8.291  -5.414  0.00  0.00     0.196 C 
HETATM   22  O           1     -19.269  -8.584  -5.795  0.00  0.00    -0.646 OA
HETATM   23  O           1     -21.228  -9.194  -5.104  0.00  0.00    -0.646 OA
ENDBRANCH   5  21
ENDBRANCH   3   5
BRANCH   4  24
HETATM   24  C           1     -21.596  -4.674  -8.398  0.00  0.00     0.274 C 
BRANCH  24  25
HETATM   25  N           1     -22.675  -3.650  -8.205  0.00  0.00    -0.067 N 
HETATM   26  H           1     -23.098  -3.765  -7.257  0.00  0.00     0.275 HD
HETATM   27  H           1     -23.413  -3.780  -8.934  0.00  0.00     0.275 HD
HETATM   28  H           1     -22.267  -2.692  -8.291  0.00  0.00     0.275 HD
ENDBRANCH  24  25
BRANCH  24  29
HETATM   29  C           1     -20.450  -4.060  -9.192  0.00  0.00     0.044 C 
BRANCH  29  30
HETATM   30  C           1     -20.592  -4.437 -10.661  0.00  0.00     0.023 C 
BRANCH  30  31
HETATM   31  C           1     -20.769  -3.175 -11.494  0.00  0.00     0.138 C 
BRANCH  31  32
HETATM   32  N           1     -22.189  -2.797 -11.517  0.00  0.00    -0.227 N 
HETATM   33  C           1     -22.840  -2.849 -12.601  0.00  0.00     0.665 C 
HETATM   34  N           1     -22.253  -3.236 -13.694  0.00  0.00    -0.235 N 
HETATM   35  N           1     -24.064  -2.523 -12.620  0.00  0.00    -0.235 N 
HETATM   36  H           1     -22.792  -3.280 -14.589  0.00  0.00     0.174 HD
HETATM   37  H           1     -21.244  -3.505 -13.678  0.00  0.00     0.174 HD
HETATM   38  H           1     -24.605  -2.567 -13.519  0.00  0.00     0.174 HD
HETATM   39  H           1     -24.538  -2.210 -11.737  0.00  0.00     0.174 HD
HETATM   40  H           1     -22.663  -2.484 -10.634  0.00  0.00     0.177 HD
ENDBRANCH  31  32
ENDBRANCH  30  31
ENDBRANCH  29  30
ENDBRANCH  24  29
ENDBRANCH   4  24
TORSDOF 16
ENDMDL
MODEL 4
REMARK VINA RESULT:      -6.9      2.524     10.033
REMARK  16 active torsions:
REMARK  status: ('A' for Active; 'I' for Inactive)
REMARK    1  A    between atoms: C_2  and  C_3 
REMARK    2  A    between atoms: C_2  and  C_7 
REMARK    3  A    between atoms: C_3  and  C_12 
REMARK       I    between atoms: N_4  and  C_12 
REMARK    4  A    between atoms: C_6  and  C_7 
REMARK    5  A    between atoms: C_7  and  N_19 
REMARK       I    between atoms: N_13  and  C_24 
REMARK    6  A    between atoms: C_14  and  N_19 
REMARK    7  A    between atoms: C_14  and  C_15 
REMARK    8  A    between atoms: C_15  and  C_16 
REMARK    9  A    between atoms: C_16  and  C_17 
REMARK   10  A    between atoms: C_16  and  N_37 
REMARK   11  A    between atoms: C_21  and  C_40 
REMARK   12  A    between atoms: C_21  and  C_22 
REMARK   13  A    between atoms: C_22  and  N_23 
REMARK       I    between atoms: N_23  and  C_24 
REMARK   14  A    between atoms: N_33  and  C_39 
REMARK       I    between atoms: N_37  and  C_38 
REMARK   15  A    between atoms: C_38  and  C_39 
REMARK   16  A    between atoms: C_39  and  C_40 
ROOT
HETATM    1  H           1     -22.586  -6.003  -6.346  0.00  0.00     0.163 HD
HETATM    2  O           1     -19.667  -4.967  -6.841  0.00  0.00    -0.271 OA
HETATM    3  N           1     -21.600  -5.860  -6.169  0.00  0.00    -0.345 N 
HETATM    4  C           1     -20.845  -5.136  -7.051  0.00  0.00     0.249 C 
ENDROOT
BRANCH   3   5
HETATM    5  C           1     -20.987  -6.424  -4.981  0.00  0.00     0.187 C 
BRANCH   5   6
HETATM    6  C           1     -21.999  -6.429  -3.843  0.00  0.00     0.066 C 
BRANCH   6   7
HETATM    7  C           1     -21.263  -6.489  -2.511  0.00  0.00     0.273 C 
BRANCH   7   8
HETATM    8  N           1     -22.217  -6.599  -1.440  0.00  0.00     0.098 N 
HETATM    9  H           1     -23.143  -6.338  -1.782  0.00  0.00     0.317 HD
BRANCH   8  10
HETATM   10  C           1     -22.235  -7.970  -1.008  0.00  0.00     0.320 C 
BRANCH  10  11
HETATM   11  C           1     -20.930  -8.644  -1.411  0.00  0.00     0.056 C 
BRANCH  11  12
HETATM   12  C           1     -21.107 -10.157  -1.372  0.00  0.00     0.105 C 
BRANCH  12  13
HETATM   13  C           1     -22.258 -10.552  -2.264  0.00  0.00     0.215 C 
HETATM   14  O           1     -22.189 -10.371  -3.456  0.00  0.00    -0.274 OA
HETATM   15  N           1     -23.381 -11.117  -1.721  0.00  0.00    -0.370 N 
HETATM   16  H           1     -23.439 -11.270  -0.722  0.00  0.00     0.159 HD
HETATM   17  H           1     -24.153 -11.383  -2.319  0.00  0.00     0.159 HD
ENDBRANCH  12  13
ENDBRANCH  11  12
ENDBRANCH  10  11
BRANCH  10  18
HETATM   18  C           1     -22.387  -8.022   0.492  0.00  0.00     0.207 C 
HETATM   19  O           1     -21.374  -8.056   1.223  0.00  0.00    -0.646 OA
HETATM   20  O           1     -23.528  -8.029   1.004  0.00  0.00    -0.646 OA
ENDBRANCH  10  18
ENDBRANCH   8  10
ENDBRANCH   7   8
ENDBRANCH   6   7
ENDBRANCH   5   6
BRANCH   5  21
HETATM   21  C           1     -20.544  -7.838  -5.267  0.00  0.00     0.196 C 
HETATM   22  O           1     -21.247  -8.578  -5.989  0.00  0.00    -0.646 OA
HETATM   23  O           1     -19.476  -8.268  -4.782  0.00  0.00    -0.646 OA
ENDBRANCH   5  21
ENDBRANCH   3   5
BRANCH   4  24
HETATM   24  C           1     -21.482  -4.550  -8.287  0.00  0.00     0.274 C 
BRANCH  24  25
HETATM   25  N           1     -22.313  -3.362  -7.904  0.00  0.00    -0.067 N 
HETATM   26  H           1     -21.696  -2.620  -7.503  0.00  0.00     0.275 HD
HETATM   27  H           1     -23.022  -3.647  -7.192  0.00  0.00     0.275 HD
HETATM   28  H           1     -22.800  -2.989  -8.750  0.00  0.00     0.275 HD
ENDBRANCH  24  25
BRANCH  24  29
HETATM   29  C           1     -20.396  -4.117  -9.263  0.00  0.00     0.044 C 
BRANCH  29  30
HETATM   30  C           1     -20.826  -4.458 -10.684  0.00  0.00     0.023 C 
BRANCH  30  31
HETATM   31  C           1     -21.255  -3.186 -11.404  0.00  0.00     0.138 C 
BRANCH  31  32
HETATM   32  N           1     -21.703  -3.519 -12.763  0.00  0.00    -0.227 N 
HETATM   33  C           1     -22.788  -3.040 -13.207  0.00  0.00     0.665 C 
HETATM   34  N           1     -23.504  -2.253 -12.461  0.00  0.00    -0.235 N 
HETATM   35  N           1     -23.174  -3.327 -14.379  0.00  0.00    -0.235 N 
HETATM   36  H           1     -24.399  -1.857 -12.828  0.00  0.00     0.174 HD
HETATM   37  H           1     -23.186  -2.016 -11.494  0.00  0.00     0.174 HD
HETATM   38  H           1     -24.073  -2.930 -14.747  0.00  0.00     0.174 HD
HETATM   39  H           1     -22.595  -3.963 -14.981  0.00  0.00     0.174 HD
HETATM   40  H           1     -21.124  -4.155 -13.365  0.00  0.00     0.177 HD
ENDBRANCH  31  32
ENDBRANCH  30  31
ENDBRANCH  29  30
ENDBRANCH  24  29
ENDBRANCH   4  24
TORSDOF 16
ENDMDL
MODEL 5
REMARK VINA RESULT:      -6.9      2.133     10.501
REMARK  16 active torsions:
REMARK  status: ('A' for Active; 'I' for Inactive)
REMARK    1  A    between atoms: C_2  and  C_3 
REMARK    2  A    between atoms: C_2  and  C_7 
REMARK    3  A    between atoms: C_3  and  C_12 
REMARK       I    between atoms: N_4  and  C_12 
REMARK    4  A    between atoms: C_6  and  C_7 
REMARK    5  A    between atoms: C_7  and  N_19 
REMARK       I    between atoms: N_13  and  C_24 
REMARK    6  A    between atoms: C_14  and  N_19 
REMARK    7  A    between atoms: C_14  and  C_15 
REMARK    8  A    between atoms: C_15  and  C_16 
REMARK    9  A    between atoms: C_16  and  C_17 
REMARK   10  A    between atoms: C_16  and  N_37 
REMARK   11  A    between atoms: C_21  and  C_40 
REMARK   12  A    between atoms: C_21  and  C_22 
REMARK   13  A    between atoms: C_22  and  N_23 
REMARK       I    between atoms: N_23  and  C_24 
REMARK   14  A    between atoms: N_33  and  C_39 
REMARK       I    between atoms: N_37  and  C_38 
REMARK   15  A    between atoms: C_38  and  C_39 
REMARK   16  A    between atoms: C_39  and  C_40 
ROOT
HETATM    1  H           1     -21.665  -6.209  -8.744  0.00  0.00     0.163 HD
HETATM    2  O           1     -22.915  -3.395  -8.144  0.00  0.00    -0.271 OA
HETATM    3  N           1     -21.839  -5.349  -8.239  0.00  0.00    -0.345 N 
HETATM    4  C           1     -22.708  -4.421  -8.747  0.00  0.00     0.249 C 
ENDROOT
BRANCH   3   5
HETATM    5  C           1     -21.168  -5.101  -6.978  0.00  0.00     0.187 C 
BRANCH   5   6
HETATM    6  C           1     -21.856  -5.892  -5.873  0.00  0.00     0.066 C 
BRANCH   6   7
HETATM    7  C           1     -21.131  -5.659  -4.554  0.00  0.00     0.273 C 
BRANCH   7   8
HETATM    8  N           1     -21.933  -6.157  -3.470  0.00  0.00     0.098 N 
HETATM    9  H           1     -22.726  -6.679  -3.846  0.00  0.00     0.317 HD
BRANCH   8  10
HETATM   10  C           1     -21.110  -7.036  -2.684  0.00  0.00     0.320 C 
BRANCH  10  11
HETATM   11  C           1     -21.823  -7.365  -1.379  0.00  0.00     0.056 C 
BRANCH  11  12
HETATM   12  C           1     -20.920  -8.233  -0.512  0.00  0.00     0.105 C 
BRANCH  12  13
HETATM   13  C           1     -21.537  -8.391   0.856  0.00  0.00     0.215 C 
HETATM   14  O           1     -22.675  -8.037   1.051  0.00  0.00    -0.274 OA
HETATM   15  N           1     -20.805  -8.937   1.877  0.00  0.00    -0.370 N 
HETATM   16  H           1     -19.851  -9.234   1.714  0.00  0.00     0.159 HD
HETATM   17  H           1     -21.218  -9.044   2.794  0.00  0.00     0.159 HD
ENDBRANCH  12  13
ENDBRANCH  11  12
ENDBRANCH  10  11
BRANCH  10  18
HETATM   18  C           1     -20.855  -8.308  -3.454  0.00  0.00     0.207 C 
HETATM   19  O           1     -19.685  -8.653  -3.723  0.00  0.00    -0.646 OA
HETATM   20  O           1     -21.816  -9.018  -3.822  0.00  0.00    -0.646 OA
ENDBRANCH  10  18
ENDBRANCH   8  10
ENDBRANCH   7   8
ENDBRANCH   6   7
ENDBRANCH   5   6
BRANCH   5  21
HETATM   21  C           1     -19.726  -5.533  -7.082  0.00  0.00     0.196 C 
HETATM   22  O           1     -19.439  -6.750  -7.105  0.00  0.00    -0.646 OA
HETATM   23  O           1     -18.820  -4.675  -7.146  0.00  0.00    -0.646 OA
ENDBRANCH   5  21
ENDBRANCH   3   5
BRANCH   4  24
HETATM   24  C           1     -23.406  -4.679 -10.059  0.00  0.00     0.274 C 
BRANCH  24  25
HETATM   25  N           1     -24.848  -4.284  -9.942  0.00  0.00    -0.067 N 
HETATM   26  H           1     -25.217  -4.583  -9.011  0.00  0.00     0.275 HD
HETATM   27  H           1     -25.399  -4.748 -10.700  0.00  0.00     0.275 HD
HETATM   28  H           1     -24.936  -3.247 -10.034  0.00  0.00     0.275 HD
ENDBRANCH  24  25
BRANCH  24  29
HETATM   29  C           1     -22.743  -3.860 -11.158  0.00  0.00     0.044 C 
BRANCH  29  30
HETATM   30  C           1     -23.716  -2.801 -11.660  0.00  0.00     0.023 C 
BRANCH  30  31
HETATM   31  C           1     -24.128  -3.125 -13.089  0.00  0.00     0.138 C 
BRANCH  31  32
HETATM   32  N           1     -23.995  -1.922 -13.923  0.00  0.00    -0.227 N 
HETATM   33  C           1     -23.162  -1.901 -14.876  0.00  0.00     0.665 C 
HETATM   34  N           1     -22.425  -2.944 -15.118  0.00  0.00    -0.235 N 
HETATM   35  N           1     -23.048  -0.864 -15.594  0.00  0.00    -0.235 N 
HETATM   36  H           1     -21.738  -2.927 -15.906  0.00  0.00     0.174 HD
HETATM   37  H           1     -22.519  -3.799 -14.526  0.00  0.00     0.174 HD
HETATM   38  H           1     -22.357  -0.847 -16.385  0.00  0.00     0.174 HD
HETATM   39  H           1     -23.643  -0.021 -15.399  0.00  0.00     0.174 HD
HETATM   40  H           1     -24.590  -1.079 -13.727  0.00  0.00     0.177 HD
ENDBRANCH  31  32
ENDBRANCH  30  31
ENDBRANCH  29  30
ENDBRANCH  24  29
ENDBRANCH   4  24
TORSDOF 16
ENDMDL
MODEL 6
REMARK VINA RESULT:      -6.8      3.000      9.346
REMARK  16 active torsions:
REMARK  status: ('A' for Active; 'I' for Inactive)
REMARK    1  A    between atoms: C_2  and  C_3 
REMARK    2  A    between atoms: C_2  and  C_7 
REMARK    3  A    between atoms: C_3  and  C_12 
REMARK       I    between atoms: N_4  and  C_12 
REMARK    4  A    between atoms: C_6  and  C_7 
REMARK    5  A    between atoms: C_7  and  N_19 
REMARK       I    between atoms: N_13  and  C_24 
REMARK    6  A    between atoms: C_14  and  N_19 
REMARK    7  A    between atoms: C_14  and  C_15 
REMARK    8  A    between atoms: C_15  and  C_16 
REMARK    9  A    between atoms: C_16  and  C_17 
REMARK   10  A    between atoms: C_16  and  N_37 
REMARK   11  A    between atoms: C_21  and  C_40 
REMARK   12  A    between atoms: C_21  and  C_22 
REMARK   13  A    between atoms: C_22  and  N_23 
REMARK       I    between atoms: N_23  and  C_24 
REMARK   14  A    between atoms: N_33  and  C_39 
REMARK       I    between atoms: N_37  and  C_38 
REMARK   15  A    between atoms: C_38  and  C_39 
REMARK   16  A    between atoms: C_39  and  C_40 
ROOT
HETATM    1  H           1     -21.288  -8.031  -4.488  0.00  0.00     0.163 HD
HETATM    2  O           1     -19.393  -6.954  -6.745  0.00  0.00    -0.271 OA
HETATM    3  N           1     -20.476  -7.994  -5.093  0.00  0.00    -0.345 N 
HETATM    4  C           1     -20.361  -6.997  -6.023  0.00  0.00     0.249 C 
ENDROOT
BRANCH   3   5
HETATM    5  C           1     -19.437  -8.998  -4.973  0.00  0.00     0.187 C 
BRANCH   5   6
HETATM    6  C           1     -19.072  -9.178  -3.505  0.00  0.00     0.066 C 
BRANCH   6   7
HETATM    7  C           1     -20.267  -9.746  -2.751  0.00  0.00     0.273 C 
BRANCH   7   8
HETATM    8  N           1     -20.430  -9.041  -1.508  0.00  0.00     0.098 N 
HETATM    9  H           1     -19.845  -8.204  -1.513  0.00  0.00     0.317 HD
BRANCH   8  10
HETATM   10  C           1     -21.812  -8.660  -1.398  0.00  0.00     0.320 C 
BRANCH  10  11
HETATM   11  C           1     -22.348  -9.082  -0.037  0.00  0.00     0.056 C 
BRANCH  11  12
HETATM   12  C           1     -23.445 -10.122  -0.223  0.00  0.00     0.105 C 
BRANCH  12  13
HETATM   13  C           1     -22.861 -11.504  -0.068  0.00  0.00     0.215 C 
HETATM   14  O           1     -23.443 -12.460  -0.521  0.00  0.00    -0.274 OA
HETATM   15  N           1     -21.670 -11.673   0.587  0.00  0.00    -0.370 N 
HETATM   16  H           1     -21.182 -10.872   0.966  0.00  0.00     0.159 HD
HETATM   17  H           1     -21.278 -12.600   0.691  0.00  0.00     0.159 HD
ENDBRANCH  12  13
ENDBRANCH  11  12
ENDBRANCH  10  11
BRANCH  10  18
HETATM   18  C           1     -21.933  -7.163  -1.546  0.00  0.00     0.207 C 
HETATM   19  O           1     -21.264  -6.563  -2.414  0.00  0.00    -0.646 OA
HETATM   20  O           1     -22.704  -6.522  -0.799  0.00  0.00    -0.646 OA
ENDBRANCH  10  18
ENDBRANCH   8  10
ENDBRANCH   7   8
ENDBRANCH   6   7
ENDBRANCH   5   6
BRANCH   5  21
HETATM   21  C           1     -19.937 -10.308  -5.531  0.00  0.00     0.196 C 
HETATM   22  O           1     -21.080 -10.377  -6.034  0.00  0.00    -0.646 OA
HETATM   23  O           1     -19.210 -11.324  -5.489  0.00  0.00    -0.646 OA
ENDBRANCH   5  21
ENDBRANCH   3   5
BRANCH   4  24
HETATM   24  C           1     -21.442  -5.952  -6.149  0.00  0.00     0.274 C 
BRANCH  24  25
HETATM   25  N           1     -22.353  -6.031  -4.960  0.00  0.00    -0.067 N 
HETATM   26  H           1     -21.785  -6.180  -4.096  0.00  0.00     0.275 HD
HETATM   27  H           1     -23.017  -6.828  -5.082  0.00  0.00     0.275 HD
HETATM   28  H           1     -22.891  -5.139  -4.872  0.00  0.00     0.275 HD
ENDBRANCH  24  25
BRANCH  24  29
HETATM   29  C           1     -20.808  -4.569  -6.213  0.00  0.00     0.044 C 
BRANCH  29  30
HETATM   30  C           1     -21.621  -3.681  -7.146  0.00  0.00     0.023 C 
BRANCH  30  31
HETATM   31  C           1     -22.326  -4.545  -8.184  0.00  0.00     0.138 C 
BRANCH  31  32
HETATM   32  N           1     -23.721  -4.105  -8.322  0.00  0.00    -0.227 N 
HETATM   33  C           1     -24.174  -3.784  -9.459  0.00  0.00     0.665 C 
HETATM   34  N           1     -23.405  -3.844 -10.505  0.00  0.00    -0.235 N 
HETATM   35  N           1     -25.377  -3.406  -9.578  0.00  0.00    -0.235 N 
HETATM   36  H           1     -23.780  -3.580 -11.445  0.00  0.00     0.174 HD
HETATM   37  H           1     -22.413  -4.156 -10.408  0.00  0.00     0.174 HD
HETATM   38  H           1     -25.753  -3.140 -10.522  0.00  0.00     0.174 HD
HETATM   39  H           1     -25.998  -3.357  -8.733  0.00  0.00     0.174 HD
HETATM   40  H           1     -24.342  -4.057  -7.476  0.00  0.00     0.177 HD
ENDBRANCH  31  32
ENDBRANCH  30  31
ENDBRANCH  29  30
ENDBRANCH  24  29
ENDBRANCH   4  24
TORSDOF 16
ENDMDL
MODEL 7
REMARK VINA RESULT:      -6.8     12.057     15.191
REMARK  16 active torsions:
REMARK  status: ('A' for Active; 'I' for Inactive)
REMARK    1  A    between atoms: C_2  and  C_3 
REMARK    2  A    between atoms: C_2  and  C_7 
REMARK    3  A    between atoms: C_3  and  C_12 
REMARK       I    between atoms: N_4  and  C_12 
REMARK    4  A    between atoms: C_6  and  C_7 
REMARK    5  A    between atoms: C_7  and  N_19 
REMARK       I    between atoms: N_13  and  C_24 
REMARK    6  A    between atoms: C_14  and  N_19 
REMARK    7  A    between atoms: C_14  and  C_15 
REMARK    8  A    between atoms: C_15  and  C_16 
REMARK    9  A    between atoms: C_16  and  C_17 
REMARK   10  A    between atoms: C_16  and  N_37 
REMARK   11  A    between atoms: C_21  and  C_40 
REMARK   12  A    between atoms: C_21  and  C_22 
REMARK   13  A    between atoms: C_22  and  N_23 
REMARK       I    between atoms: N_23  and  C_24 
REMARK   14  A    between atoms: N_33  and  C_39 
REMARK       I    between atoms: N_37  and  C_38 
REMARK   15  A    between atoms: C_38  and  C_39 
REMARK   16  A    between atoms: C_39  and  C_40 
ROOT
HETATM    1  H           1     -35.134  -5.112 -15.010  0.00  0.00     0.163 HD
HETATM    2  O           1     -33.007  -3.815 -13.103  0.00  0.00    -0.271 OA
HETATM    3  N           1     -34.293  -4.616 -14.744  0.00  0.00    -0.345 N 
HETATM    4  C           1     -34.011  -4.408 -13.421  0.00  0.00     0.249 C 
ENDROOT
BRANCH   3   5
HETATM    5  C           1     -33.387  -4.125 -15.764  0.00  0.00     0.187 C 
BRANCH   5   6
HETATM    6  C           1     -33.013  -5.266 -16.702  0.00  0.00     0.066 C 
BRANCH   6   7
HETATM    7  C           1     -31.501  -5.308 -16.871  0.00  0.00     0.273 C 
BRANCH   7   8
HETATM    8  N           1     -31.059  -6.677 -16.899  0.00  0.00     0.098 N 
HETATM    9  H           1     -31.586  -7.189 -17.608  0.00  0.00     0.317 HD
BRANCH   8  10
HETATM   10  C           1     -29.663  -6.680 -17.243  0.00  0.00     0.320 C 
BRANCH  10  11
HETATM   11  C           1     -28.874  -7.389 -16.152  0.00  0.00     0.056 C 
BRANCH  11  12
HETATM   12  C           1     -27.843  -6.432 -15.566  0.00  0.00     0.105 C 
BRANCH  12  13
HETATM   13  C           1     -26.469  -6.804 -16.066  0.00  0.00     0.215 C 
HETATM   14  O           1     -25.688  -7.359 -15.330  0.00  0.00    -0.274 OA
HETATM   15  N           1     -26.108  -6.513 -17.354  0.00  0.00    -0.370 N 
HETATM   16  H           1     -26.762  -6.048 -17.971  0.00  0.00     0.159 HD
HETATM   17  H           1     -25.187  -6.762 -17.690  0.00  0.00     0.159 HD
ENDBRANCH  12  13
ENDBRANCH  11  12
ENDBRANCH  10  11
BRANCH  10  18
HETATM   18  C           1     -29.471  -7.401 -18.555  0.00  0.00     0.207 C 
HETATM   19  O           1     -30.311  -8.246 -18.933  0.00  0.00    -0.646 OA
HETATM   20  O           1     -28.472  -7.153 -19.264  0.00  0.00    -0.646 OA
ENDBRANCH  10  18
ENDBRANCH   8  10
ENDBRANCH   7   8
ENDBRANCH   6   7
ENDBRANCH   5   6
BRANCH   5  21
HETATM   21  C           1     -34.063  -3.028 -16.551  0.00  0.00     0.196 C 
HETATM   22  O           1     -35.142  -2.543 -16.145  0.00  0.00    -0.646 OA
HETATM   23  O           1     -33.546  -2.607 -17.607  0.00  0.00    -0.646 OA
ENDBRANCH   5  21
ENDBRANCH   3   5
BRANCH   4  24
HETATM   24  C           1     -34.953  -4.918 -12.358  0.00  0.00     0.274 C 
BRANCH  24  25
HETATM   25  N           1     -34.831  -6.410 -12.258  0.00  0.00    -0.067 N 
HETATM   26  H           1     -35.773  -6.845 -12.380  0.00  0.00     0.275 HD
HETATM   27  H           1     -34.447  -6.666 -11.320  0.00  0.00     0.275 HD
HETATM   28  H           1     -34.188  -6.759 -13.004  0.00  0.00     0.275 HD
ENDBRANCH  24  25
BRANCH  24  29
HETATM   29  C           1     -34.599  -4.288 -11.018  0.00  0.00     0.044 C 
BRANCH  29  30
HETATM   30  C           1     -35.643  -3.239 -10.659  0.00  0.00     0.023 C 
BRANCH  30  31
HETATM   31  C           1     -35.118  -1.855 -11.015  0.00  0.00     0.138 C 
BRANCH  31  32
HETATM   32  N           1     -36.148  -1.116 -11.758  0.00  0.00    -0.227 N 
HETATM   33  C           1     -35.948  -0.793 -12.966  0.00  0.00     0.665 C 
HETATM   34  N           1     -34.833  -1.117 -13.549  0.00  0.00    -0.235 N 
HETATM   35  N           1     -36.836  -0.156 -13.606  0.00  0.00    -0.235 N 
HETATM   36  H           1     -34.669  -0.852 -14.547  0.00  0.00     0.174 HD
HETATM   37  H           1     -34.100  -1.643 -13.021  0.00  0.00     0.174 HD
HETATM   38  H           1     -36.671   0.110 -14.608  0.00  0.00     0.174 HD
HETATM   39  H           1     -37.737   0.105 -13.135  0.00  0.00     0.174 HD
HETATM   40  H           1     -37.049  -0.854 -11.286  0.00  0.00     0.177 HD
ENDBRANCH  31  32
ENDBRANCH  30  31
ENDBRANCH  29  30
ENDBRANCH  24  29
ENDBRANCH   4  24
TORSDOF 16
ENDMDL
MODEL 8
REMARK VINA RESULT:      -6.6      2.472      3.334
REMARK  16 active torsions:
REMARK  status: ('A' for Active; 'I' for Inactive)
REMARK    1  A    between atoms: C_2  and  C_3 
REMARK    2  A    between atoms: C_2  and  C_7 
REMARK    3  A    between atoms: C_3  and  C_12 
REMARK       I    between atoms: N_4  and  C_12 
REMARK    4  A    between atoms: C_6  and  C_7 
REMARK    5  A    between atoms: C_7  and  N_19 
REMARK       I    between atoms: N_13  and  C_24 
REMARK    6  A    between atoms: C_14  and  N_19 
REMARK    7  A    between atoms: C_14  and  C_15 
REMARK    8  A    between atoms: C_15  and  C_16 
REMARK    9  A    between atoms: C_16  and  C_17 
REMARK   10  A    between atoms: C_16  and  N_37 
REMARK   11  A    between atoms: C_21  and  C_40 
REMARK   12  A    between atoms: C_21  and  C_22 
REMARK   13  A    between atoms: C_22  and  N_23 
REMARK       I    between atoms: N_23  and  C_24 
REMARK   14  A    between atoms: N_33  and  C_39 
REMARK       I    between atoms: N_37  and  C_38 
REMARK   15  A    between atoms: C_38  and  C_39 
REMARK   16  A    between atoms: C_39  and  C_40 
ROOT
HETATM    1  H           1     -22.577  -8.817  -4.303  0.00  0.00     0.163 HD
HETATM    2  O           1     -19.679  -8.991  -5.492  0.00  0.00    -0.271 OA
HETATM    3  N           1     -21.656  -8.499  -4.578  0.00  0.00    -0.345 N 
HETATM    4  C           1     -20.778  -9.371  -5.164  0.00  0.00     0.249 C 
ENDROOT
BRANCH   3   5
HETATM    5  C           1     -21.268  -7.120  -4.352  0.00  0.00     0.187 C 
BRANCH   5   6
HETATM    6  C           1     -22.108  -6.206  -5.234  0.00  0.00     0.066 C 
BRANCH   6   7
HETATM    7  C           1     -21.380  -5.959  -6.548  0.00  0.00     0.273 C 
BRANCH   7   8
HETATM    8  N           1     -21.716  -4.652  -7.045  0.00  0.00     0.098 N 
HETATM    9  H           1     -20.962  -4.001  -6.824  0.00  0.00     0.317 HD
BRANCH   8  10
HETATM   10  C           1     -21.862  -4.750  -8.472  0.00  0.00     0.320 C 
BRANCH  10  11
HETATM   11  C           1     -22.991  -3.835  -8.930  0.00  0.00     0.056 C 
BRANCH  11  12
HETATM   12  C           1     -23.891  -4.587  -9.903  0.00  0.00     0.105 C 
BRANCH  12  13
HETATM   13  C           1     -23.817  -3.936 -11.262  0.00  0.00     0.215 C 
HETATM   14  O           1     -24.555  -3.019 -11.534  0.00  0.00    -0.274 OA
HETATM   15  N           1     -22.913  -4.385 -12.187  0.00  0.00    -0.370 N 
HETATM   16  H           1     -22.295  -5.153 -11.960  0.00  0.00     0.159 HD
HETATM   17  H           1     -22.863  -3.949 -13.099  0.00  0.00     0.159 HD
ENDBRANCH  12  13
ENDBRANCH  11  12
ENDBRANCH  10  11
BRANCH  10  18
HETATM   18  C           1     -20.574  -4.333  -9.138  0.00  0.00     0.207 C 
HETATM   19  O           1     -19.693  -3.739  -8.481  0.00  0.00    -0.646 OA
HETATM   20  O           1     -20.388  -4.584 -10.349  0.00  0.00    -0.646 OA
ENDBRANCH  10  18
ENDBRANCH   8  10
ENDBRANCH   7   8
ENDBRANCH   6   7
ENDBRANCH   5   6
BRANCH   5  21
HETATM   21  C           1     -21.491  -6.767  -2.902  0.00  0.00     0.196 C 
HETATM   22  O           1     -20.773  -7.279  -2.016  0.00  0.00    -0.646 OA
HETATM   23  O           1     -22.395  -5.963  -2.587  0.00  0.00    -0.646 OA
ENDBRANCH   5  21
ENDBRANCH   3   5
BRANCH   4  24
HETATM   24  C           1     -21.181 -10.805  -5.399  0.00  0.00     0.274 C 
BRANCH  24  25
HETATM   25  N           1     -20.473 -11.330  -6.612  0.00  0.00    -0.067 N 
HETATM   26  H           1     -20.321 -12.359  -6.508  0.00  0.00     0.275 HD
HETATM   27  H           1     -19.550 -10.850  -6.712  0.00  0.00     0.275 HD
HETATM   28  H           1     -21.054 -11.149  -7.462  0.00  0.00     0.275 HD
ENDBRANCH  24  25
BRANCH  24  29
HETATM   29  C           1     -20.804 -11.646  -4.186  0.00  0.00     0.044 C 
BRANCH  29  30
HETATM   30  C           1     -21.989 -11.721  -3.233  0.00  0.00     0.023 C 
BRANCH  30  31
HETATM   31  C           1     -21.555 -11.268  -1.845  0.00  0.00     0.138 C 
BRANCH  31  32
HETATM   32  N           1     -22.301 -10.059  -1.469  0.00  0.00    -0.227 N 
HETATM   33  C           1     -22.210  -9.599  -0.293  0.00  0.00     0.665 C 
HETATM   34  N           1     -21.457 -10.197   0.581  0.00  0.00    -0.235 N 
HETATM   35  N           1     -22.852  -8.557   0.031  0.00  0.00    -0.235 N 
HETATM   36  H           1     -21.381  -9.817   1.553  0.00  0.00     0.174 HD
HETATM   37  H           1     -20.927 -11.057   0.314  0.00  0.00     0.174 HD
HETATM   38  H           1     -22.777  -8.176   1.006  0.00  0.00     0.174 HD
HETATM   39  H           1     -23.461  -8.074  -0.676  0.00  0.00     0.174 HD
HETATM   40  H           1     -22.909  -9.576  -2.176  0.00  0.00     0.177 HD
ENDBRANCH  31  32
ENDBRANCH  30  31
ENDBRANCH  29  30
ENDBRANCH  24  29
ENDBRANCH   4  24
TORSDOF 16
ENDMDL
MODEL 9
REMARK VINA RESULT:      -6.5      3.749      9.708
REMARK  16 active torsions:
REMARK  status: ('A' for Active; 'I' for Inactive)
REMARK    1  A    between atoms: C_2  and  C_3 
REMARK    2  A    between atoms: C_2  and  C_7 
REMARK    3  A    between atoms: C_3  and  C_12 
REMARK       I    between atoms: N_4  and  C_12 
REMARK    4  A    between atoms: C_6  and  C_7 
REMARK    5  A    between atoms: C_7  and  N_19 
REMARK       I    between atoms: N_13  and  C_24 
REMARK    6  A    between atoms: C_14  and  N_19 
REMARK    7  A    between atoms: C_14  and  C_15 
REMARK    8  A    between atoms: C_15  and  C_16 
REMARK    9  A    between atoms: C_16  and  C_17 
REMARK   10  A    between atoms: C_16  and  N_37 
REMARK   11  A    between atoms: C_21  and  C_40 
REMARK   12  A    between atoms: C_21  and  C_22 
REMARK   13  A    between atoms: C_22  and  N_23 
REMARK       I    between atoms: N_23  and  C_24 
REMARK   14  A    between atoms: N_33  and  C_39 
REMARK       I    between atoms: N_37  and  C_38 
REMARK   15  A    between atoms: C_38  and  C_39 
REMARK   16  A    between atoms: C_39  and  C_40 
ROOT
HETATM    1  H           1     -19.748  -6.345  -4.810  0.00  0.00     0.163 HD
HETATM    2  O           1     -22.609  -5.497  -5.777  0.00  0.00    -0.271 OA
HETATM    3  N           1     -20.757  -6.368  -4.884  0.00  0.00    -0.345 N 
HETATM    4  C           1     -21.404  -5.470  -5.689  0.00  0.00     0.249 C 
ENDROOT
BRANCH   3   5
HETATM    5  C           1     -21.517  -7.352  -4.137  0.00  0.00     0.187 C 
BRANCH   5   6
HETATM    6  C           1     -20.800  -8.695  -4.193  0.00  0.00     0.066 C 
BRANCH   6   7
HETATM    7  C           1     -19.475  -8.533  -4.925  0.00  0.00     0.273 C 
BRANCH   7   8
HETATM    8  N           1     -18.495  -9.410  -4.344  0.00  0.00     0.098 N 
HETATM    9  H           1     -18.957 -10.248  -3.989  0.00  0.00     0.317 HD
BRANCH   8  10
HETATM   10  C           1     -17.566  -9.776  -5.378  0.00  0.00     0.320 C 
BRANCH  10  11
HETATM   11  C           1     -16.172  -9.917  -4.781  0.00  0.00     0.056 C 
BRANCH  11  12
HETATM   12  C           1     -16.249  -9.757  -3.268  0.00  0.00     0.105 C 
BRANCH  12  13
HETATM   13  C           1     -15.647 -10.970  -2.603  0.00  0.00     0.215 C 
HETATM   14  O           1     -14.911 -11.698  -3.226  0.00  0.00    -0.274 OA
HETATM   15  N           1     -15.934 -11.245  -1.292  0.00  0.00    -0.370 N 
HETATM   16  H           1     -16.551 -10.635  -0.771  0.00  0.00     0.159 HD
HETATM   17  H           1     -15.530 -12.058  -0.846  0.00  0.00     0.159 HD
ENDBRANCH  12  13
ENDBRANCH  11  12
ENDBRANCH  10  11
BRANCH  10  18
HETATM   18  C           1     -17.988 -11.089  -5.990  0.00  0.00     0.207 C 
HETATM   19  O           1     -18.548 -11.109  -7.107  0.00  0.00    -0.646 OA
HETATM   20  O           1     -17.775 -12.160  -5.379  0.00  0.00    -0.646 OA
ENDBRANCH  10  18
ENDBRANCH   8  10
ENDBRANCH   7   8
ENDBRANCH   6   7
ENDBRANCH   5   6
BRANCH   5  21
HETATM   21  C           1     -21.640  -6.906  -2.700  0.00  0.00     0.196 C 
HETATM   22  O           1     -20.938  -7.446  -1.817  0.00  0.00    -0.646 OA
HETATM   23  O           1     -22.443  -6.000  -2.394  0.00  0.00    -0.646 OA
ENDBRANCH   5  21
ENDBRANCH   3   5
BRANCH   4  24
HETATM   24  C           1     -20.615  -4.446  -6.466  0.00  0.00     0.274 C 
BRANCH  24  25
HETATM   25  N           1     -19.498  -5.128  -7.198  0.00  0.00    -0.067 N 
HETATM   26  H           1     -18.755  -5.406  -6.519  0.00  0.00     0.275 HD
HETATM   27  H           1     -19.094  -4.474  -7.907  0.00  0.00     0.275 HD
HETATM   28  H           1     -19.864  -5.980  -7.680  0.00  0.00     0.275 HD
ENDBRANCH  24  25
BRANCH  24  29
HETATM   29  C           1     -21.528  -3.750  -7.467  0.00  0.00     0.044 C 
BRANCH  29  30
HETATM   30  C           1     -21.594  -4.571  -8.748  0.00  0.00     0.023 C 
BRANCH  30  31
HETATM   31  C           1     -22.700  -4.026  -9.643  0.00  0.00     0.138 C 
BRANCH  31  32
HETATM   32  N           1     -22.110  -3.480 -10.873  0.00  0.00    -0.227 N 
HETATM   33  C           1     -22.478  -3.920 -12.002  0.00  0.00     0.665 C 
HETATM   34  N           1     -23.378  -4.856 -12.072  0.00  0.00    -0.235 N 
HETATM   35  N           1     -21.970  -3.449 -13.062  0.00  0.00    -0.235 N 
HETATM   36  H           1     -23.682  -5.218 -13.004  0.00  0.00     0.174 HD
HETATM   37  H           1     -23.797  -5.245 -11.198  0.00  0.00     0.174 HD
HETATM   38  H           1     -22.275  -3.814 -13.998  0.00  0.00     0.174 HD
HETATM   39  H           1     -21.243  -2.693 -13.005  0.00  0.00     0.174 HD
HETATM   40  H           1     -21.383  -2.724 -10.816  0.00  0.00     0.177 HD
ENDBRANCH  31  32
ENDBRANCH  30  31
ENDBRANCH  29  30
ENDBRANCH  24  29
ENDBRANCH   4  24
TORSDOF 16
ENDMDL
