MODEL 1
REMARK VINA RESULT:      -7.7      0.000      0.000
REMARK  11 active torsions:
REMARK  status: ('A' for Active; 'I' for Inactive)
REMARK    1  A    between atoms: O_3  and  P_4 
REMARK    2  A    between atoms: P_4  and  O_5 
REMARK    3  A    between atoms: O_5  and  C_6 
REMARK    4  A    between atoms: C_9  and  C_10 
REMARK    5  A    between atoms: C_10  and  C_11 
REMARK    6  A    between atoms: C_11  and  C_12 
REMARK    7  A    between atoms: C_11  and  N_24 
REMARK       I    between atoms: C_12  and  N_13 
REMARK    8  A    between atoms: N_13  and  C_17 
REMARK    9  A    between atoms: C_16  and  C_17 
REMARK   10  A    between atoms: C_17  and  C_18 
REMARK   11  A    between atoms: C_18  and  O_19 
ROOT
HETATM    1  C           1     -20.986  -4.911  -6.392  0.00  0.00     0.278 C 
ENDROOT
BRANCH   1   2
HETATM    2  C           1     -20.731  -5.615  -7.719  0.00  0.00     0.081 C 
BRANCH   2   3
HETATM    3  C           1     -21.298  -4.795  -8.835  0.00  0.00    -0.056 A 
HETATM    4  C           1     -22.621  -4.356  -8.778  0.00  0.00     0.010 A 
HETATM    5  C           1     -23.149  -3.592  -9.818  0.00  0.00     0.038 A 
HETATM    6  C           1     -22.353  -3.265 -10.916  0.00  0.00     0.081 A 
HETATM    7  C           1     -21.031  -3.702 -10.974  0.00  0.00     0.038 A 
HETATM    8  C           1     -20.502  -4.467  -9.933  0.00  0.00     0.010 A 
BRANCH   6   9
HETATM    9  O           1     -22.866  -2.522 -11.927  0.00  0.00    -0.247 OA
BRANCH   9  10
HETATM   10  P           1     -23.913  -3.231 -12.932  0.00  0.00     0.411 P 
HETATM   11  O           1     -25.294  -2.884 -12.531  0.00  0.00    -0.624 OA
HETATM   12  O           1     -23.667  -2.758 -14.313  0.00  0.00    -0.624 OA
BRANCH  10  13
HETATM   13  O           1     -23.721  -4.833 -12.870  0.00  0.00    -0.300 OA
HETATM   14  H           1     -24.293  -5.120 -12.180  0.00  0.00     0.223 HD
ENDBRANCH  10  13
ENDBRANCH   9  10
ENDBRANCH   6   9
ENDBRANCH   2   3
ENDBRANCH   1   2
BRANCH   1  15
HETATM   15  C           1     -21.692  -5.854  -5.449  0.00  0.00     0.249 C 
HETATM   16  N           1     -20.966  -6.646  -4.602  0.00  0.00    -0.343 N 
HETATM   17  H           1     -19.955  -6.599  -4.608  0.00  0.00     0.163 HD
HETATM   18  O           1     -22.899  -5.911  -5.442  0.00  0.00    -0.271 OA
BRANCH  16  19
HETATM   19  C           1     -21.644  -7.553  -3.696  0.00  0.00     0.209 C 
BRANCH  19  20
HETATM   20  C           1     -21.662  -6.957  -2.309  0.00  0.00     0.198 C 
HETATM   21  O           1     -22.347  -5.937  -2.077  0.00  0.00    -0.646 OA
HETATM   22  O           1     -20.992  -7.482  -1.395  0.00  0.00    -0.646 OA
ENDBRANCH  19  20
BRANCH  19  23
HETATM   23  C           1     -20.908  -8.886  -3.666  0.00  0.00     0.200 C 
BRANCH  23  24
HETATM   24  O           1     -21.681  -9.832  -2.979  0.00  0.00    -0.398 OA
HETATM   25  H           1     -22.475  -9.399  -2.716  0.00  0.00     0.209 HD
ENDBRANCH  23  24
ENDBRANCH  19  23
ENDBRANCH  16  19
ENDBRANCH   1  15
BRANCH   1  26
HETATM   26  N           1     -19.678  -4.491  -5.791  0.00  0.00    -0.066 N 
HETATM   27  H           1     -19.643  -3.449  -5.724  0.00  0.00     0.275 HD
HETATM   28  H           1     -19.587  -4.904  -4.834  0.00  0.00     0.275 HD
HETATM   29  H           1     -18.893  -4.828  -6.392  0.00  0.00     0.275 HD
ENDBRANCH   1  26
TORSDOF 11
ENDMDL
MODEL 2
REMARK VINA RESULT:      -7.4      1.408      1.920
REMARK  11 active torsions:
REMARK  status: ('A' for Active; 'I' for Inactive)
REMARK    1  A    between atoms: O_3  and  P_4 
REMARK    2  A    between atoms: P_4  and  O_5 
REMARK    3  A    between atoms: O_5  and  C_6 
REMARK    4  A    between atoms: C_9  and  C_10 
REMARK    5  A    between atoms: C_10  and  C_11 
REMARK    6  A    between atoms: C_11  and  C_12 
REMARK    7  A    between atoms: C_11  and  N_24 
REMARK       I    between atoms: C_12  and  N_13 
REMARK    8  A    between atoms: N_13  and  C_17 
REMARK    9  A    between atoms: C_16  and  C_17 
REMARK   10  A    between atoms: C_17  and  C_18 
REMARK   11  A    between atoms: C_18  and  O_19 
ROOT
HETATM    1  C           1     -21.895  -4.663  -6.992  0.00  0.00     0.278 C 
ENDROOT
BRANCH   1   2
HETATM    2  C           1     -21.404  -5.271  -8.300  0.00  0.00     0.081 C 
BRANCH   2   3
HETATM    3  C           1     -21.865  -4.426  -9.447  0.00  0.00    -0.056 A 
HETATM    4  C           1     -23.220  -4.128  -9.595  0.00  0.00     0.010 A 
HETATM    5  C           1     -23.648  -3.340 -10.663  0.00  0.00     0.038 A 
HETATM    6  C           1     -22.721  -2.849 -11.583  0.00  0.00     0.081 A 
HETATM    7  C           1     -21.367  -3.145 -11.435  0.00  0.00     0.038 A 
HETATM    8  C           1     -20.938  -3.934 -10.366  0.00  0.00     0.010 A 
BRANCH   6   9
HETATM    9  O           1     -23.138  -2.083 -12.620  0.00  0.00    -0.247 OA
BRANCH   9  10
HETATM   10  P           1     -23.414  -2.810 -14.035  0.00  0.00     0.411 P 
HETATM   11  O           1     -24.278  -3.993 -13.822  0.00  0.00    -0.624 OA
HETATM   12  O           1     -24.090  -1.864 -14.952  0.00  0.00    -0.624 OA
BRANCH  10  13
HETATM   13  O           1     -22.011  -3.278 -14.685  0.00  0.00    -0.300 OA
HETATM   14  H           1     -21.371  -3.137 -14.009  0.00  0.00     0.223 HD
ENDBRANCH  10  13
ENDBRANCH   9  10
ENDBRANCH   6   9
ENDBRANCH   2   3
ENDBRANCH   1   2
BRANCH   1  15
HETATM   15  C           1     -21.146  -5.282  -5.838  0.00  0.00     0.249 C 
HETATM   16  N           1     -21.834  -5.867  -4.810  0.00  0.00    -0.343 N 
HETATM   17  H           1     -22.846  -5.885  -4.824  0.00  0.00     0.163 HD
HETATM   18  O           1     -19.938  -5.261  -5.820  0.00  0.00    -0.271 OA
BRANCH  16  19
HETATM   19  C           1     -21.115  -6.462  -3.700  0.00  0.00     0.209 C 
BRANCH  19  20
HETATM   20  C           1     -20.988  -7.949  -3.923  0.00  0.00     0.198 C 
HETATM   21  O           1     -21.882  -8.566  -4.544  0.00  0.00    -0.646 OA
HETATM   22  O           1     -19.991  -8.564  -3.488  0.00  0.00    -0.646 OA
ENDBRANCH  19  20
BRANCH  19  23
HETATM   23  C           1     -21.875  -6.206  -2.406  0.00  0.00     0.200 C 
BRANCH  23  24
HETATM   24  O           1     -21.991  -7.403  -1.686  0.00  0.00    -0.398 OA
HETATM   25  H           1     -22.134  -7.169  -0.785  0.00  0.00     0.209 HD
ENDBRANCH  23  24
ENDBRANCH  19  23
ENDBRANCH  16  19
ENDBRANCH   1  15
BRANCH   1  26
HETATM   26  N           1     -21.654  -3.184  -7.008  0.00  0.00    -0.066 N 
HETATM   27  H           1     -20.631  -2.995  -6.899  0.00  0.00     0.275 HD
HETATM   28  H           1     -21.985  -2.786  -7.917  0.00  0.00     0.275 HD
HETATM   29  H           1     -22.175  -2.736  -6.221  0.00  0.00     0.275 HD
ENDBRANCH   1  26
TORSDOF 11
ENDMDL
MODEL 3
REMARK VINA RESULT:      -7.1      1.793      2.655
REMARK  11 active torsions:
REMARK  status: ('A' for Active; 'I' for Inactive)
REMARK    1  A    between atoms: O_3  and  P_4 
REMARK    2  A    between atoms: P_4  and  O_5 
REMARK    3  A    between atoms: O_5  and  C_6 
REMARK    4  A    between atoms: C_9  and  C_10 
REMARK    5  A    between atoms: C_10  and  C_11 
REMARK    6  A    between atoms: C_11  and  C_12 
REMARK    7  A    between atoms: C_11  and  N_24 
REMARK       I    between atoms: C_12  and  N_13 
REMARK    8  A    between atoms: N_13  and  C_17 
REMARK    9  A    between atoms: C_16  and  C_17 
REMARK   10  A    between atoms: C_17  and  C_18 
REMARK   11  A    between atoms: C_18  and  O_19 
ROOT
HETATM    1  C           1     -20.785  -5.522  -6.228  0.00  0.00     0.278 C 
ENDROOT
BRANCH   1   2
HETATM    2  C           1     -20.091  -5.758  -7.564  0.00  0.00     0.081 C 
BRANCH   2   3
HETATM    3  C           1     -20.765  -4.948  -8.627  0.00  0.00    -0.056 A 
HETATM    4  C           1     -20.089  -4.647  -9.809  0.00  0.00     0.010 A 
HETATM    5  C           1     -20.717  -3.893 -10.800  0.00  0.00     0.038 A 
HETATM    6  C           1     -22.022  -3.438 -10.607  0.00  0.00     0.081 A 
HETATM    7  C           1     -22.698  -3.739  -9.426  0.00  0.00     0.038 A 
HETATM    8  C           1     -22.070  -4.494  -8.435  0.00  0.00     0.010 A 
BRANCH   6   9
HETATM    9  O           1     -22.632  -2.705 -11.570  0.00  0.00    -0.247 OA
BRANCH   9  10
HETATM   10  P           1     -23.825  -3.398 -12.408  0.00  0.00     0.411 P 
HETATM   11  O           1     -25.123  -3.085 -11.770  0.00  0.00    -0.624 OA
HETATM   12  O           1     -23.820  -2.881 -13.795  0.00  0.00    -0.624 OA
BRANCH  10  13
HETATM   13  O           1     -23.609  -4.999 -12.431  0.00  0.00    -0.300 OA
HETATM   14  H           1     -24.306  -5.331 -12.972  0.00  0.00     0.223 HD
ENDBRANCH  10  13
ENDBRANCH   9  10
ENDBRANCH   6   9
ENDBRANCH   2   3
ENDBRANCH   1   2
BRANCH   1  15
HETATM   15  C           1     -20.678  -6.764  -5.378  0.00  0.00     0.249 C 
HETATM   16  N           1     -19.934  -7.828  -5.812  0.00  0.00    -0.343 N 
HETATM   17  H           1     -19.456  -7.781  -6.703  0.00  0.00     0.163 HD
HETATM   18  O           1     -21.248  -6.820  -4.315  0.00  0.00    -0.271 OA
BRANCH  16  19
HETATM   19  C           1     -19.830  -9.022  -4.995  0.00  0.00     0.209 C 
BRANCH  19  20
HETATM   20  C           1     -18.567  -9.767  -5.354  0.00  0.00     0.198 C 
HETATM   21  O           1     -18.160 -10.694  -4.620  0.00  0.00    -0.646 OA
HETATM   22  O           1     -17.930  -9.457  -6.383  0.00  0.00    -0.646 OA
ENDBRANCH  19  20
BRANCH  19  23
HETATM   23  C           1     -21.036  -9.916  -5.247  0.00  0.00     0.200 C 
BRANCH  23  24
HETATM   24  O           1     -21.896  -9.865  -4.141  0.00  0.00    -0.398 OA
HETATM   25  H           1     -22.736  -9.584  -4.459  0.00  0.00     0.209 HD
ENDBRANCH  23  24
ENDBRANCH  19  23
ENDBRANCH  16  19
ENDBRANCH   1  15
BRANCH   1  26
HETATM   26  N           1     -20.128  -4.375  -5.521  0.00  0.00    -0.066 N 
HETATM   27  H           1     -20.636  -3.489  -5.745  0.00  0.00     0.275 HD
HETATM   28  H           1     -20.156  -4.540  -4.489  0.00  0.00     0.275 HD
HETATM   29  H           1     -19.134  -4.294  -5.835  0.00  0.00     0.275 HD
ENDBRANCH   1  26
TORSDOF 11
ENDMDL
MODEL 4
REMARK VINA RESULT:      -7.0      3.462      9.037
REMARK  11 active torsions:
REMARK  status: ('A' for Active; 'I' for Inactive)
REMARK    1  A    between atoms: O_3  and  P_4 
REMARK    2  A    between atoms: P_4  and  O_5 
REMARK    3  A    between atoms: O_5  and  C_6 
REMARK    4  A    between atoms: C_9  and  C_10 
REMARK    5  A    between atoms: C_10  and  C_11 
REMARK    6  A    between atoms: C_11  and  C_12 
REMARK    7  A    between atoms: C_11  and  N_24 
REMARK       I    between atoms: C_12  and  N_13 
REMARK    8  A    between atoms: N_13  and  C_17 
REMARK    9  A    between atoms: C_16  and  C_17 
REMARK   10  A    between atoms: C_17  and  C_18 
REMARK   11  A    between atoms: C_18  and  O_19 
ROOT
HETATM    1  C           1     -22.325  -4.823  -6.804  0.00  0.00     0.278 C 
ENDROOT
BRANCH   1   2
HETATM    2  C           1     -21.685  -6.205  -6.866  0.00  0.00     0.081 C 
BRANCH   2   3
HETATM    3  C           1     -21.409  -6.689  -5.477  0.00  0.00    -0.056 A 
HETATM    4  C           1     -21.143  -5.774  -4.458  0.00  0.00     0.010 A 
HETATM    5  C           1     -20.887  -6.225  -3.163  0.00  0.00     0.038 A 
HETATM    6  C           1     -20.896  -7.592  -2.888  0.00  0.00     0.081 A 
HETATM    7  C           1     -21.163  -8.508  -3.905  0.00  0.00     0.038 A 
HETATM    8  C           1     -21.420  -8.056  -5.200  0.00  0.00     0.010 A 
BRANCH   6   9
HETATM    9  O           1     -20.647  -8.031  -1.630  0.00  0.00    -0.247 OA
BRANCH   9  10
HETATM   10  P           1     -21.893  -8.155  -0.610  0.00  0.00     0.411 P 
HETATM   11  O           1     -22.667  -9.377  -0.924  0.00  0.00    -0.624 OA
HETATM   12  O           1     -21.389  -8.235   0.779  0.00  0.00    -0.624 OA
BRANCH  10  13
HETATM   13  O           1     -22.847  -6.860  -0.762  0.00  0.00    -0.300 OA
HETATM   14  H           1     -22.928  -6.726  -1.691  0.00  0.00     0.223 HD
ENDBRANCH  10  13
ENDBRANCH   9  10
ENDBRANCH   6   9
ENDBRANCH   2   3
ENDBRANCH   1   2
BRANCH   1  15
HETATM   15  C           1     -22.167  -4.136  -8.139  0.00  0.00     0.249 C 
HETATM   16  N           1     -23.117  -4.301  -9.110  0.00  0.00    -0.343 N 
HETATM   17  H           1     -23.925  -4.884  -8.933  0.00  0.00     0.163 HD
HETATM   18  O           1     -21.203  -3.440  -8.350  0.00  0.00    -0.271 OA
BRANCH  16  19
HETATM   19  C           1     -22.966  -3.641 -10.392  0.00  0.00     0.209 C 
BRANCH  19  20
HETATM   20  C           1     -24.323  -3.220 -10.903  0.00  0.00     0.198 C 
HETATM   21  O           1     -25.314  -3.251 -10.141  0.00  0.00    -0.646 OA
HETATM   22  O           1     -24.455  -2.841 -12.086  0.00  0.00    -0.646 OA
ENDBRANCH  19  20
BRANCH  19  23
HETATM   23  C           1     -22.326  -4.601 -11.386  0.00  0.00     0.200 C 
BRANCH  23  24
HETATM   24  O           1     -21.732  -3.871 -12.425  0.00  0.00    -0.398 OA
HETATM   25  H           1     -20.922  -4.304 -12.636  0.00  0.00     0.209 HD
ENDBRANCH  23  24
ENDBRANCH  19  23
ENDBRANCH  16  19
ENDBRANCH   1  15
BRANCH   1  26
HETATM   26  N           1     -23.783  -4.963  -6.484  0.00  0.00    -0.066 N 
HETATM   27  H           1     -24.348  -4.777  -7.344  0.00  0.00     0.275 HD
HETATM   28  H           1     -23.974  -5.933  -6.146  0.00  0.00     0.275 HD
HETATM   29  H           1     -24.044  -4.276  -5.741  0.00  0.00     0.275 HD
ENDBRANCH   1  26
TORSDOF 11
ENDMDL
MODEL 5
REMARK VINA RESULT:      -6.9      2.060      2.794
REMARK  11 active torsions:
REMARK  status: ('A' for Active; 'I' for Inactive)
REMARK    1  A    between atoms: O_3  and  P_4 
REMARK    2  A    between atoms: P_4  and  O_5 
REMARK    3  A    between atoms: O_5  and  C_6 
REMARK    4  A    between atoms: C_9  and  C_10 
REMARK    5  A    between atoms: C_10  and  C_11 
REMARK    6  A    between atoms: C_11  and  C_12 
REMARK    7  A    between atoms: C_11  and  N_24 
REMARK       I    between atoms: C_12  and  N_13 
REMARK    8  A    between atoms: N_13  and  C_17 
REMARK    9  A    between atoms: C_16  and  C_17 
REMARK   10  A    between atoms: C_17  and  C_18 
REMARK   11  A    between atoms: C_18  and  O_19 
ROOT
HETATM    1  C           1     -21.464  -6.436  -5.367  0.00  0.00     0.278 C 
ENDROOT
BRANCH   1   2
HETATM    2  C           1     -20.417  -5.500  -5.957  0.00  0.00     0.081 C 
BRANCH   2   3
HETATM    3  C           1     -20.933  -4.918  -7.236  0.00  0.00    -0.056 A 
HETATM    4  C           1     -22.211  -4.362  -7.286  0.00  0.00     0.010 A 
HETATM    5  C           1     -22.690  -3.819  -8.478  0.00  0.00     0.038 A 
HETATM    6  C           1     -21.891  -3.834  -9.621  0.00  0.00     0.081 A 
HETATM    7  C           1     -20.613  -4.389  -9.573  0.00  0.00     0.038 A 
HETATM    8  C           1     -20.134  -4.932  -8.379  0.00  0.00     0.010 A 
BRANCH   6   9
HETATM    9  O           1     -22.358  -3.307 -10.779  0.00  0.00    -0.247 OA
BRANCH   9  10
HETATM   10  P           1     -23.673  -3.972 -11.439  0.00  0.00     0.411 P 
HETATM   11  O           1     -23.824  -5.359 -10.946  0.00  0.00    -0.624 OA
HETATM   12  O           1     -24.867  -3.182 -11.064  0.00  0.00    -0.624 OA
BRANCH  10  13
HETATM   13  O           1     -23.522  -3.987 -13.047  0.00  0.00    -0.300 OA
HETATM   14  H           1     -23.323  -3.097 -13.281  0.00  0.00     0.223 HD
ENDBRANCH  10  13
ENDBRANCH   9  10
ENDBRANCH   6   9
ENDBRANCH   2   3
ENDBRANCH   1   2
BRANCH   1  15
HETATM   15  C           1     -20.901  -7.834  -5.287  0.00  0.00     0.249 C 
HETATM   16  N           1     -19.940  -8.133  -4.360  0.00  0.00    -0.343 N 
HETATM   17  H           1     -19.606  -7.416  -3.728  0.00  0.00     0.163 HD
HETATM   18  O           1     -21.299  -8.690  -6.041  0.00  0.00    -0.271 OA
BRANCH  16  19
HETATM   19  C           1     -19.399  -9.476  -4.282  0.00  0.00     0.209 C 
BRANCH  19  20
HETATM   20  C           1     -19.077  -9.806  -2.846  0.00  0.00     0.198 C 
HETATM   21  O           1     -17.891 -10.011  -2.502  0.00  0.00    -0.646 OA
HETATM   22  O           1     -19.993  -9.874  -1.999  0.00  0.00    -0.646 OA
ENDBRANCH  19  20
BRANCH  19  23
HETATM   23  C           1     -18.129  -9.561  -5.119  0.00  0.00     0.200 C 
BRANCH  23  24
HETATM   24  O           1     -18.463  -9.873  -6.445  0.00  0.00    -0.398 OA
HETATM   25  H           1     -18.137 -10.741  -6.612  0.00  0.00     0.209 HD
ENDBRANCH  23  24
ENDBRANCH  19  23
ENDBRANCH  16  19
ENDBRANCH   1  15
BRANCH   1  26
HETATM   26  N           1     -21.833  -5.968  -3.991  0.00  0.00    -0.066 N 
HETATM   27  H           1     -22.659  -6.509  -3.647  0.00  0.00     0.275 HD
HETATM   28  H           1     -21.026  -6.118  -3.344  0.00  0.00     0.275 HD
HETATM   29  H           1     -22.073  -4.951  -4.020  0.00  0.00     0.275 HD
ENDBRANCH   1  26
TORSDOF 11
ENDMDL
MODEL 6
REMARK VINA RESULT:      -6.8      3.554      9.193
REMARK  11 active torsions:
REMARK  status: ('A' for Active; 'I' for Inactive)
REMARK    1  A    between atoms: O_3  and  P_4 
REMARK    2  A    between atoms: P_4  and  O_5 
REMARK    3  A    between atoms: O_5  and  C_6 
REMARK    4  A    between atoms: C_9  and  C_10 
REMARK    5  A    between atoms: C_10  and  C_11 
REMARK    6  A    between atoms: C_11  and  C_12 
REMARK    7  A    between atoms: C_11  and  N_24 
REMARK       I    between atoms: C_12  and  N_13 
REMARK    8  A    between atoms: N_13  and  C_17 
REMARK    9  A    between atoms: C_16  and  C_17 
REMARK   10  A    between atoms: C_17  and  C_18 
REMARK   11  A    between atoms: C_18  and  O_19 
ROOT
HETATM    1  C           1     -21.268  -5.716  -6.692  0.00  0.00     0.278 C 
ENDROOT
BRANCH   1   2
HETATM    2  C           1     -22.355  -5.869  -5.636  0.00  0.00     0.081 C 
BRANCH   2   3
HETATM    3  C           1     -21.857  -6.745  -4.530  0.00  0.00    -0.056 A 
HETATM    4  C           1     -21.621  -8.100  -4.764  0.00  0.00     0.010 A 
HETATM    5  C           1     -21.155  -8.916  -3.733  0.00  0.00     0.038 A 
HETATM    6  C           1     -20.926  -8.377  -2.468  0.00  0.00     0.081 A 
HETATM    7  C           1     -21.161  -7.023  -2.232  0.00  0.00     0.038 A 
HETATM    8  C           1     -21.626  -6.206  -3.264  0.00  0.00     0.010 A 
BRANCH   6   9
HETATM    9  O           1     -20.474  -9.170  -1.466  0.00  0.00    -0.247 OA
BRANCH   9  10
HETATM   10  P           1     -21.464  -9.462  -0.224  0.00  0.00     0.411 P 
HETATM   11  O           1     -21.327  -8.383   0.780  0.00  0.00    -0.624 OA
HETATM   12  O           1     -22.862  -9.510  -0.709  0.00  0.00    -0.624 OA
BRANCH  10  13
HETATM   13  O           1     -21.081 -10.878   0.452  0.00  0.00    -0.300 OA
HETATM   14  H           1     -21.017 -10.698   1.374  0.00  0.00     0.223 HD
ENDBRANCH  10  13
ENDBRANCH   9  10
ENDBRANCH   6   9
ENDBRANCH   2   3
ENDBRANCH   1   2
BRANCH   1  15
HETATM   15  C           1     -21.642  -4.605  -7.643  0.00  0.00     0.249 C 
HETATM   16  N           1     -22.167  -4.903  -8.871  0.00  0.00    -0.343 N 
HETATM   17  H           1     -22.304  -5.869  -9.141  0.00  0.00     0.163 HD
HETATM   18  O           1     -21.479  -3.453  -7.320  0.00  0.00    -0.271 OA
BRANCH  16  19
HETATM   19  C           1     -22.528  -3.837  -9.785  0.00  0.00     0.209 C 
BRANCH  19  20
HETATM   20  C           1     -23.997  -3.932 -10.113  0.00  0.00     0.198 C 
HETATM   21  O           1     -24.602  -2.935 -10.566  0.00  0.00    -0.646 OA
HETATM   22  O           1     -24.610  -5.006  -9.933  0.00  0.00    -0.646 OA
ENDBRANCH  19  20
BRANCH  19  23
HETATM   23  C           1     -21.712  -3.967 -11.064  0.00  0.00     0.200 C 
BRANCH  23  24
HETATM   24  O           1     -22.464  -4.651 -12.030  0.00  0.00    -0.398 OA
HETATM   25  H           1     -22.281  -5.568 -11.921  0.00  0.00     0.209 HD
ENDBRANCH  23  24
ENDBRANCH  19  23
ENDBRANCH  16  19
ENDBRANCH   1  15
BRANCH   1  26
HETATM   26  N           1     -19.967  -5.383  -6.024  0.00  0.00    -0.066 N 
HETATM   27  H           1     -20.102  -5.363  -4.987  0.00  0.00     0.275 HD
HETATM   28  H           1     -19.255  -6.108  -6.267  0.00  0.00     0.275 HD
HETATM   29  H           1     -19.637  -4.447  -6.349  0.00  0.00     0.275 HD
ENDBRANCH   1  26
TORSDOF 11
ENDMDL
MODEL 7
REMARK VINA RESULT:      -6.7      1.951      2.931
REMARK  11 active torsions:
REMARK  status: ('A' for Active; 'I' for Inactive)
REMARK    1  A    between atoms: O_3  and  P_4 
REMARK    2  A    between atoms: P_4  and  O_5 
REMARK    3  A    between atoms: O_5  and  C_6 
REMARK    4  A    between atoms: C_9  and  C_10 
REMARK    5  A    between atoms: C_10  and  C_11 
REMARK    6  A    between atoms: C_11  and  C_12 
REMARK    7  A    between atoms: C_11  and  N_24 
REMARK       I    between atoms: C_12  and  N_13 
REMARK    8  A    between atoms: N_13  and  C_17 
REMARK    9  A    between atoms: C_16  and  C_17 
REMARK   10  A    between atoms: C_17  and  C_18 
REMARK   11  A    between atoms: C_18  and  O_19 
ROOT
HETATM    1  C           1     -21.459  -6.631  -5.324  0.00  0.00     0.278 C 
ENDROOT
BRANCH   1   2
HETATM    2  C           1     -20.386  -5.740  -5.936  0.00  0.00     0.081 C 
BRANCH   2   3
HETATM    3  C           1     -20.926  -5.083  -7.168  0.00  0.00    -0.056 A 
HETATM    4  C           1     -20.147  -5.016  -8.323  0.00  0.00     0.010 A 
HETATM    5  C           1     -20.651  -4.404  -9.471  0.00  0.00     0.038 A 
HETATM    6  C           1     -21.935  -3.859  -9.463  0.00  0.00     0.081 A 
HETATM    7  C           1     -22.715  -3.925  -8.309  0.00  0.00     0.038 A 
HETATM    8  C           1     -22.210  -4.538  -7.160  0.00  0.00     0.010 A 
BRANCH   6   9
HETATM    9  O           1     -22.424  -3.264 -10.578  0.00  0.00    -0.247 OA
BRANCH   9  10
HETATM   10  P           1     -23.745  -3.899 -11.257  0.00  0.00     0.411 P 
HETATM   11  O           1     -23.727  -3.633 -12.713  0.00  0.00    -0.624 OA
HETATM   12  O           1     -23.766  -5.360 -11.024  0.00  0.00    -0.624 OA
BRANCH  10  13
HETATM   13  O           1     -25.063  -3.231 -10.604  0.00  0.00    -0.300 OA
HETATM   14  H           1     -25.640  -3.953 -10.428  0.00  0.00     0.223 HD
ENDBRANCH  10  13
ENDBRANCH   9  10
ENDBRANCH   6   9
ENDBRANCH   2   3
ENDBRANCH   1   2
BRANCH   1  15
HETATM   15  C           1     -20.892  -8.009  -5.083  0.00  0.00     0.249 C 
HETATM   16  N           1     -20.186  -8.267  -3.939  0.00  0.00    -0.343 N 
HETATM   17  H           1     -20.044  -7.535  -3.256  0.00  0.00     0.163 HD
HETATM   18  O           1     -21.062  -8.883  -5.898  0.00  0.00    -0.271 OA
BRANCH  16  19
HETATM   19  C           1     -19.641  -9.591  -3.706  0.00  0.00     0.209 C 
BRANCH  19  20
HETATM   20  C           1     -20.297 -10.197  -2.490  0.00  0.00     0.198 C 
HETATM   21  O           1     -20.637 -11.401  -2.498  0.00  0.00    -0.646 OA
HETATM   22  O           1     -20.501  -9.497  -1.475  0.00  0.00    -0.646 OA
ENDBRANCH  19  20
BRANCH  19  23
HETATM   23  C           1     -18.140  -9.488  -3.475  0.00  0.00     0.200 C 
BRANCH  23  24
HETATM   24  O           1     -17.759 -10.383  -2.465  0.00  0.00    -0.398 OA
HETATM   25  H           1     -16.989 -10.830  -2.771  0.00  0.00     0.209 HD
ENDBRANCH  23  24
ENDBRANCH  19  23
ENDBRANCH  16  19
ENDBRANCH   1  15
BRANCH   1  26
HETATM   26  N           1     -21.912  -6.043  -4.021  0.00  0.00    -0.066 N 
HETATM   27  H           1     -22.291  -6.801  -3.409  0.00  0.00     0.275 HD
HETATM   28  H           1     -21.102  -5.585  -3.546  0.00  0.00     0.275 HD
HETATM   29  H           1     -22.659  -5.334  -4.199  0.00  0.00     0.275 HD
ENDBRANCH   1  26
TORSDOF 11
ENDMDL
MODEL 8
REMARK VINA RESULT:      -6.7      2.138      3.233
REMARK  11 active torsions:
REMARK  status: ('A' for Active; 'I' for Inactive)
REMARK    1  A    between atoms: O_3  and  P_4 
REMARK    2  A    between atoms: P_4  and  O_5 
REMARK    3  A    between atoms: O_5  and  C_6 
REMARK    4  A    between atoms: C_9  and  C_10 
REMARK    5  A    between atoms: C_10  and  C_11 
REMARK    6  A    between atoms: C_11  and  C_12 
REMARK    7  A    between atoms: C_11  and  N_24 
REMARK       I    between atoms: C_12  and  N_13 
REMARK    8  A    between atoms: N_13  and  C_17 
REMARK    9  A    between atoms: C_16  and  C_17 
REMARK   10  A    between atoms: C_17  and  C_18 
REMARK   11  A    between atoms: C_18  and  O_19 
ROOT
HETATM    1  C           1     -21.533  -6.566  -5.665  0.00  0.00     0.278 C 
ENDROOT
BRANCH   1   2
HETATM    2  C           1     -20.612  -5.416  -6.054  0.00  0.00     0.081 C 
BRANCH   2   3
HETATM    3  C           1     -21.068  -4.830  -7.354  0.00  0.00    -0.056 A 
HETATM    4  C           1     -20.247  -4.903  -8.479  0.00  0.00     0.010 A 
HETATM    5  C           1     -20.673  -4.358  -9.690  0.00  0.00     0.038 A 
HETATM    6  C           1     -21.920  -3.739  -9.776  0.00  0.00     0.081 A 
HETATM    7  C           1     -22.742  -3.666  -8.652  0.00  0.00     0.038 A 
HETATM    8  C           1     -22.316  -4.212  -7.440  0.00  0.00     0.010 A 
BRANCH   6   9
HETATM    9  O           1     -22.333  -3.209 -10.953  0.00  0.00    -0.247 OA
BRANCH   9  10
HETATM   10  P           1     -23.602  -3.889 -11.686  0.00  0.00     0.411 P 
HETATM   11  O           1     -23.695  -5.312 -11.291  0.00  0.00    -0.624 OA
HETATM   12  O           1     -24.839  -3.183 -11.284  0.00  0.00    -0.624 OA
BRANCH  10  13
HETATM   13  O           1     -23.420  -3.785 -13.287  0.00  0.00    -0.300 OA
HETATM   14  H           1     -22.502  -3.616 -13.417  0.00  0.00     0.223 HD
ENDBRANCH  10  13
ENDBRANCH   9  10
ENDBRANCH   6   9
ENDBRANCH   2   3
ENDBRANCH   1   2
BRANCH   1  15
HETATM   15  C           1     -20.714  -7.817  -5.456  0.00  0.00     0.249 C 
HETATM   16  N           1     -21.273  -8.906  -4.845  0.00  0.00    -0.343 N 
HETATM   17  H           1     -22.235  -8.873  -4.534  0.00  0.00     0.163 HD
HETATM   18  O           1     -19.565  -7.856  -5.828  0.00  0.00    -0.271 OA
BRANCH  16  19
HETATM   19  C           1     -20.487 -10.109  -4.644  0.00  0.00     0.209 C 
BRANCH  19  20
HETATM   20  C           1     -21.070 -11.233  -5.465  0.00  0.00     0.198 C 
HETATM   21  O           1     -21.300 -12.341  -4.932  0.00  0.00    -0.646 OA
HETATM   22  O           1     -21.323 -11.057  -6.675  0.00  0.00    -0.646 OA
ENDBRANCH  19  20
BRANCH  19  23
HETATM   23  C           1     -20.511 -10.490  -3.171  0.00  0.00     0.200 C 
BRANCH  23  24
HETATM   24  O           1     -19.399  -9.932  -2.525  0.00  0.00    -0.398 OA
HETATM   25  H           1     -18.680  -9.970  -3.133  0.00  0.00     0.209 HD
ENDBRANCH  23  24
ENDBRANCH  19  23
ENDBRANCH  16  19
ENDBRANCH   1  15
BRANCH   1  26
HETATM   26  N           1     -22.251  -6.223  -4.395  0.00  0.00    -0.066 N 
HETATM   27  H           1     -21.917  -6.845  -3.625  0.00  0.00     0.275 HD
HETATM   28  H           1     -22.058  -5.226  -4.145  0.00  0.00     0.275 HD
HETATM   29  H           1     -23.279  -6.356  -4.529  0.00  0.00     0.275 HD
ENDBRANCH   1  26
TORSDOF 11
ENDMDL
MODEL 9
REMARK VINA RESULT:      -6.4      2.474      3.652
REMARK  11 active torsions:
REMARK  status: ('A' for Active; 'I' for Inactive)
REMARK    1  A    between atoms: O_3  and  P_4 
REMARK    2  A    between atoms: P_4  and  O_5 
REMARK    3  A    between atoms: O_5  and  C_6 
REMARK    4  A    between atoms: C_9  and  C_10 
REMARK    5  A    between atoms: C_10  and  C_11 
REMARK    6  A    between atoms: C_11  and  C_12 
REMARK    7  A    between atoms: C_11  and  N_24 
REMARK       I    between atoms: C_12  and  N_13 
REMARK    8  A    between atoms: N_13  and  C_17 
REMARK    9  A    between atoms: C_16  and  C_17 
REMARK   10  A    between atoms: C_17  and  C_18 
REMARK   11  A    between atoms: C_18  and  O_19 
ROOT
HETATM    1  C           1     -21.456  -7.044  -4.933  0.00  0.00     0.278 C 
ENDROOT
BRANCH   1   2
HETATM    2  C           1     -20.405  -6.585  -5.935  0.00  0.00     0.081 C 
BRANCH   2   3
HETATM    3  C           1     -21.038  -5.675  -6.941  0.00  0.00    -0.056 A 
HETATM    4  C           1     -22.288  -5.111  -6.684  0.00  0.00     0.010 A 
HETATM    5  C           1     -22.877  -4.263  -7.621  0.00  0.00     0.038 A 
HETATM    6  C           1     -22.216  -3.979  -8.817  0.00  0.00     0.081 A 
HETATM    7  C           1     -20.967  -4.541  -9.074  0.00  0.00     0.038 A 
HETATM    8  C           1     -20.377  -5.390  -8.136  0.00  0.00     0.010 A 
BRANCH   6   9
HETATM    9  O           1     -22.789  -3.155  -9.727  0.00  0.00    -0.247 OA
BRANCH   9  10
HETATM   10  P           1     -24.058  -3.710 -10.559  0.00  0.00     0.411 P 
HETATM   11  O           1     -24.002  -5.187 -10.616  0.00  0.00    -0.624 OA
HETATM   12  O           1     -25.309  -3.289  -9.889  0.00  0.00    -0.624 OA
BRANCH  10  13
HETATM   13  O           1     -24.023  -3.112 -12.059  0.00  0.00    -0.300 OA
HETATM   14  H           1     -24.805  -2.592 -12.131  0.00  0.00     0.223 HD
ENDBRANCH  10  13
ENDBRANCH   9  10
ENDBRANCH   6   9
ENDBRANCH   2   3
ENDBRANCH   1   2
BRANCH   1  15
HETATM   15  C           1     -21.285  -8.519  -4.664  0.00  0.00     0.249 C 
HETATM   16  N           1     -20.558  -9.292  -5.529  0.00  0.00    -0.343 N 
HETATM   17  H           1     -20.136  -8.875  -6.348  0.00  0.00     0.163 HD
HETATM   18  O           1     -21.787  -9.018  -3.686  0.00  0.00    -0.271 OA
BRANCH  16  19
HETATM   19  C           1     -20.392 -10.710  -5.271  0.00  0.00     0.209 C 
BRANCH  19  20
HETATM   20  C           1     -18.922 -11.031  -5.156  0.00  0.00     0.198 C 
HETATM   21  O           1     -18.558 -12.150  -4.734  0.00  0.00    -0.646 OA
HETATM   22  O           1     -18.069 -10.179  -5.484  0.00  0.00    -0.646 OA
ENDBRANCH  19  20
BRANCH  19  23
HETATM   23  C           1     -20.998 -11.509  -6.416  0.00  0.00     0.200 C 
BRANCH  23  24
HETATM   24  O           1     -20.004 -11.802  -7.360  0.00  0.00    -0.398 OA
HETATM   25  H           1     -20.324 -11.508  -8.196  0.00  0.00     0.209 HD
ENDBRANCH  23  24
ENDBRANCH  19  23
ENDBRANCH  16  19
ENDBRANCH   1  15
BRANCH   1  26
HETATM   26  N           1     -21.292  -6.281  -3.653  0.00  0.00    -0.066 N 
HETATM   27  H           1     -22.145  -6.404  -3.061  0.00  0.00     0.275 HD
HETATM   28  H           1     -20.457  -6.642  -3.138  0.00  0.00     0.275 HD
HETATM   29  H           1     -21.160  -5.266  -3.866  0.00  0.00     0.275 HD
ENDBRANCH   1  26
TORSDOF 11
ENDMDL
