MODEL 1
REMARK VINA RESULT:      -6.1      0.000      0.000
REMARK  11 active torsions:
REMARK  status: ('A' for Active; 'I' for Inactive)
REMARK    1  A    between atoms: N_5  and  C_23 
REMARK       I    between atoms: C_6  and  N_7 
REMARK    2  A    between atoms: C_6  and  C_23 
REMARK    3  A    between atoms: N_7  and  C_14 
REMARK    4  A    between atoms: C_12  and  C_17 
REMARK    5  A    between atoms: C_12  and  C_13 
REMARK    6  A    between atoms: C_13  and  C_14 
REMARK    7  A    between atoms: C_14  and  C_15 
REMARK    8  A    between atoms: C_17  and  C_18 
REMARK    9  A    between atoms: C_18  and  N_20 
REMARK   10  A    between atoms: C_21  and  C_22 
REMARK   11  A    between atoms: C_22  and  C_23 
ROOT
HETATM    1  O           1     -21.651  -3.251  -7.331  0.00  0.00    -0.271 OA
HETATM    2  C           1     -21.596  -4.390  -7.727  0.00  0.00     0.249 C 
HETATM    3  N           1     -22.119  -4.716  -8.950  0.00  0.00    -0.345 N 
HETATM    4  H           1     -22.073  -5.670  -9.282  0.00  0.00     0.163 HD
ENDROOT
BRANCH   3   5
HETATM    5  C           1     -22.738  -3.692  -9.770  0.00  0.00     0.185 C 
BRANCH   5   6
HETATM    6  C           1     -22.285  -3.856 -11.214  0.00  0.00     0.036 C 
BRANCH   6   7
HETATM    7  C           1     -22.643  -2.605 -12.005  0.00  0.00     0.004 C 
BRANCH   7   8
HETATM    8  C           1     -23.657  -2.958 -13.085  0.00  0.00     0.027 C 
BRANCH   8   9
HETATM    9  C           1     -23.279  -2.259 -14.384  0.00  0.00     0.229 C 
BRANCH   9  10
HETATM   10  N           1     -24.008  -0.951 -14.480  0.00  0.00    -0.079 N 
HETATM   11  H           1     -24.878  -1.078 -15.046  0.00  0.00     0.274 HD
HETATM   12  H           1     -23.393  -0.244 -14.939  0.00  0.00     0.274 HD
HETATM   13  H           1     -24.261  -0.623 -13.521  0.00  0.00     0.274 HD
ENDBRANCH   9  10
ENDBRANCH   8   9
ENDBRANCH   7   8
ENDBRANCH   6   7
ENDBRANCH   5   6
BRANCH   5  14
HETATM   14  C           1     -24.239  -3.828  -9.694  0.00  0.00     0.196 C 
HETATM   15  O           1     -24.778  -4.934  -9.909  0.00  0.00    -0.646 OA
HETATM   16  O           1     -24.943  -2.833  -9.416  0.00  0.00    -0.646 OA
ENDBRANCH   5  14
ENDBRANCH   3   5
BRANCH   2  17
HETATM   17  C           1     -20.952  -5.456  -6.874  0.00  0.00     0.284 C 
BRANCH  17  18
HETATM   18  N           1     -19.803  -4.860  -6.114  0.00  0.00    -0.066 N 
HETATM   19  H           1     -19.122  -4.441  -6.787  0.00  0.00     0.275 HD
HETATM   20  H           1     -19.330  -5.606  -5.556  0.00  0.00     0.275 HD
HETATM   21  H           1     -20.159  -4.117  -5.471  0.00  0.00     0.275 HD
ENDBRANCH  17  18
BRANCH  17  22
HETATM   22  C           1     -21.976  -6.009  -5.893  0.00  0.00     0.155 C 
BRANCH  22  23
HETATM   23  C           1     -21.287  -6.393  -4.607  0.00  0.00     0.175 C 
HETATM   24  O           1     -21.522  -5.756  -3.558  0.00  0.00    -0.648 OA
HETATM   25  O           1     -20.480  -7.348  -4.591  0.00  0.00    -0.648 OA
ENDBRANCH  22  23
ENDBRANCH  17  22
ENDBRANCH   2  17
TORSDOF 11
ENDMDL
MODEL 2
REMARK VINA RESULT:      -5.9      2.547      7.374
REMARK  11 active torsions:
REMARK  status: ('A' for Active; 'I' for Inactive)
REMARK    1  A    between atoms: N_5  and  C_23 
REMARK       I    between atoms: C_6  and  N_7 
REMARK    2  A    between atoms: C_6  and  C_23 
REMARK    3  A    between atoms: N_7  and  C_14 
REMARK    4  A    between atoms: C_12  and  C_17 
REMARK    5  A    between atoms: C_12  and  C_13 
REMARK    6  A    between atoms: C_13  and  C_14 
REMARK    7  A    between atoms: C_14  and  C_15 
REMARK    8  A    between atoms: C_17  and  C_18 
REMARK    9  A    between atoms: C_18  and  N_20 
REMARK   10  A    between atoms: C_21  and  C_22 
REMARK   11  A    between atoms: C_22  and  C_23 
ROOT
HETATM    1  O           1     -21.688  -3.181  -8.766  0.00  0.00    -0.271 OA
HETATM    2  C           1     -22.431  -4.058  -8.396  0.00  0.00     0.249 C 
HETATM    3  N           1     -22.107  -4.812  -7.300  0.00  0.00    -0.345 N 
HETATM    4  H           1     -22.730  -5.546  -6.989  0.00  0.00     0.163 HD
ENDROOT
BRANCH   3   5
HETATM    5  C           1     -20.872  -4.558  -6.584  0.00  0.00     0.185 C 
BRANCH   5   6
HETATM    6  C           1     -20.922  -5.245  -5.226  0.00  0.00     0.036 C 
BRANCH   6   7
HETATM    7  C           1     -22.047  -6.272  -5.216  0.00  0.00     0.004 C 
BRANCH   7   8
HETATM    8  C           1     -21.884  -7.194  -4.016  0.00  0.00     0.027 C 
BRANCH   8   9
HETATM    9  C           1     -21.294  -6.410  -2.850  0.00  0.00     0.229 C 
BRANCH   9  10
HETATM   10  N           1     -22.401  -5.934  -1.956  0.00  0.00    -0.079 N 
HETATM   11  H           1     -22.909  -5.148  -2.420  0.00  0.00     0.274 HD
HETATM   12  H           1     -21.998  -5.604  -1.051  0.00  0.00     0.274 HD
HETATM   13  H           1     -23.065  -6.720  -1.775  0.00  0.00     0.274 HD
ENDBRANCH   9  10
ENDBRANCH   8   9
ENDBRANCH   7   8
ENDBRANCH   6   7
ENDBRANCH   5   6
BRANCH   5  14
HETATM   14  C           1     -19.710  -5.098  -7.380  0.00  0.00     0.196 C 
HETATM   15  O           1     -18.710  -4.380  -7.591  0.00  0.00    -0.646 OA
HETATM   16  O           1     -19.747  -6.265  -7.828  0.00  0.00    -0.646 OA
ENDBRANCH   5  14
ENDBRANCH   3   5
BRANCH   2  17
HETATM   17  C           1     -23.716  -4.323  -9.141  0.00  0.00     0.284 C 
BRANCH  17  18
HETATM   18  N           1     -24.632  -3.143  -8.993  0.00  0.00    -0.066 N 
HETATM   19  H           1     -25.607  -3.479  -8.824  0.00  0.00     0.275 HD
HETATM   20  H           1     -24.605  -2.570  -9.865  0.00  0.00     0.275 HD
HETATM   21  H           1     -24.320  -2.560  -8.183  0.00  0.00     0.275 HD
ENDBRANCH  17  18
BRANCH  17  22
HETATM   22  C           1     -23.412  -4.547 -10.616  0.00  0.00     0.155 C 
BRANCH  22  23
HETATM   23  C           1     -23.823  -3.328 -11.406  0.00  0.00     0.175 C 
HETATM   24  O           1     -22.976  -2.459 -11.700  0.00  0.00    -0.648 OA
HETATM   25  O           1     -25.012  -3.190 -11.766  0.00  0.00    -0.648 OA
ENDBRANCH  22  23
ENDBRANCH  17  22
ENDBRANCH   2  17
TORSDOF 11
ENDMDL
MODEL 3
REMARK VINA RESULT:      -5.6      2.672      7.879
REMARK  11 active torsions:
REMARK  status: ('A' for Active; 'I' for Inactive)
REMARK    1  A    between atoms: N_5  and  C_23 
REMARK       I    between atoms: C_6  and  N_7 
REMARK    2  A    between atoms: C_6  and  C_23 
REMARK    3  A    between atoms: N_7  and  C_14 
REMARK    4  A    between atoms: C_12  and  C_17 
REMARK    5  A    between atoms: C_12  and  C_13 
REMARK    6  A    between atoms: C_13  and  C_14 
REMARK    7  A    between atoms: C_14  and  C_15 
REMARK    8  A    between atoms: C_17  and  C_18 
REMARK    9  A    between atoms: C_18  and  N_20 
REMARK   10  A    between atoms: C_21  and  C_22 
REMARK   11  A    between atoms: C_22  and  C_23 
ROOT
HETATM    1  O           1     -20.195  -4.134  -7.007  0.00  0.00    -0.271 OA
HETATM    2  C           1     -21.347  -4.441  -7.201  0.00  0.00     0.249 C 
HETATM    3  N           1     -21.940  -5.399  -6.422  0.00  0.00    -0.345 N 
HETATM    4  H           1     -22.905  -5.655  -6.584  0.00  0.00     0.163 HD
ENDROOT
BRANCH   3   5
HETATM    5  C           1     -21.185  -6.045  -5.367  0.00  0.00     0.185 C 
BRANCH   5   6
HETATM    6  C           1     -22.108  -6.344  -4.193  0.00  0.00     0.036 C 
BRANCH   6   7
HETATM    7  C           1     -21.324  -6.249  -2.891  0.00  0.00     0.004 C 
BRANCH   7   8
HETATM    8  C           1     -22.284  -6.325  -1.712  0.00  0.00     0.027 C 
BRANCH   8   9
HETATM    9  C           1     -21.906  -7.504  -0.824  0.00  0.00     0.229 C 
BRANCH   9  10
HETATM   10  N           1     -20.590  -8.067  -1.273  0.00  0.00    -0.079 N 
HETATM   11  H           1     -19.871  -7.906  -0.531  0.00  0.00     0.274 HD
HETATM   12  H           1     -20.293  -7.594  -2.156  0.00  0.00     0.274 HD
HETATM   13  H           1     -20.691  -9.092  -1.445  0.00  0.00     0.274 HD
ENDBRANCH   9  10
ENDBRANCH   8   9
ENDBRANCH   7   8
ENDBRANCH   6   7
ENDBRANCH   5   6
BRANCH   5  14
HETATM   14  C           1     -20.597  -7.333  -5.886  0.00  0.00     0.196 C 
HETATM   15  O           1     -21.246  -8.397  -5.798  0.00  0.00    -0.646 OA
HETATM   16  O           1     -19.459  -7.337  -6.405  0.00  0.00    -0.646 OA
ENDBRANCH   5  14
ENDBRANCH   3   5
BRANCH   2  17
HETATM   17  C           1     -22.132  -3.768  -8.299  0.00  0.00     0.284 C 
BRANCH  17  18
HETATM   18  N           1     -21.564  -4.161  -9.632  0.00  0.00    -0.066 N 
HETATM   19  H           1     -20.533  -4.298  -9.542  0.00  0.00     0.275 HD
HETATM   20  H           1     -21.758  -3.407 -10.329  0.00  0.00     0.275 HD
HETATM   21  H           1     -22.008  -5.052  -9.950  0.00  0.00     0.275 HD
ENDBRANCH  17  18
BRANCH  17  22
HETATM   22  C           1     -23.589  -4.202  -8.221  0.00  0.00     0.155 C 
BRANCH  22  23
HETATM   23  C           1     -24.245  -4.014  -9.568  0.00  0.00     0.175 C 
HETATM   24  O           1     -24.389  -4.991 -10.334  0.00  0.00    -0.648 OA
HETATM   25  O           1     -24.644  -2.882  -9.915  0.00  0.00    -0.648 OA
ENDBRANCH  22  23
ENDBRANCH  17  22
ENDBRANCH   2  17
TORSDOF 11
ENDMDL
MODEL 4
REMARK VINA RESULT:      -5.5      3.063      8.096
REMARK  11 active torsions:
REMARK  status: ('A' for Active; 'I' for Inactive)
REMARK    1  A    between atoms: N_5  and  C_23 
REMARK       I    between atoms: C_6  and  N_7 
REMARK    2  A    between atoms: C_6  and  C_23 
REMARK    3  A    between atoms: N_7  and  C_14 
REMARK    4  A    between atoms: C_12  and  C_17 
REMARK    5  A    between atoms: C_12  and  C_13 
REMARK    6  A    between atoms: C_13  and  C_14 
REMARK    7  A    between atoms: C_14  and  C_15 
REMARK    8  A    between atoms: C_17  and  C_18 
REMARK    9  A    between atoms: C_18  and  N_20 
REMARK   10  A    between atoms: C_21  and  C_22 
REMARK   11  A    between atoms: C_22  and  C_23 
ROOT
HETATM    1  O           1     -20.466  -4.337  -6.081  0.00  0.00    -0.271 OA
HETATM    2  C           1     -21.067  -5.121  -6.777  0.00  0.00     0.249 C 
HETATM    3  N           1     -21.312  -6.390  -6.325  0.00  0.00    -0.345 N 
HETATM    4  H           1     -21.817  -7.045  -6.907  0.00  0.00     0.163 HD
ENDROOT
BRANCH   3   5
HETATM    5  C           1     -20.850  -6.794  -5.011  0.00  0.00     0.185 C 
BRANCH   5   6
HETATM    6  C           1     -21.987  -6.650  -4.008  0.00  0.00     0.036 C 
BRANCH   6   7
HETATM    7  C           1     -21.456  -6.030  -2.722  0.00  0.00     0.004 C 
BRANCH   7   8
HETATM    8  C           1     -22.211  -6.603  -1.531  0.00  0.00     0.027 C 
BRANCH   8   9
HETATM    9  C           1     -21.824  -8.063  -1.339  0.00  0.00     0.229 C 
BRANCH   9  10
HETATM   10  N           1     -20.331  -8.199  -1.403  0.00  0.00    -0.079 N 
HETATM   11  H           1     -19.984  -7.801  -2.305  0.00  0.00     0.274 HD
HETATM   12  H           1     -20.072  -9.208  -1.344  0.00  0.00     0.274 HD
HETATM   13  H           1     -19.900  -7.680  -0.605  0.00  0.00     0.274 HD
ENDBRANCH   9  10
ENDBRANCH   8   9
ENDBRANCH   7   8
ENDBRANCH   6   7
ENDBRANCH   5   6
BRANCH   5  14
HETATM   14  C           1     -20.398  -8.232  -5.058  0.00  0.00     0.196 C 
HETATM   15  O           1     -20.997  -9.052  -5.785  0.00  0.00    -0.646 OA
HETATM   16  O           1     -19.423  -8.604  -4.369  0.00  0.00    -0.646 OA
ENDBRANCH   5  14
ENDBRANCH   3   5
BRANCH   2  17
HETATM   17  C           1     -21.547  -4.700  -8.144  0.00  0.00     0.284 C 
BRANCH  17  18
HETATM   18  N           1     -22.399  -3.471  -8.018  0.00  0.00    -0.066 N 
HETATM   19  H           1     -23.406  -3.735  -8.110  0.00  0.00     0.275 HD
HETATM   20  H           1     -22.145  -2.793  -8.771  0.00  0.00     0.275 HD
HETATM   21  H           1     -22.238  -3.031  -7.084  0.00  0.00     0.275 HD
ENDBRANCH  17  18
BRANCH  17  22
HETATM   22  C           1     -20.349  -4.398  -9.033  0.00  0.00     0.155 C 
BRANCH  22  23
HETATM   23  C           1     -20.796  -4.319 -10.472  0.00  0.00     0.175 C 
HETATM   24  O           1     -19.968  -4.058 -11.371  0.00  0.00    -0.648 OA
HETATM   25  O           1     -21.996  -4.514 -10.765  0.00  0.00    -0.648 OA
ENDBRANCH  22  23
ENDBRANCH  17  22
ENDBRANCH   2  17
TORSDOF 11
ENDMDL
MODEL 5
REMARK VINA RESULT:      -5.4      3.002      4.087
REMARK  11 active torsions:
REMARK  status: ('A' for Active; 'I' for Inactive)
REMARK    1  A    between atoms: N_5  and  C_23 
REMARK       I    between atoms: C_6  and  N_7 
REMARK    2  A    between atoms: C_6  and  C_23 
REMARK    3  A    between atoms: N_7  and  C_14 
REMARK    4  A    between atoms: C_12  and  C_17 
REMARK    5  A    between atoms: C_12  and  C_13 
REMARK    6  A    between atoms: C_13  and  C_14 
REMARK    7  A    between atoms: C_14  and  C_15 
REMARK    8  A    between atoms: C_17  and  C_18 
REMARK    9  A    between atoms: C_18  and  N_20 
REMARK   10  A    between atoms: C_21  and  C_22 
REMARK   11  A    between atoms: C_22  and  C_23 
ROOT
HETATM    1  O           1     -21.097  -7.536  -6.434  0.00  0.00    -0.271 OA
HETATM    2  C           1     -21.578  -6.748  -5.655  0.00  0.00     0.249 C 
HETATM    3  N           1     -21.726  -5.435  -6.014  0.00  0.00    -0.345 N 
HETATM    4  H           1     -22.130  -4.775  -5.361  0.00  0.00     0.163 HD
ENDROOT
BRANCH   3   5
HETATM    5  C           1     -21.307  -4.990  -7.328  0.00  0.00     0.185 C 
BRANCH   5   6
HETATM    6  C           1     -22.231  -3.877  -7.806  0.00  0.00     0.036 C 
BRANCH   6   7
HETATM    7  C           1     -23.237  -4.443  -8.799  0.00  0.00     0.004 C 
BRANCH   7   8
HETATM    8  C           1     -23.027  -3.795 -10.161  0.00  0.00     0.027 C 
BRANCH   8   9
HETATM    9  C           1     -24.370  -3.338 -10.718  0.00  0.00     0.229 C 
BRANCH   9  10
HETATM   10  N           1     -25.451  -3.628  -9.720  0.00  0.00    -0.079 N 
HETATM   11  H           1     -26.286  -4.019 -10.215  0.00  0.00     0.274 HD
HETATM   12  H           1     -25.718  -2.745  -9.230  0.00  0.00     0.274 HD
HETATM   13  H           1     -25.103  -4.323  -9.022  0.00  0.00     0.274 HD
ENDBRANCH   9  10
ENDBRANCH   8   9
ENDBRANCH   7   8
ENDBRANCH   6   7
ENDBRANCH   5   6
BRANCH   5  14
HETATM   14  C           1     -19.892  -4.473  -7.256  0.00  0.00     0.196 C 
HETATM   15  O           1     -19.231  -4.607  -6.204  0.00  0.00    -0.646 OA
HETATM   16  O           1     -19.380  -3.910  -8.248  0.00  0.00    -0.646 OA
ENDBRANCH   5  14
ENDBRANCH   3   5
BRANCH   2  17
HETATM   17  C           1     -22.014  -7.211  -4.287  0.00  0.00     0.284 C 
BRANCH  17  18
HETATM   18  N           1     -21.571  -8.629  -4.075  0.00  0.00    -0.066 N 
HETATM   19  H           1     -20.686  -8.638  -3.520  0.00  0.00     0.275 HD
HETATM   20  H           1     -21.408  -9.085  -5.001  0.00  0.00     0.275 HD
HETATM   21  H           1     -22.313  -9.152  -3.556  0.00  0.00     0.275 HD
ENDBRANCH  17  18
BRANCH  17  22
HETATM   22  C           1     -21.386  -6.320  -3.225  0.00  0.00     0.155 C 
BRANCH  22  23
HETATM   23  C           1     -21.639  -6.909  -1.858  0.00  0.00     0.175 C 
HETATM   24  O           1     -22.647  -6.564  -1.206  0.00  0.00    -0.648 OA
HETATM   25  O           1     -20.838  -7.741  -1.379  0.00  0.00    -0.648 OA
ENDBRANCH  22  23
ENDBRANCH  17  22
ENDBRANCH   2  17
TORSDOF 11
ENDMDL
MODEL 6
REMARK VINA RESULT:      -5.2      3.982      6.259
REMARK  11 active torsions:
REMARK  status: ('A' for Active; 'I' for Inactive)
REMARK    1  A    between atoms: N_5  and  C_23 
REMARK       I    between atoms: C_6  and  N_7 
REMARK    2  A    between atoms: C_6  and  C_23 
REMARK    3  A    between atoms: N_7  and  C_14 
REMARK    4  A    between atoms: C_12  and  C_17 
REMARK    5  A    between atoms: C_12  and  C_13 
REMARK    6  A    between atoms: C_13  and  C_14 
REMARK    7  A    between atoms: C_14  and  C_15 
REMARK    8  A    between atoms: C_17  and  C_18 
REMARK    9  A    between atoms: C_18  and  N_20 
REMARK   10  A    between atoms: C_21  and  C_22 
REMARK   11  A    between atoms: C_22  and  C_23 
ROOT
HETATM    1  O           1     -19.635  -8.726  -3.757  0.00  0.00    -0.271 OA
HETATM    2  C           1     -20.291  -9.101  -4.699  0.00  0.00     0.249 C 
HETATM    3  N           1     -20.911  -8.186  -5.509  0.00  0.00    -0.345 N 
HETATM    4  H           1     -21.459  -8.500  -6.299  0.00  0.00     0.163 HD
ENDROOT
BRANCH   3   5
HETATM    5  C           1     -20.779  -6.768  -5.236  0.00  0.00     0.185 C 
BRANCH   5   6
HETATM    6  C           1     -20.681  -6.005  -6.550  0.00  0.00     0.036 C 
BRANCH   6   7
HETATM    7  C           1     -20.385  -4.539  -6.266  0.00  0.00     0.004 C 
BRANCH   7   8
HETATM    8  C           1     -21.171  -3.665  -7.233  0.00  0.00     0.027 C 
BRANCH   8   9
HETATM    9  C           1     -22.210  -4.513  -7.955  0.00  0.00     0.229 C 
BRANCH   9  10
HETATM   10  N           1     -23.568  -4.240  -7.379  0.00  0.00    -0.079 N 
HETATM   11  H           1     -24.098  -5.138  -7.298  0.00  0.00     0.274 HD
HETATM   12  H           1     -24.085  -3.584  -8.005  0.00  0.00     0.274 HD
HETATM   13  H           1     -23.464  -3.810  -6.433  0.00  0.00     0.274 HD
ENDBRANCH   9  10
ENDBRANCH   8   9
ENDBRANCH   7   8
ENDBRANCH   6   7
ENDBRANCH   5   6
BRANCH   5  14
HETATM   14  C           1     -21.985  -6.292  -4.465  0.00  0.00     0.196 C 
HETATM   15  O           1     -21.878  -6.004  -3.253  0.00  0.00    -0.646 OA
HETATM   16  O           1     -23.091  -6.185  -5.037  0.00  0.00    -0.646 OA
ENDBRANCH   5  14
ENDBRANCH   3   5
BRANCH   2  17
HETATM   17  C           1     -20.429 -10.576  -4.984  0.00  0.00     0.284 C 
BRANCH  17  18
HETATM   18  N           1     -21.006 -10.768  -6.355  0.00  0.00    -0.066 N 
HETATM   19  H           1     -20.933  -9.874  -6.891  0.00  0.00     0.275 HD
HETATM   20  H           1     -22.009 -11.047  -6.275  0.00  0.00     0.275 HD
HETATM   21  H           1     -20.475 -11.517  -6.855  0.00  0.00     0.275 HD
ENDBRANCH  17  18
BRANCH  17  22
HETATM   22  C           1     -19.059 -11.237  -4.913  0.00  0.00     0.155 C 
BRANCH  22  23
HETATM   23  C           1     -18.399 -11.177  -6.269  0.00  0.00     0.175 C 
HETATM   24  O           1     -18.338 -12.203  -6.979  0.00  0.00    -0.648 OA
HETATM   25  O           1     -17.915 -10.101  -6.681  0.00  0.00    -0.648 OA
ENDBRANCH  22  23
ENDBRANCH  17  22
ENDBRANCH   2  17
TORSDOF 11
ENDMDL
MODEL 7
REMARK VINA RESULT:      -5.1      4.604      9.058
REMARK  11 active torsions:
REMARK  status: ('A' for Active; 'I' for Inactive)
REMARK    1  A    between atoms: N_5  and  C_23 
REMARK       I    between atoms: C_6  and  N_7 
REMARK    2  A    between atoms: C_6  and  C_23 
REMARK    3  A    between atoms: N_7  and  C_14 
REMARK    4  A    between atoms: C_12  and  C_17 
REMARK    5  A    between atoms: C_12  and  C_13 
REMARK    6  A    between atoms: C_13  and  C_14 
REMARK    7  A    between atoms: C_14  and  C_15 
REMARK    8  A    between atoms: C_17  and  C_18 
REMARK    9  A    between atoms: C_18  and  N_20 
REMARK   10  A    between atoms: C_21  and  C_22 
REMARK   11  A    between atoms: C_22  and  C_23 
ROOT
HETATM    1  O           1     -21.259  -8.435  -4.980  0.00  0.00    -0.271 OA
HETATM    2  C           1     -20.842  -7.321  -4.770  0.00  0.00     0.249 C 
HETATM    3  N           1     -20.904  -6.793  -3.508  0.00  0.00    -0.345 N 
HETATM    4  H           1     -20.553  -5.861  -3.332  0.00  0.00     0.163 HD
ENDROOT
BRANCH   3   5
HETATM    5  C           1     -21.470  -7.572  -2.423  0.00  0.00     0.185 C 
BRANCH   5   6
HETATM    6  C           1     -20.346  -8.210  -1.617  0.00  0.00     0.036 C 
BRANCH   6   7
HETATM    7  C           1     -20.343  -9.715  -1.852  0.00  0.00     0.004 C 
BRANCH   7   8
HETATM    8  C           1     -21.777 -10.225  -1.903  0.00  0.00     0.027 C 
BRANCH   8   9
HETATM    9  C           1     -22.203 -10.684  -0.514  0.00  0.00     0.229 C 
BRANCH   9  10
HETATM   10  N           1     -23.535 -10.084  -0.175  0.00  0.00    -0.079 N 
HETATM   11  H           1     -24.230 -10.849  -0.014  0.00  0.00     0.274 HD
HETATM   12  H           1     -23.856  -9.482  -0.965  0.00  0.00     0.274 HD
HETATM   13  H           1     -23.447  -9.506   0.691  0.00  0.00     0.274 HD
ENDBRANCH   9  10
ENDBRANCH   8   9
ENDBRANCH   7   8
ENDBRANCH   6   7
ENDBRANCH   5   6
BRANCH   5  14
HETATM   14  C           1     -22.282  -6.669  -1.528  0.00  0.00     0.196 C 
HETATM   15  O           1     -22.367  -5.449  -1.783  0.00  0.00    -0.646 OA
HETATM   16  O           1     -22.869  -7.142  -0.531  0.00  0.00    -0.646 OA
ENDBRANCH   5  14
ENDBRANCH   3   5
BRANCH   2  17
HETATM   17  C           1     -20.253  -6.511  -5.899  0.00  0.00     0.284 C 
BRANCH  17  18
HETATM   18  N           1     -21.062  -6.729  -7.144  0.00  0.00    -0.066 N 
HETATM   19  H           1     -20.500  -6.443  -7.977  0.00  0.00     0.275 HD
HETATM   20  H           1     -21.934  -6.156  -7.098  0.00  0.00     0.275 HD
HETATM   21  H           1     -21.314  -7.740  -7.224  0.00  0.00     0.275 HD
ENDBRANCH  17  18
BRANCH  17  22
HETATM   22  C           1     -20.277  -5.034  -5.531  0.00  0.00     0.155 C 
BRANCH  22  23
HETATM   23  C           1     -20.431  -4.205  -6.782  0.00  0.00     0.175 C 
HETATM   24  O           1     -21.492  -3.577  -6.989  0.00  0.00    -0.648 OA
HETATM   25  O           1     -19.498  -4.146  -7.611  0.00  0.00    -0.648 OA
ENDBRANCH  22  23
ENDBRANCH  17  22
ENDBRANCH   2  17
TORSDOF 11
ENDMDL
MODEL 8
REMARK VINA RESULT:      -5.0      4.990      8.932
REMARK  11 active torsions:
REMARK  status: ('A' for Active; 'I' for Inactive)
REMARK    1  A    between atoms: N_5  and  C_23 
REMARK       I    between atoms: C_6  and  N_7 
REMARK    2  A    between atoms: C_6  and  C_23 
REMARK    3  A    between atoms: N_7  and  C_14 
REMARK    4  A    between atoms: C_12  and  C_17 
REMARK    5  A    between atoms: C_12  and  C_13 
REMARK    6  A    between atoms: C_13  and  C_14 
REMARK    7  A    between atoms: C_14  and  C_15 
REMARK    8  A    between atoms: C_17  and  C_18 
REMARK    9  A    between atoms: C_18  and  N_20 
REMARK   10  A    between atoms: C_21  and  C_22 
REMARK   11  A    between atoms: C_22  and  C_23 
ROOT
HETATM    1  O           1     -19.914  -8.452  -5.618  0.00  0.00    -0.271 OA
HETATM    2  C           1     -20.927  -7.864  -5.322  0.00  0.00     0.249 C 
HETATM    3  N           1     -21.550  -8.129  -4.132  0.00  0.00    -0.345 N 
HETATM    4  H           1     -22.397  -7.635  -3.884  0.00  0.00     0.163 HD
ENDROOT
BRANCH   3   5
HETATM    5  C           1     -20.994  -9.116  -3.227  0.00  0.00     0.185 C 
BRANCH   5   6
HETATM    6  C           1     -20.772  -8.482  -1.860  0.00  0.00     0.036 C 
BRANCH   6   7
HETATM    7  C           1     -21.316  -7.059  -1.865  0.00  0.00     0.004 C 
BRANCH   7   8
HETATM    8  C           1     -22.386  -6.919  -0.791  0.00  0.00     0.027 C 
BRANCH   8   9
HETATM    9  C           1     -22.186  -7.996   0.268  0.00  0.00     0.229 C 
BRANCH   9  10
HETATM   10  N           1     -23.409  -8.862   0.339  0.00  0.00    -0.079 N 
HETATM   11  H           1     -23.869  -8.738   1.271  0.00  0.00     0.274 HD
HETATM   12  H           1     -23.135  -9.861   0.215  0.00  0.00     0.274 HD
HETATM   13  H           1     -24.075  -8.586  -0.417  0.00  0.00     0.274 HD
ENDBRANCH   9  10
ENDBRANCH   8   9
ENDBRANCH   7   8
ENDBRANCH   6   7
ENDBRANCH   5   6
BRANCH   5  14
HETATM   14  C           1     -21.953 -10.273  -3.096  0.00  0.00     0.196 C 
HETATM   15  O           1     -22.435 -10.562  -1.980  0.00  0.00    -0.646 OA
HETATM   16  O           1     -22.266 -10.943  -4.104  0.00  0.00    -0.646 OA
ENDBRANCH   5  14
ENDBRANCH   3   5
BRANCH   2  17
HETATM   17  C           1     -21.505  -6.837  -6.265  0.00  0.00     0.284 C 
BRANCH  17  18
HETATM   18  N           1     -22.452  -5.948  -5.514  0.00  0.00    -0.066 N 
HETATM   19  H           1     -23.350  -5.871  -6.043  0.00  0.00     0.275 HD
HETATM   20  H           1     -22.028  -4.999  -5.406  0.00  0.00     0.275 HD
HETATM   21  H           1     -22.638  -6.356  -4.570  0.00  0.00     0.275 HD
ENDBRANCH  17  18
BRANCH  17  22
HETATM   22  C           1     -20.380  -5.997  -6.853  0.00  0.00     0.155 C 
BRANCH  22  23
HETATM   23  C           1     -20.431  -4.605  -6.270  0.00  0.00     0.175 C 
HETATM   24  O           1     -19.959  -4.386  -5.134  0.00  0.00    -0.648 OA
HETATM   25  O           1     -20.946  -3.673  -6.925  0.00  0.00    -0.648 OA
ENDBRANCH  22  23
ENDBRANCH  17  22
ENDBRANCH   2  17
TORSDOF 11
ENDMDL
MODEL 9
REMARK VINA RESULT:      -4.9      4.088      6.581
REMARK  11 active torsions:
REMARK  status: ('A' for Active; 'I' for Inactive)
REMARK    1  A    between atoms: N_5  and  C_23 
REMARK       I    between atoms: C_6  and  N_7 
REMARK    2  A    between atoms: C_6  and  C_23 
REMARK    3  A    between atoms: N_7  and  C_14 
REMARK    4  A    between atoms: C_12  and  C_17 
REMARK    5  A    between atoms: C_12  and  C_13 
REMARK    6  A    between atoms: C_13  and  C_14 
REMARK    7  A    between atoms: C_14  and  C_15 
REMARK    8  A    between atoms: C_17  and  C_18 
REMARK    9  A    between atoms: C_18  and  N_20 
REMARK   10  A    between atoms: C_21  and  C_22 
REMARK   11  A    between atoms: C_22  and  C_23 
ROOT
HETATM    1  O           1     -22.623  -6.218  -1.649  0.00  0.00    -0.271 OA
HETATM    2  C           1     -21.698  -6.979  -1.800  0.00  0.00     0.249 C 
HETATM    3  N           1     -20.995  -6.978  -2.976  0.00  0.00    -0.345 N 
HETATM    4  H           1     -20.219  -7.615  -3.102  0.00  0.00     0.163 HD
ENDROOT
BRANCH   3   5
HETATM    5  C           1     -21.362  -6.063  -4.039  0.00  0.00     0.185 C 
BRANCH   5   6
HETATM    6  C           1     -20.137  -5.756  -4.890  0.00  0.00     0.036 C 
BRANCH   6   7
HETATM    7  C           1     -20.397  -4.512  -5.728  0.00  0.00     0.004 C 
BRANCH   7   8
HETATM    8  C           1     -20.077  -4.805  -7.187  0.00  0.00     0.027 C 
BRANCH   8   9
HETATM    9  C           1     -21.375  -4.941  -7.974  0.00  0.00     0.229 C 
BRANCH   9  10
HETATM   10  N           1     -22.414  -4.032  -7.389  0.00  0.00    -0.079 N 
HETATM   11  H           1     -22.283  -3.976  -6.353  0.00  0.00     0.274 HD
HETATM   12  H           1     -23.364  -4.409  -7.601  0.00  0.00     0.274 HD
HETATM   13  H           1     -22.316  -3.079  -7.804  0.00  0.00     0.274 HD
ENDBRANCH   9  10
ENDBRANCH   8   9
ENDBRANCH   7   8
ENDBRANCH   6   7
ENDBRANCH   5   6
BRANCH   5  14
HETATM   14  C           1     -22.427  -6.696  -4.900  0.00  0.00     0.196 C 
HETATM   15  O           1     -23.459  -6.053  -5.191  0.00  0.00    -0.646 OA
HETATM   16  O           1     -22.279  -7.863  -5.323  0.00  0.00    -0.646 OA
ENDBRANCH   5  14
ENDBRANCH   3   5
BRANCH   2  17
HETATM   17  C           1     -21.316  -7.931  -0.694  0.00  0.00     0.284 C 
BRANCH  17  18
HETATM   18  N           1     -22.346  -7.870   0.395  0.00  0.00    -0.066 N 
HETATM   19  H           1     -22.984  -8.694   0.317  0.00  0.00     0.275 HD
HETATM   20  H           1     -22.900  -6.989   0.301  0.00  0.00     0.275 HD
HETATM   21  H           1     -21.871  -7.884   1.326  0.00  0.00     0.275 HD
ENDBRANCH  17  18
BRANCH  17  22
HETATM   22  C           1     -21.244  -9.349  -1.245  0.00  0.00     0.155 C 
BRANCH  22  23
HETATM   23  C           1     -22.183 -10.240  -0.468  0.00  0.00     0.175 C 
HETATM   24  O           1     -21.767 -10.865   0.531  0.00  0.00    -0.648 OA
HETATM   25  O           1     -23.375 -10.352  -0.825  0.00  0.00    -0.648 OA
ENDBRANCH  22  23
ENDBRANCH  17  22
ENDBRANCH   2  17
TORSDOF 11
ENDMDL
