MODEL 1
REMARK VINA RESULT:      -5.5      0.000      0.000
REMARK  8 active torsions:
REMARK  status: ('A' for Active; 'I' for Inactive)
REMARK    1  A    between atoms: N_3  and  C_4 
REMARK       I    between atoms: N_3  and  C_20 
REMARK    2  A    between atoms: C_4  and  C_5 
REMARK    3  A    between atoms: C_4  and  C_11 
REMARK    4  A    between atoms: C_5  and  C_6 
REMARK    5  A    between atoms: C_6  and  Se_15 
REMARK    6  A    between atoms: C_8  and  C_12 
REMARK    7  A    between atoms: N_9  and  C_12 
REMARK    8  A    between atoms: C_12  and  C_20 
ROOT
HETATM    1  H           1     -20.846  -5.762  -8.683  0.00  0.00     0.163 HD
HETATM    2  N           1     -21.521  -5.295  -8.092  0.00  0.00    -0.345 N 
HETATM    3  O           1     -23.402  -4.099  -7.948  0.00  0.00    -0.271 OA
HETATM    4  C           1     -22.596  -4.658  -8.653  0.00  0.00     0.249 C 
ENDROOT
BRANCH   2   5
HETATM    5  C           1     -21.351  -5.299  -6.653  0.00  0.00     0.185 C 
BRANCH   5   6
HETATM    6  C           1     -21.418  -6.732  -6.139  0.00  0.00     0.036 C 
BRANCH   6   7
HETATM    7  C           1     -22.296  -6.784  -4.895  0.00  0.00     0.003 C 
BRANCH   7   8
HETATM    8 Se           1     -21.239  -7.407  -3.379  0.00  0.00     0.000 Se
HETATM    9  C           1     -22.126  -6.257  -2.079  0.00  0.00     0.000 C 
ENDBRANCH   7   8
ENDBRANCH   6   7
ENDBRANCH   5   6
BRANCH   5  10
HETATM   10  C           1     -20.012  -4.700  -6.303  0.00  0.00     0.196 C 
HETATM   11  O           1     -19.170  -4.485  -7.201  0.00  0.00    -0.646 OA
HETATM   12  O           1     -19.744  -4.419  -5.115  0.00  0.00    -0.646 OA
ENDBRANCH   5  10
ENDBRANCH   2   5
BRANCH   4  13
HETATM   13  C           1     -22.772  -4.653 -10.152  0.00  0.00     0.278 C 
BRANCH  13  14
HETATM   14  C           1     -22.062  -3.441 -10.743  0.00  0.00     0.017 C 
HETATM   15  C           1     -20.646  -3.830 -11.147  0.00  0.00     0.012 C 
HETATM   16  C           1     -22.824  -2.954 -11.968  0.00  0.00     0.012 C 
ENDBRANCH  13  14
BRANCH  13  17
HETATM   17  N           1     -24.233  -4.586 -10.483  0.00  0.00    -0.066 N 
HETATM   18  H           1     -24.364  -4.072 -11.384  0.00  0.00     0.275 HD
HETATM   19  H           1     -24.614  -5.554 -10.576  0.00  0.00     0.275 HD
HETATM   20  H           1     -24.741  -4.083  -9.719  0.00  0.00     0.275 HD
ENDBRANCH  13  17
ENDBRANCH   4  13
TORSDOF 8
ENDMDL
MODEL 2
REMARK VINA RESULT:      -5.3     10.391     12.585
REMARK  8 active torsions:
REMARK  status: ('A' for Active; 'I' for Inactive)
REMARK    1  A    between atoms: N_3  and  C_4 
REMARK       I    between atoms: N_3  and  C_20 
REMARK    2  A    between atoms: C_4  and  C_5 
REMARK    3  A    between atoms: C_4  and  C_11 
REMARK    4  A    between atoms: C_5  and  C_6 
REMARK    5  A    between atoms: C_6  and  Se_15 
REMARK    6  A    between atoms: C_8  and  C_12 
REMARK    7  A    between atoms: N_9  and  C_12 
REMARK    8  A    between atoms: C_12  and  C_20 
ROOT
HETATM    1  H           1     -25.773  -7.274 -18.286  0.00  0.00     0.163 HD
HETATM    2  N           1     -26.530  -6.613 -18.176  0.00  0.00    -0.345 N 
HETATM    3  O           1     -28.025  -5.269 -19.149  0.00  0.00    -0.271 OA
HETATM    4  C           1     -27.122  -6.060 -19.280  0.00  0.00     0.249 C 
ENDROOT
BRANCH   2   5
HETATM    5  C           1     -26.988  -6.249 -16.849  0.00  0.00     0.185 C 
BRANCH   5   6
HETATM    6  C           1     -28.163  -7.137 -16.458  0.00  0.00     0.036 C 
BRANCH   6   7
HETATM    7  C           1     -29.254  -6.284 -15.825  0.00  0.00     0.003 C 
BRANCH   7   8
HETATM    8 Se           1     -30.746  -6.109 -17.068  0.00  0.00     0.000 Se
HETATM    9  C           1     -30.235  -7.644 -18.155  0.00  0.00     0.000 C 
ENDBRANCH   7   8
ENDBRANCH   6   7
ENDBRANCH   5   6
BRANCH   5  10
HETATM   10  C           1     -25.865  -6.436 -15.861  0.00  0.00     0.196 C 
HETATM   11  O           1     -25.730  -7.527 -15.266  0.00  0.00    -0.646 OA
HETATM   12  O           1     -25.068  -5.500 -15.636  0.00  0.00    -0.646 OA
ENDBRANCH   5  10
ENDBRANCH   2   5
BRANCH   4  13
HETATM   13  C           1     -26.643  -6.437 -20.661  0.00  0.00     0.278 C 
BRANCH  13  14
HETATM   14  C           1     -26.261  -7.912 -20.680  0.00  0.00     0.017 C 
HETATM   15  C           1     -27.415  -8.728 -21.248  0.00  0.00     0.012 C 
HETATM   16  C           1     -25.026  -8.104 -21.550  0.00  0.00     0.012 C 
ENDBRANCH  13  14
BRANCH  13  17
HETATM   17  N           1     -25.447  -5.607 -21.019  0.00  0.00    -0.066 N 
HETATM   18  H           1     -25.763  -4.669 -21.357  0.00  0.00     0.275 HD
HETATM   19  H           1     -24.841  -5.486 -20.176  0.00  0.00     0.275 HD
HETATM   20  H           1     -24.904  -6.084 -21.775  0.00  0.00     0.275 HD
ENDBRANCH  13  17
ENDBRANCH   4  13
TORSDOF 8
ENDMDL
MODEL 3
REMARK VINA RESULT:      -5.1      4.404      7.827
REMARK  8 active torsions:
REMARK  status: ('A' for Active; 'I' for Inactive)
REMARK    1  A    between atoms: N_3  and  C_4 
REMARK       I    between atoms: N_3  and  C_20 
REMARK    2  A    between atoms: C_4  and  C_5 
REMARK    3  A    between atoms: C_4  and  C_11 
REMARK    4  A    between atoms: C_5  and  C_6 
REMARK    5  A    between atoms: C_6  and  Se_15 
REMARK    6  A    between atoms: C_8  and  C_12 
REMARK    7  A    between atoms: N_9  and  C_12 
REMARK    8  A    between atoms: C_12  and  C_20 
ROOT
HETATM    1  H           1     -20.443  -6.842  -3.231  0.00  0.00     0.163 HD
HETATM    2  N           1     -20.794  -7.786  -3.325  0.00  0.00    -0.345 N 
HETATM    3  O           1     -21.764  -9.550  -2.358  0.00  0.00    -0.271 OA
HETATM    4  C           1     -21.345  -8.423  -2.245  0.00  0.00     0.249 C 
ENDROOT
BRANCH   2   5
HETATM    5  C           1     -20.714  -8.465  -4.604  0.00  0.00     0.185 C 
BRANCH   5   6
HETATM    6  C           1     -21.260  -7.555  -5.696  0.00  0.00     0.036 C 
BRANCH   6   7
HETATM    7  C           1     -21.608  -6.198  -5.099  0.00  0.00     0.003 C 
BRANCH   7   8
HETATM    8 Se           1     -20.323  -4.867  -5.715  0.00  0.00     0.000 Se
HETATM    9  C           1     -20.059  -5.691  -7.462  0.00  0.00     0.000 C 
ENDBRANCH   7   8
ENDBRANCH   6   7
ENDBRANCH   5   6
BRANCH   5  10
HETATM   10  C           1     -19.275  -8.805  -4.902  0.00  0.00     0.196 C 
HETATM   11  O           1     -18.864  -8.802  -6.082  0.00  0.00    -0.646 OA
HETATM   12  O           1     -18.493  -9.089  -3.969  0.00  0.00    -0.646 OA
ENDBRANCH   5  10
ENDBRANCH   2   5
BRANCH   4  13
HETATM   13  C           1     -21.428  -7.715  -0.914  0.00  0.00     0.278 C 
BRANCH  13  14
HETATM   14  C           1     -21.989  -8.669   0.133  0.00  0.00     0.017 C 
HETATM   15  C           1     -21.053  -8.714   1.333  0.00  0.00     0.012 C 
HETATM   16  C           1     -23.362  -8.182   0.578  0.00  0.00     0.012 C 
ENDBRANCH  13  14
BRANCH  13  17
HETATM   17  N           1     -22.329  -6.523  -1.038  0.00  0.00    -0.066 N 
HETATM   18  H           1     -22.641  -6.221  -0.087  0.00  0.00     0.275 HD
HETATM   19  H           1     -21.810  -5.741  -1.498  0.00  0.00     0.275 HD
HETATM   20  H           1     -23.164  -6.775  -1.614  0.00  0.00     0.275 HD
ENDBRANCH  13  17
ENDBRANCH   4  13
TORSDOF 8
ENDMDL
MODEL 4
REMARK VINA RESULT:      -5.0      2.914      6.464
REMARK  8 active torsions:
REMARK  status: ('A' for Active; 'I' for Inactive)
REMARK    1  A    between atoms: N_3  and  C_4 
REMARK       I    between atoms: N_3  and  C_20 
REMARK    2  A    between atoms: C_4  and  C_5 
REMARK    3  A    between atoms: C_4  and  C_11 
REMARK    4  A    between atoms: C_5  and  C_6 
REMARK    5  A    between atoms: C_6  and  Se_15 
REMARK    6  A    between atoms: C_8  and  C_12 
REMARK    7  A    between atoms: N_9  and  C_12 
REMARK    8  A    between atoms: C_12  and  C_20 
ROOT
HETATM    1  H           1     -22.471  -5.526  -5.139  0.00  0.00     0.163 HD
HETATM    2  N           1     -21.766  -6.033  -5.657  0.00  0.00    -0.345 N 
HETATM    3  O           1     -20.456  -7.836  -5.804  0.00  0.00    -0.271 OA
HETATM    4  C           1     -21.299  -7.231  -5.186  0.00  0.00     0.249 C 
ENDROOT
BRANCH   2   5
HETATM    5  C           1     -21.248  -5.491  -6.898  0.00  0.00     0.185 C 
BRANCH   5   6
HETATM    6  C           1     -22.250  -4.499  -7.475  0.00  0.00     0.036 C 
BRANCH   6   7
HETATM    7  C           1     -22.268  -4.621  -8.993  0.00  0.00     0.003 C 
BRANCH   7   8
HETATM    8 Se           1     -23.926  -3.864  -9.686  0.00  0.00     0.000 Se
HETATM    9  C           1     -23.584  -4.387 -11.532  0.00  0.00     0.000 C 
ENDBRANCH   7   8
ENDBRANCH   6   7
ENDBRANCH   5   6
BRANCH   5  10
HETATM   10  C           1     -19.940  -4.790  -6.633  0.00  0.00     0.196 C 
HETATM   11  O           1     -19.106  -4.651  -7.554  0.00  0.00    -0.646 OA
HETATM   12  O           1     -19.688  -4.346  -5.492  0.00  0.00    -0.646 OA
ENDBRANCH   5  10
ENDBRANCH   2   5
BRANCH   4  13
HETATM   13  C           1     -21.838  -7.794  -3.893  0.00  0.00     0.278 C 
BRANCH  13  14
HETATM   14  C           1     -21.157  -7.105  -2.717  0.00  0.00     0.017 C 
HETATM   15  C           1     -22.179  -6.270  -1.956  0.00  0.00     0.012 C 
HETATM   16  C           1     -20.567  -8.156  -1.786  0.00  0.00     0.012 C 
ENDBRANCH  13  14
BRANCH  13  17
HETATM   17  N           1     -21.562  -9.267  -3.837  0.00  0.00    -0.066 N 
HETATM   18  H           1     -21.789  -9.628  -2.883  0.00  0.00     0.275 HD
HETATM   19  H           1     -22.153  -9.759  -4.544  0.00  0.00     0.275 HD
HETATM   20  H           1     -20.552  -9.441  -4.044  0.00  0.00     0.275 HD
ENDBRANCH  13  17
ENDBRANCH   4  13
TORSDOF 8
ENDMDL
MODEL 5
REMARK VINA RESULT:      -4.9      2.809      4.193
REMARK  8 active torsions:
REMARK  status: ('A' for Active; 'I' for Inactive)
REMARK    1  A    between atoms: N_3  and  C_4 
REMARK       I    between atoms: N_3  and  C_20 
REMARK    2  A    between atoms: C_4  and  C_5 
REMARK    3  A    between atoms: C_4  and  C_11 
REMARK    4  A    between atoms: C_5  and  C_6 
REMARK    5  A    between atoms: C_6  and  Se_15 
REMARK    6  A    between atoms: C_8  and  C_12 
REMARK    7  A    between atoms: N_9  and  C_12 
REMARK    8  A    between atoms: C_12  and  C_20 
ROOT
HETATM    1  H           1     -19.987  -6.344  -5.069  0.00  0.00     0.163 HD
HETATM    2  N           1     -20.998  -6.372  -5.058  0.00  0.00    -0.345 N 
HETATM    3  O           1     -22.923  -5.554  -5.842  0.00  0.00    -0.271 OA
HETATM    4  C           1     -21.715  -5.521  -5.855  0.00  0.00     0.249 C 
ENDROOT
BRANCH   2   5
HETATM    5  C           1     -21.688  -7.314  -4.198  0.00  0.00     0.185 C 
BRANCH   5   6
HETATM    6  C           1     -21.025  -8.681  -4.309  0.00  0.00     0.036 C 
BRANCH   6   7
HETATM    7  C           1     -19.700  -8.544  -5.047  0.00  0.00     0.003 C 
BRANCH   7   8
HETATM    8 Se           1     -18.313  -9.515  -4.079  0.00  0.00     0.000 Se
HETATM    9  C           1     -17.306  -9.996  -5.676  0.00  0.00     0.000 C 
ENDBRANCH   7   8
ENDBRANCH   6   7
ENDBRANCH   5   6
BRANCH   5  10
HETATM   10  C           1     -21.617  -6.834  -2.770  0.00  0.00     0.196 C 
HETATM   11  O           1     -20.808  -7.357  -1.973  0.00  0.00    -0.646 OA
HETATM   12  O           1     -22.368  -5.913  -2.382  0.00  0.00    -0.646 OA
ENDBRANCH   5  10
ENDBRANCH   2   5
BRANCH   4  13
HETATM   13  C           1     -20.997  -4.540  -6.750  0.00  0.00     0.278 C 
BRANCH  13  14
HETATM   14  C           1     -21.372  -4.809  -8.202  0.00  0.00     0.017 C 
HETATM   15  C           1     -22.384  -3.769  -8.666  0.00  0.00     0.012 C 
HETATM   16  C           1     -20.124  -4.726  -9.071  0.00  0.00     0.012 C 
ENDBRANCH  13  14
BRANCH  13  17
HETATM   17  N           1     -19.516  -4.700  -6.578  0.00  0.00    -0.066 N 
HETATM   18  H           1     -19.176  -5.476  -7.191  0.00  0.00     0.275 HD
HETATM   19  H           1     -19.036  -3.811  -6.845  0.00  0.00     0.275 HD
HETATM   20  H           1     -19.303  -4.927  -5.580  0.00  0.00     0.275 HD
ENDBRANCH  13  17
ENDBRANCH   4  13
TORSDOF 8
ENDMDL
MODEL 6
REMARK VINA RESULT:      -4.9      2.454      3.440
REMARK  8 active torsions:
REMARK  status: ('A' for Active; 'I' for Inactive)
REMARK    1  A    between atoms: N_3  and  C_4 
REMARK       I    between atoms: N_3  and  C_20 
REMARK    2  A    between atoms: C_4  and  C_5 
REMARK    3  A    between atoms: C_4  and  C_11 
REMARK    4  A    between atoms: C_5  and  C_6 
REMARK    5  A    between atoms: C_6  and  Se_15 
REMARK    6  A    between atoms: C_8  and  C_12 
REMARK    7  A    between atoms: N_9  and  C_12 
REMARK    8  A    between atoms: C_12  and  C_20 
ROOT
HETATM    1  H           1     -21.594  -7.261  -6.687  0.00  0.00     0.163 HD
HETATM    2  N           1     -21.147  -6.646  -6.020  0.00  0.00    -0.345 N 
HETATM    3  O           1     -20.487  -4.577  -5.499  0.00  0.00    -0.271 OA
HETATM    4  C           1     -21.022  -5.311  -6.296  0.00  0.00     0.249 C 
ENDROOT
BRANCH   2   5
HETATM    5  C           1     -20.639  -7.179  -4.771  0.00  0.00     0.185 C 
BRANCH   5   6
HETATM    6  C           1     -21.782  -7.308  -3.772  0.00  0.00     0.036 C 
BRANCH   6   7
HETATM    7  C           1     -21.586  -6.305  -2.643  0.00  0.00     0.003 C 
BRANCH   7   8
HETATM    8 Se           1     -22.280  -7.053  -0.982  0.00  0.00     0.000 Se
HETATM    9  C           1     -20.948  -8.471  -0.872  0.00  0.00     0.000 C 
ENDBRANCH   7   8
ENDBRANCH   6   7
ENDBRANCH   5   6
BRANCH   5  10
HETATM   10  C           1     -20.027  -8.535  -5.015  0.00  0.00     0.196 C 
HETATM   11  O           1     -19.134  -8.673  -5.879  0.00  0.00    -0.646 OA
HETATM   12  O           1     -20.412  -9.523  -4.354  0.00  0.00    -0.646 OA
ENDBRANCH   5  10
ENDBRANCH   2   5
BRANCH   4  13
HETATM   13  C           1     -21.550  -4.757  -7.597  0.00  0.00     0.278 C 
BRANCH  13  14
HETATM   14  C           1     -20.479  -4.879  -8.673  0.00  0.00     0.017 C 
HETATM   15  C           1     -21.013  -4.323  -9.987  0.00  0.00     0.012 C 
HETATM   16  C           1     -19.245  -4.092  -8.252  0.00  0.00     0.012 C 
ENDBRANCH  13  14
BRANCH  13  17
HETATM   17  N           1     -21.911  -3.313  -7.414  0.00  0.00    -0.066 N 
HETATM   18  H           1     -21.091  -2.714  -7.660  0.00  0.00     0.275 HD
HETATM   19  H           1     -22.716  -3.073  -8.036  0.00  0.00     0.275 HD
HETATM   20  H           1     -22.178  -3.144  -6.417  0.00  0.00     0.275 HD
ENDBRANCH  13  17
ENDBRANCH   4  13
TORSDOF 8
ENDMDL
MODEL 7
REMARK VINA RESULT:      -4.8      6.046      9.901
REMARK  8 active torsions:
REMARK  status: ('A' for Active; 'I' for Inactive)
REMARK    1  A    between atoms: N_3  and  C_4 
REMARK       I    between atoms: N_3  and  C_20 
REMARK    2  A    between atoms: C_4  and  C_5 
REMARK    3  A    between atoms: C_4  and  C_11 
REMARK    4  A    between atoms: C_5  and  C_6 
REMARK    5  A    between atoms: C_6  and  Se_15 
REMARK    6  A    between atoms: C_8  and  C_12 
REMARK    7  A    between atoms: N_9  and  C_12 
REMARK    8  A    between atoms: C_12  and  C_20 
ROOT
HETATM    1  H           1     -22.108  -9.840  -1.763  0.00  0.00     0.163 HD
HETATM    2  N           1     -21.616  -9.552  -0.927  0.00  0.00    -0.345 N 
HETATM    3  O           1     -20.743 -10.126   1.047  0.00  0.00    -0.271 OA
HETATM    4  C           1     -21.329 -10.470   0.049  0.00  0.00     0.249 C 
ENDROOT
BRANCH   2   5
HETATM    5  C           1     -21.215  -8.169  -0.761  0.00  0.00     0.185 C 
BRANCH   5   6
HETATM    6  C           1     -20.428  -7.719  -1.985  0.00  0.00     0.036 C 
BRANCH   6   7
HETATM    7  C           1     -20.415  -8.837  -3.019  0.00  0.00     0.003 C 
BRANCH   7   8
HETATM    8 Se           1     -21.509  -8.321  -4.548  0.00  0.00     0.000 Se
HETATM    9  C           1     -21.087  -6.423  -4.417  0.00  0.00     0.000 C 
ENDBRANCH   7   8
ENDBRANCH   6   7
ENDBRANCH   5   6
BRANCH   5  10
HETATM   10  C           1     -22.442  -7.306  -0.606  0.00  0.00     0.196 C 
HETATM   11  O           1     -23.313  -7.602   0.241  0.00  0.00    -0.646 OA
HETATM   12  O           1     -22.589  -6.293  -1.323  0.00  0.00    -0.646 OA
ENDBRANCH   5  10
ENDBRANCH   2   5
BRANCH   4  13
HETATM   13  C           1     -21.748 -11.910  -0.124  0.00  0.00     0.278 C 
BRANCH  13  14
HETATM   14  C           1     -23.188 -12.079   0.344  0.00  0.00     0.017 C 
HETATM   15  C           1     -24.094 -12.280  -0.864  0.00  0.00     0.012 C 
HETATM   16  C           1     -23.284 -13.293   1.258  0.00  0.00     0.012 C 
ENDBRANCH  13  14
BRANCH  13  17
HETATM   17  N           1     -20.850 -12.791   0.693  0.00  0.00    -0.066 N 
HETATM   18  H           1     -20.984 -13.787   0.405  0.00  0.00     0.275 HD
HETATM   19  H           1     -19.855 -12.514   0.537  0.00  0.00     0.275 HD
HETATM   20  H           1     -21.087 -12.687   1.706  0.00  0.00     0.275 HD
ENDBRANCH  13  17
ENDBRANCH   4  13
TORSDOF 8
ENDMDL
MODEL 8
REMARK VINA RESULT:      -4.8     10.397     12.660
REMARK  8 active torsions:
REMARK  status: ('A' for Active; 'I' for Inactive)
REMARK    1  A    between atoms: N_3  and  C_4 
REMARK       I    between atoms: N_3  and  C_20 
REMARK    2  A    between atoms: C_4  and  C_5 
REMARK    3  A    between atoms: C_4  and  C_11 
REMARK    4  A    between atoms: C_5  and  C_6 
REMARK    5  A    between atoms: C_6  and  Se_15 
REMARK    6  A    between atoms: C_8  and  C_12 
REMARK    7  A    between atoms: N_9  and  C_12 
REMARK    8  A    between atoms: C_12  and  C_20 
ROOT
HETATM    1  H           1     -26.328  -7.935 -18.675  0.00  0.00     0.163 HD
HETATM    2  N           1     -25.579  -7.277 -18.501  0.00  0.00    -0.345 N 
HETATM    3  O           1     -23.614  -6.433 -19.147  0.00  0.00    -0.271 OA
HETATM    4  C           1     -24.509  -7.218 -19.354  0.00  0.00     0.249 C 
ENDROOT
BRANCH   2   5
HETATM    5  C           1     -25.638  -6.397 -17.351  0.00  0.00     0.185 C 
BRANCH   5   6
HETATM    6  C           1     -27.091  -6.044 -17.057  0.00  0.00     0.036 C 
BRANCH   6   7
HETATM    7  C           1     -27.924  -6.233 -18.318  0.00  0.00     0.003 C 
BRANCH   7   8
HETATM    8 Se           1     -29.813  -6.309 -17.843  0.00  0.00     0.000 Se
HETATM    9  C           1     -30.142  -8.000 -18.755  0.00  0.00     0.000 C 
ENDBRANCH   7   8
ENDBRANCH   6   7
ENDBRANCH   5   6
BRANCH   5  10
HETATM   10  C           1     -25.036  -7.092 -16.156  0.00  0.00     0.196 C 
HETATM   11  O           1     -25.125  -6.575 -15.021  0.00  0.00    -0.646 OA
HETATM   12  O           1     -24.448  -8.185 -16.298  0.00  0.00    -0.646 OA
ENDBRANCH   5  10
ENDBRANCH   2   5
BRANCH   4  13
HETATM   13  C           1     -24.447  -8.136 -20.551  0.00  0.00     0.278 C 
BRANCH  13  14
HETATM   14  C           1     -23.301  -7.708 -21.460  0.00  0.00     0.017 C 
HETATM   15  C           1     -22.174  -8.728 -21.371  0.00  0.00     0.012 C 
HETATM   16  C           1     -23.798  -7.624 -22.897  0.00  0.00     0.012 C 
ENDBRANCH  13  14
BRANCH  13  17
HETATM   17  N           1     -25.740  -8.057 -21.307  0.00  0.00    -0.066 N 
HETATM   18  H           1     -26.364  -8.842 -21.012  0.00  0.00     0.275 HD
HETATM   19  H           1     -26.208  -7.145 -21.103  0.00  0.00     0.275 HD
HETATM   20  H           1     -25.550  -8.131 -22.332  0.00  0.00     0.275 HD
ENDBRANCH  13  17
ENDBRANCH   4  13
TORSDOF 8
ENDMDL
MODEL 9
REMARK VINA RESULT:      -4.8      5.445      8.327
REMARK  8 active torsions:
REMARK  status: ('A' for Active; 'I' for Inactive)
REMARK    1  A    between atoms: N_3  and  C_4 
REMARK       I    between atoms: N_3  and  C_20 
REMARK    2  A    between atoms: C_4  and  C_5 
REMARK    3  A    between atoms: C_4  and  C_11 
REMARK    4  A    between atoms: C_5  and  C_6 
REMARK    5  A    between atoms: C_6  and  Se_15 
REMARK    6  A    between atoms: C_8  and  C_12 
REMARK    7  A    between atoms: N_9  and  C_12 
REMARK    8  A    between atoms: C_12  and  C_20 
ROOT
HETATM    1  H           1     -22.289  -9.302  -3.194  0.00  0.00     0.163 HD
HETATM    2  N           1     -21.550  -8.701  -2.853  0.00  0.00    -0.345 N 
HETATM    3  O           1     -20.174  -8.158  -1.180  0.00  0.00    -0.271 OA
HETATM    4  C           1     -21.055  -8.876  -1.588  0.00  0.00     0.249 C 
ENDROOT
BRANCH   2   5
HETATM    5  C           1     -21.016  -7.654  -3.702  0.00  0.00     0.185 C 
BRANCH   5   6
HETATM    6  C           1     -20.796  -8.203  -5.106  0.00  0.00     0.036 C 
BRANCH   6   7
HETATM    7  C           1     -20.282  -9.634  -5.016  0.00  0.00     0.003 C 
BRANCH   7   8
HETATM    8 Se           1     -18.365  -9.660  -5.372  0.00  0.00     0.000 Se
HETATM    9  C           1     -17.850  -9.588  -3.494  0.00  0.00     0.000 C 
ENDBRANCH   7   8
ENDBRANCH   6   7
ENDBRANCH   5   6
BRANCH   5  10
HETATM   10  C           1     -21.991  -6.505  -3.757  0.00  0.00     0.196 C 
HETATM   11  O           1     -22.442  -6.119  -4.857  0.00  0.00    -0.646 OA
HETATM   12  O           1     -22.350  -5.939  -2.702  0.00  0.00    -0.646 OA
ENDBRANCH   5  10
ENDBRANCH   2   5
BRANCH   4  13
HETATM   13  C           1     -21.612  -9.965  -0.704  0.00  0.00     0.278 C 
BRANCH  13  14
HETATM   14  C           1     -23.106  -9.741  -0.502  0.00  0.00     0.017 C 
HETATM   15  C           1     -23.745 -11.019   0.025  0.00  0.00     0.012 C 
HETATM   16  C           1     -23.318  -8.616   0.502  0.00  0.00     0.012 C 
ENDBRANCH  13  14
BRANCH  13  17
HETATM   17  N           1     -20.918  -9.933   0.625  0.00  0.00    -0.066 N 
HETATM   18  H           1     -21.622  -9.782   1.383  0.00  0.00     0.275 HD
HETATM   19  H           1     -20.426 -10.841   0.783  0.00  0.00     0.275 HD
HETATM   20  H           1     -20.222  -9.152   0.636  0.00  0.00     0.275 HD
ENDBRANCH  13  17
ENDBRANCH   4  13
TORSDOF 8
ENDMDL
