MODEL 1
REMARK VINA RESULT:      -6.2      0.000      0.000
REMARK  9 active torsions:
REMARK  status: ('A' for Active; 'I' for Inactive)
REMARK       I    between atoms: C_2  and  N_3 
REMARK    1  A    between atoms: C_2  and  C_14 
REMARK    2  A    between atoms: N_3  and  C_7 
REMARK    3  A    between atoms: C_6  and  C_7 
REMARK    4  A    between atoms: C_7  and  C_8 
REMARK    5  A    between atoms: C_8  and  S_19 
REMARK    6  A    between atoms: C_9  and  C_14 
REMARK    7  A    between atoms: C_9  and  C_21 
REMARK    8  A    between atoms: C_14  and  N_18 
REMARK       I    between atoms: N_16  and  C_22 
REMARK    9  A    between atoms: C_21  and  C_22 
ROOT
HETATM    1  C           1     -33.592  -2.233 -11.395  0.00  0.00     0.275 C 
ENDROOT
BRANCH   1   2
HETATM    2  C           1     -34.536  -2.004 -12.550  0.00  0.00     0.249 C 
HETATM    3  N           1     -35.265  -0.847 -12.619  0.00  0.00    -0.344 N 
HETATM    4  H           1     -35.170  -0.145 -11.895  0.00  0.00     0.163 HD
HETATM    5  O           1     -34.647  -2.840 -13.414  0.00  0.00    -0.271 OA
BRANCH   3   6
HETATM    6  C           1     -36.171  -0.627 -13.729  0.00  0.00     0.194 C 
BRANCH   6   7
HETATM    7  C           1     -35.561   0.367 -14.687  0.00  0.00     0.197 C 
HETATM    8  O           1     -34.338   0.621 -14.628  0.00  0.00    -0.646 OA
HETATM    9  O           1     -36.278   0.936 -15.538  0.00  0.00    -0.646 OA
ENDBRANCH   6   7
BRANCH   6  10
HETATM   10  C           1     -37.493  -0.081 -13.203  0.00  0.00     0.106 C 
BRANCH  10  11
HETATM   11  S           1     -37.514  -0.188 -11.391  0.00  0.00    -0.180 SA
HETATM   12  H           1     -37.775  -1.507 -11.331  0.00  0.00     0.101 HD
ENDBRANCH  10  11
ENDBRANCH   6  10
ENDBRANCH   3   6
ENDBRANCH   1   2
BRANCH   1  13
HETATM   13  C           1     -33.113  -3.679 -11.409  0.00  0.00     0.052 C 
BRANCH  13  14
HETATM   14  C           1     -34.001  -4.517 -10.498  0.00  0.00     0.105 C 
BRANCH  14  15
HETATM   15  C           1     -34.386  -5.793 -11.207  0.00  0.00     0.215 C 
HETATM   16  N           1     -34.768  -5.757 -12.521  0.00  0.00    -0.370 N 
HETATM   17  H           1     -34.793  -4.875 -13.017  0.00  0.00     0.159 HD
HETATM   18  H           1     -35.026  -6.611 -12.997  0.00  0.00     0.159 HD
HETATM   19  O           1     -34.355  -6.846 -10.616  0.00  0.00    -0.274 OA
ENDBRANCH  14  15
ENDBRANCH  13  14
ENDBRANCH   1  13
BRANCH   1  20
HETATM   20  N           1     -34.306  -1.956 -10.105  0.00  0.00    -0.066 N 
HETATM   21  H           1     -34.224  -0.940  -9.873  0.00  0.00     0.275 HD
HETATM   22  H           1     -35.315  -2.210 -10.203  0.00  0.00     0.275 HD
HETATM   23  H           1     -33.875  -2.523  -9.340  0.00  0.00     0.275 HD
ENDBRANCH   1  20
TORSDOF 9
ENDMDL
MODEL 2
REMARK VINA RESULT:      -5.8      2.316      2.660
REMARK  9 active torsions:
REMARK  status: ('A' for Active; 'I' for Inactive)
REMARK       I    between atoms: C_2  and  N_3 
REMARK    1  A    between atoms: C_2  and  C_14 
REMARK    2  A    between atoms: N_3  and  C_7 
REMARK    3  A    between atoms: C_6  and  C_7 
REMARK    4  A    between atoms: C_7  and  C_8 
REMARK    5  A    between atoms: C_8  and  S_19 
REMARK    6  A    between atoms: C_9  and  C_14 
REMARK    7  A    between atoms: C_9  and  C_21 
REMARK    8  A    between atoms: C_14  and  N_18 
REMARK       I    between atoms: N_16  and  C_22 
REMARK    9  A    between atoms: C_21  and  C_22 
ROOT
HETATM    1  C           1     -34.284  -3.963 -12.633  0.00  0.00     0.275 C 
ENDROOT
BRANCH   1   2
HETATM    2  C           1     -34.330  -2.493 -12.297  0.00  0.00     0.249 C 
HETATM    3  N           1     -34.994  -1.623 -13.120  0.00  0.00    -0.344 N 
HETATM    4  H           1     -35.455  -1.966 -13.953  0.00  0.00     0.163 HD
HETATM    5  O           1     -33.781  -2.084 -11.302  0.00  0.00    -0.271 OA
BRANCH   3   6
HETATM    6  C           1     -35.037  -0.210 -12.796  0.00  0.00     0.194 C 
BRANCH   6   7
HETATM    7  C           1     -36.246   0.072 -11.939  0.00  0.00     0.197 C 
HETATM    8  O           1     -36.100   0.427 -10.749  0.00  0.00    -0.646 OA
HETATM    9  O           1     -37.395  -0.050 -12.418  0.00  0.00    -0.646 OA
ENDBRANCH   6   7
BRANCH   6  10
HETATM   10  C           1     -35.125   0.601 -14.082  0.00  0.00     0.106 C 
BRANCH  10  11
HETATM   11  S           1     -35.628  -0.483 -15.449  0.00  0.00    -0.180 SA
HETATM   12  H           1     -36.841   0.070 -15.628  0.00  0.00     0.101 HD
ENDBRANCH  10  11
ENDBRANCH   6  10
ENDBRANCH   3   6
ENDBRANCH   1   2
BRANCH   1  13
HETATM   13  C           1     -33.591  -4.721 -11.509  0.00  0.00     0.052 C 
BRANCH  13  14
HETATM   14  C           1     -34.634  -5.246 -10.531  0.00  0.00     0.105 C 
BRANCH  14  15
HETATM   15  C           1     -34.405  -6.719 -10.294  0.00  0.00     0.215 C 
HETATM   16  N           1     -33.265  -7.318 -10.759  0.00  0.00    -0.370 N 
HETATM   17  H           1     -32.577  -6.773 -11.262  0.00  0.00     0.159 HD
HETATM   18  H           1     -33.111  -8.304 -10.600  0.00  0.00     0.159 HD
HETATM   19  O           1     -35.226  -7.369  -9.692  0.00  0.00    -0.274 OA
ENDBRANCH  14  15
ENDBRANCH  13  14
ENDBRANCH   1  13
BRANCH   1  20
HETATM   20  N           1     -33.523  -4.159 -13.911  0.00  0.00    -0.066 N 
HETATM   21  H           1     -33.501  -3.261 -14.444  0.00  0.00     0.275 HD
HETATM   22  H           1     -32.546  -4.460 -13.693  0.00  0.00     0.275 HD
HETATM   23  H           1     -33.994  -4.893 -14.488  0.00  0.00     0.275 HD
ENDBRANCH   1  20
TORSDOF 9
ENDMDL
MODEL 3
REMARK VINA RESULT:      -5.7     12.209     14.309
REMARK  9 active torsions:
REMARK  status: ('A' for Active; 'I' for Inactive)
REMARK       I    between atoms: C_2  and  N_3 
REMARK    1  A    between atoms: C_2  and  C_14 
REMARK    2  A    between atoms: N_3  and  C_7 
REMARK    3  A    between atoms: C_6  and  C_7 
REMARK    4  A    between atoms: C_7  and  C_8 
REMARK    5  A    between atoms: C_8  and  S_19 
REMARK    6  A    between atoms: C_9  and  C_14 
REMARK    7  A    between atoms: C_9  and  C_21 
REMARK    8  A    between atoms: C_14  and  N_18 
REMARK       I    between atoms: N_16  and  C_22 
REMARK    9  A    between atoms: C_21  and  C_22 
ROOT
HETATM    1  C           1     -24.037  -3.849 -10.263  0.00  0.00     0.275 C 
ENDROOT
BRANCH   1   2
HETATM    2  C           1     -22.738  -4.362  -9.693  0.00  0.00     0.249 C 
HETATM    3  N           1     -22.620  -4.584  -8.347  0.00  0.00    -0.344 N 
HETATM    4  H           1     -23.406  -4.404  -7.735  0.00  0.00     0.163 HD
HETATM    5  O           1     -21.801  -4.577 -10.425  0.00  0.00    -0.271 OA
BRANCH   3   6
HETATM    6  C           1     -21.370  -5.077  -7.801  0.00  0.00     0.194 C 
BRANCH   6   7
HETATM    7  C           1     -21.658  -5.981  -6.628  0.00  0.00     0.197 C 
HETATM    8  O           1     -21.093  -7.093  -6.544  0.00  0.00    -0.646 OA
HETATM    9  O           1     -22.460  -5.618  -5.741  0.00  0.00    -0.646 OA
ENDBRANCH   6   7
BRANCH   6  10
HETATM   10  C           1     -20.521  -3.900  -7.339  0.00  0.00     0.106 C 
BRANCH  10  11
HETATM   11  S           1     -18.763  -4.332  -7.474  0.00  0.00    -0.180 SA
HETATM   12  H           1     -18.519  -4.343  -6.151  0.00  0.00     0.101 HD
ENDBRANCH  10  11
ENDBRANCH   6  10
ENDBRANCH   3   6
ENDBRANCH   1   2
BRANCH   1  13
HETATM   13  C           1     -23.748  -2.785 -11.313  0.00  0.00     0.052 C 
BRANCH  13  14
HETATM   14  C           1     -24.352  -3.208 -12.646  0.00  0.00     0.105 C 
BRANCH  14  15
HETATM   15  C           1     -23.286  -3.180 -13.713  0.00  0.00     0.215 C 
HETATM   16  N           1     -21.982  -3.438 -13.385  0.00  0.00    -0.370 N 
HETATM   17  H           1     -21.734  -3.647 -12.427  0.00  0.00     0.159 HD
HETATM   18  H           1     -21.268  -3.420 -14.100  0.00  0.00     0.159 HD
HETATM   19  O           1     -23.583  -2.931 -14.858  0.00  0.00    -0.274 OA
ENDBRANCH  14  15
ENDBRANCH  13  14
ENDBRANCH   1  13
BRANCH   1  20
HETATM   20  N           1     -24.864  -3.253  -9.162  0.00  0.00    -0.066 N 
HETATM   21  H           1     -25.859  -3.184  -9.473  0.00  0.00     0.275 HD
HETATM   22  H           1     -24.806  -3.862  -8.314  0.00  0.00     0.275 HD
HETATM   23  H           1     -24.504  -2.299  -8.933  0.00  0.00     0.275 HD
ENDBRANCH   1  20
TORSDOF 9
ENDMDL
MODEL 4
REMARK VINA RESULT:      -5.7     12.439     14.342
REMARK  9 active torsions:
REMARK  status: ('A' for Active; 'I' for Inactive)
REMARK       I    between atoms: C_2  and  N_3 
REMARK    1  A    between atoms: C_2  and  C_14 
REMARK    2  A    between atoms: N_3  and  C_7 
REMARK    3  A    between atoms: C_6  and  C_7 
REMARK    4  A    between atoms: C_7  and  C_8 
REMARK    5  A    between atoms: C_8  and  S_19 
REMARK    6  A    between atoms: C_9  and  C_14 
REMARK    7  A    between atoms: C_9  and  C_21 
REMARK    8  A    between atoms: C_14  and  N_18 
REMARK       I    between atoms: N_16  and  C_22 
REMARK    9  A    between atoms: C_21  and  C_22 
ROOT
HETATM    1  C           1     -21.960  -3.182 -11.630  0.00  0.00     0.275 C 
ENDROOT
BRANCH   1   2
HETATM    2  C           1     -22.166  -4.067 -10.425  0.00  0.00     0.249 C 
HETATM    3  N           1     -21.194  -4.154  -9.464  0.00  0.00    -0.344 N 
HETATM    4  H           1     -20.337  -3.624  -9.563  0.00  0.00     0.163 HD
HETATM    5  O           1     -23.190  -4.698 -10.308  0.00  0.00    -0.271 OA
BRANCH   3   6
HETATM    6  C           1     -21.393  -5.005  -8.307  0.00  0.00     0.194 C 
BRANCH   6   7
HETATM    7  C           1     -22.048  -4.208  -7.205  0.00  0.00     0.197 C 
HETATM    8  O           1     -21.486  -3.187  -6.754  0.00  0.00    -0.646 OA
HETATM    9  O           1     -23.153  -4.571  -6.744  0.00  0.00    -0.646 OA
ENDBRANCH   6   7
BRANCH   6  10
HETATM   10  C           1     -20.046  -5.527  -7.825  0.00  0.00     0.106 C 
BRANCH  10  11
HETATM   11  S           1     -20.273  -6.453  -6.281  0.00  0.00    -0.180 SA
HETATM   12  H           1     -19.300  -5.825  -5.596  0.00  0.00     0.101 HD
ENDBRANCH  10  11
ENDBRANCH   6  10
ENDBRANCH   3   6
ENDBRANCH   1   2
BRANCH   1  13
HETATM   13  C           1     -23.295  -2.588 -12.059  0.00  0.00     0.052 C 
BRANCH  13  14
HETATM   14  C           1     -23.702  -3.172 -13.406  0.00  0.00     0.105 C 
BRANCH  14  15
HETATM   15  C           1     -23.439  -2.160 -14.494  0.00  0.00     0.215 C 
HETATM   16  N           1     -24.119  -0.972 -14.502  0.00  0.00    -0.370 N 
HETATM   17  H           1     -24.798  -0.773 -13.779  0.00  0.00     0.159 HD
HETATM   18  H           1     -23.942  -0.293 -15.231  0.00  0.00     0.159 HD
HETATM   19  O           1     -22.627  -2.398 -15.356  0.00  0.00    -0.274 OA
ENDBRANCH  14  15
ENDBRANCH  13  14
ENDBRANCH   1  13
BRANCH   1  20
HETATM   20  N           1     -21.390  -3.995 -12.754  0.00  0.00    -0.066 N 
HETATM   21  H           1     -20.713  -3.412 -13.297  0.00  0.00     0.275 HD
HETATM   22  H           1     -20.896  -4.830 -12.365  0.00  0.00     0.275 HD
HETATM   23  H           1     -22.163  -4.308 -13.384  0.00  0.00     0.275 HD
ENDBRANCH   1  20
TORSDOF 9
ENDMDL
MODEL 5
REMARK VINA RESULT:      -5.6     12.868     14.348
REMARK  9 active torsions:
REMARK  status: ('A' for Active; 'I' for Inactive)
REMARK       I    between atoms: C_2  and  N_3 
REMARK    1  A    between atoms: C_2  and  C_14 
REMARK    2  A    between atoms: N_3  and  C_7 
REMARK    3  A    between atoms: C_6  and  C_7 
REMARK    4  A    between atoms: C_7  and  C_8 
REMARK    5  A    between atoms: C_8  and  S_19 
REMARK    6  A    between atoms: C_9  and  C_14 
REMARK    7  A    between atoms: C_9  and  C_21 
REMARK    8  A    between atoms: C_14  and  N_18 
REMARK       I    between atoms: N_16  and  C_22 
REMARK    9  A    between atoms: C_21  and  C_22 
ROOT
HETATM    1  C           1     -21.162  -5.895  -6.883  0.00  0.00     0.275 C 
ENDROOT
BRANCH   1   2
HETATM    2  C           1     -21.679  -4.736  -7.699  0.00  0.00     0.249 C 
HETATM    3  N           1     -22.188  -4.952  -8.952  0.00  0.00    -0.344 N 
HETATM    4  H           1     -22.217  -5.891  -9.330  0.00  0.00     0.163 HD
HETATM    5  O           1     -21.645  -3.616  -7.246  0.00  0.00    -0.271 OA
BRANCH   3   6
HETATM    6  C           1     -22.684  -3.837  -9.734  0.00  0.00     0.194 C 
BRANCH   6   7
HETATM    7  C           1     -24.193  -3.854  -9.730  0.00  0.00     0.197 C 
HETATM    8  O           1     -24.807  -4.908 -10.000  0.00  0.00    -0.646 OA
HETATM    9  O           1     -24.829  -2.812  -9.457  0.00  0.00    -0.646 OA
ENDBRANCH   6   7
BRANCH   6  10
HETATM   10  C           1     -22.178  -3.959 -11.166  0.00  0.00     0.106 C 
BRANCH  10  11
HETATM   11  S           1     -22.931  -2.661 -12.187  0.00  0.00    -0.180 SA
HETATM   12  H           1     -23.177  -1.810 -11.174  0.00  0.00     0.101 HD
ENDBRANCH  10  11
ENDBRANCH   6  10
ENDBRANCH   3   6
ENDBRANCH   1   2
BRANCH   1  13
HETATM   13  C           1     -21.173  -5.524  -5.406  0.00  0.00     0.052 C 
BRANCH  13  14
HETATM   14  C           1     -22.175  -6.404  -4.669  0.00  0.00     0.105 C 
BRANCH  14  15
HETATM   15  C           1     -21.739  -6.568  -3.234  0.00  0.00     0.215 C 
HETATM   16  N           1     -22.393  -5.894  -2.238  0.00  0.00    -0.370 N 
HETATM   17  H           1     -23.168  -5.285  -2.465  0.00  0.00     0.159 HD
HETATM   18  H           1     -22.101  -6.004  -1.276  0.00  0.00     0.159 HD
HETATM   19  O           1     -20.813  -7.296  -2.963  0.00  0.00    -0.274 OA
ENDBRANCH  14  15
ENDBRANCH  13  14
ENDBRANCH   1  13
BRANCH   1  20
HETATM   20  N           1     -19.759  -6.217  -7.307  0.00  0.00    -0.066 N 
HETATM   21  H           1     -19.752  -6.478  -8.319  0.00  0.00     0.275 HD
HETATM   22  H           1     -19.150  -5.381  -7.159  0.00  0.00     0.275 HD
HETATM   23  H           1     -19.399  -7.017  -6.740  0.00  0.00     0.275 HD
ENDBRANCH   1  20
TORSDOF 9
ENDMDL
MODEL 6
REMARK VINA RESULT:      -5.5     12.409     14.250
REMARK  9 active torsions:
REMARK  status: ('A' for Active; 'I' for Inactive)
REMARK       I    between atoms: C_2  and  N_3 
REMARK    1  A    between atoms: C_2  and  C_14 
REMARK    2  A    between atoms: N_3  and  C_7 
REMARK    3  A    between atoms: C_6  and  C_7 
REMARK    4  A    between atoms: C_7  and  C_8 
REMARK    5  A    between atoms: C_8  and  S_19 
REMARK    6  A    between atoms: C_9  and  C_14 
REMARK    7  A    between atoms: C_9  and  C_21 
REMARK    8  A    between atoms: C_14  and  N_18 
REMARK       I    between atoms: N_16  and  C_22 
REMARK    9  A    between atoms: C_21  and  C_22 
ROOT
HETATM    1  C           1     -24.169  -4.668 -10.053  0.00  0.00     0.275 C 
ENDROOT
BRANCH   1   2
HETATM    2  C           1     -23.171  -4.346  -8.969  0.00  0.00     0.249 C 
HETATM    3  N           1     -22.101  -5.174  -8.755  0.00  0.00    -0.344 N 
HETATM    4  H           1     -21.980  -6.001  -9.326  0.00  0.00     0.163 HD
HETATM    5  O           1     -23.315  -3.358  -8.289  0.00  0.00    -0.271 OA
BRANCH   3   6
HETATM    6  C           1     -21.142  -4.864  -7.712  0.00  0.00     0.194 C 
BRANCH   6   7
HETATM    7  C           1     -19.861  -4.371  -8.339  0.00  0.00     0.197 C 
HETATM    8  O           1     -18.810  -4.329  -7.663  0.00  0.00    -0.646 OA
HETATM    9  O           1     -19.851  -4.003  -9.534  0.00  0.00    -0.646 OA
ENDBRANCH   6   7
BRANCH   6  10
HETATM   10  C           1     -20.859  -6.118  -6.896  0.00  0.00     0.106 C 
BRANCH  10  11
HETATM   11  S           1     -21.049  -5.747  -5.130  0.00  0.00    -0.180 SA
HETATM   12  H           1     -20.273  -4.648  -5.133  0.00  0.00     0.101 HD
ENDBRANCH  10  11
ENDBRANCH   6  10
ENDBRANCH   3   6
ENDBRANCH   1   2
BRANCH   1  13
HETATM   13  C           1     -23.455  -4.748 -11.396  0.00  0.00     0.052 C 
BRANCH  13  14
HETATM   14  C           1     -22.904  -3.376 -11.761  0.00  0.00     0.105 C 
BRANCH  14  15
HETATM   15  C           1     -23.438  -2.963 -13.111  0.00  0.00     0.215 C 
HETATM   16  N           1     -22.629  -3.018 -14.214  0.00  0.00    -0.370 N 
HETATM   17  H           1     -21.672  -3.334 -14.123  0.00  0.00     0.159 HD
HETATM   18  H           1     -22.986  -2.742 -15.118  0.00  0.00     0.159 HD
HETATM   19  O           1     -24.581  -2.586 -13.219  0.00  0.00    -0.274 OA
ENDBRANCH  14  15
ENDBRANCH  13  14
ENDBRANCH   1  13
BRANCH   1  20
HETATM   20  N           1     -25.212  -3.591 -10.106  0.00  0.00    -0.066 N 
HETATM   21  H           1     -24.820  -2.706  -9.711  0.00  0.00     0.275 HD
HETATM   22  H           1     -25.500  -3.432 -11.098  0.00  0.00     0.275 HD
HETATM   23  H           1     -26.043  -3.883  -9.544  0.00  0.00     0.275 HD
ENDBRANCH   1  20
TORSDOF 9
ENDMDL
MODEL 7
REMARK VINA RESULT:      -5.4      2.040      2.131
REMARK  9 active torsions:
REMARK  status: ('A' for Active; 'I' for Inactive)
REMARK       I    between atoms: C_2  and  N_3 
REMARK    1  A    between atoms: C_2  and  C_14 
REMARK    2  A    between atoms: N_3  and  C_7 
REMARK    3  A    between atoms: C_6  and  C_7 
REMARK    4  A    between atoms: C_7  and  C_8 
REMARK    5  A    between atoms: C_8  and  S_19 
REMARK    6  A    between atoms: C_9  and  C_14 
REMARK    7  A    between atoms: C_9  and  C_21 
REMARK    8  A    between atoms: C_14  and  N_18 
REMARK       I    between atoms: N_16  and  C_22 
REMARK    9  A    between atoms: C_21  and  C_22 
ROOT
HETATM    1  C           1     -34.215  -1.572 -11.568  0.00  0.00     0.275 C 
ENDROOT
BRANCH   1   2
HETATM    2  C           1     -35.284  -1.429 -12.623  0.00  0.00     0.249 C 
HETATM    3  N           1     -34.941  -1.094 -13.905  0.00  0.00    -0.344 N 
HETATM    4  H           1     -33.969  -0.943 -14.145  0.00  0.00     0.163 HD
HETATM    5  O           1     -36.444  -1.610 -12.336  0.00  0.00    -0.271 OA
BRANCH   3   6
HETATM    6  C           1     -35.969  -0.956 -14.919  0.00  0.00     0.194 C 
BRANCH   6   7
HETATM    7  C           1     -35.478  -1.551 -16.216  0.00  0.00     0.197 C 
HETATM    8  O           1     -34.724  -2.548 -16.200  0.00  0.00    -0.646 OA
HETATM    9  O           1     -35.825  -1.046 -17.306  0.00  0.00    -0.646 OA
ENDBRANCH   6   7
BRANCH   6  10
HETATM   10  C           1     -36.284   0.520 -15.123  0.00  0.00     0.106 C 
BRANCH  10  11
HETATM   11  S           1     -38.065   0.726 -15.400  0.00  0.00    -0.180 SA
HETATM   12  H           1     -37.965   1.109 -16.686  0.00  0.00     0.101 HD
ENDBRANCH  10  11
ENDBRANCH   6  10
ENDBRANCH   3   6
ENDBRANCH   1   2
BRANCH   1  13
HETATM   13  C           1     -33.535  -2.926 -11.713  0.00  0.00     0.052 C 
BRANCH  13  14
HETATM   14  C           1     -34.279  -3.961 -10.879  0.00  0.00     0.105 C 
BRANCH  14  15
HETATM   15  C           1     -34.481  -5.215 -11.696  0.00  0.00     0.215 C 
HETATM   16  N           1     -33.938  -6.399 -11.276  0.00  0.00    -0.370 N 
HETATM   17  H           1     -33.401  -6.434 -10.419  0.00  0.00     0.159 HD
HETATM   18  H           1     -34.073  -7.239 -11.822  0.00  0.00     0.159 HD
HETATM   19  O           1     -35.122  -5.173 -12.718  0.00  0.00    -0.274 OA
ENDBRANCH  14  15
ENDBRANCH  13  14
ENDBRANCH   1  13
BRANCH   1  20
HETATM   20  N           1     -34.840  -1.470 -10.208  0.00  0.00    -0.066 N 
HETATM   21  H           1     -34.811  -2.404  -9.740  0.00  0.00     0.275 HD
HETATM   22  H           1     -34.312  -0.776  -9.632  0.00  0.00     0.275 HD
HETATM   23  H           1     -35.834  -1.161 -10.304  0.00  0.00     0.275 HD
ENDBRANCH   1  20
TORSDOF 9
ENDMDL
MODEL 8
REMARK VINA RESULT:      -5.4      4.810      5.780
REMARK  9 active torsions:
REMARK  status: ('A' for Active; 'I' for Inactive)
REMARK       I    between atoms: C_2  and  N_3 
REMARK    1  A    between atoms: C_2  and  C_14 
REMARK    2  A    between atoms: N_3  and  C_7 
REMARK    3  A    between atoms: C_6  and  C_7 
REMARK    4  A    between atoms: C_7  and  C_8 
REMARK    5  A    between atoms: C_8  and  S_19 
REMARK    6  A    between atoms: C_9  and  C_14 
REMARK    7  A    between atoms: C_9  and  C_21 
REMARK    8  A    between atoms: C_14  and  N_18 
REMARK       I    between atoms: N_16  and  C_22 
REMARK    9  A    between atoms: C_21  and  C_22 
ROOT
HETATM    1  C           1     -33.061  -4.545 -16.754  0.00  0.00     0.275 C 
ENDROOT
BRANCH   1   2
HETATM    2  C           1     -33.856  -4.527 -15.472  0.00  0.00     0.249 C 
HETATM    3  N           1     -33.286  -4.057 -14.319  0.00  0.00    -0.344 N 
HETATM    4  H           1     -32.331  -3.722 -14.327  0.00  0.00     0.163 HD
HETATM    5  O           1     -34.997  -4.926 -15.463  0.00  0.00    -0.271 OA
BRANCH   3   6
HETATM    6  C           1     -34.052  -4.040 -13.087  0.00  0.00     0.194 C 
BRANCH   6   7
HETATM    7  C           1     -34.486  -2.627 -12.786  0.00  0.00     0.197 C 
HETATM    8  O           1     -35.098  -1.963 -13.651  0.00  0.00    -0.646 OA
HETATM    9  O           1     -34.233  -2.120 -11.671  0.00  0.00    -0.646 OA
ENDBRANCH   6   7
BRANCH   6  10
HETATM   10  C           1     -33.186  -4.560 -11.947  0.00  0.00     0.106 C 
BRANCH  10  11
HETATM   11  S           1     -34.176  -5.650 -10.884  0.00  0.00    -0.180 SA
HETATM   12  H           1     -35.246  -5.705 -11.698  0.00  0.00     0.101 HD
ENDBRANCH  10  11
ENDBRANCH   6  10
ENDBRANCH   3   6
ENDBRANCH   1   2
BRANCH   1  13
HETATM   13  C           1     -31.629  -4.971 -16.459  0.00  0.00     0.052 C 
BRANCH  13  14
HETATM   14  C           1     -31.273  -6.183 -17.310  0.00  0.00     0.105 C 
BRANCH  14  15
HETATM   15  C           1     -29.900  -6.681 -16.928  0.00  0.00     0.215 C 
HETATM   16  N           1     -29.483  -7.918 -17.337  0.00  0.00    -0.370 N 
HETATM   17  H           1     -30.095  -8.499 -17.895  0.00  0.00     0.159 HD
HETATM   18  H           1     -28.563  -8.252 -17.082  0.00  0.00     0.159 HD
HETATM   19  O           1     -29.170  -5.986 -16.262  0.00  0.00    -0.274 OA
ENDBRANCH  14  15
ENDBRANCH  13  14
ENDBRANCH   1  13
BRANCH   1  20
HETATM   20  N           1     -33.059  -3.173 -17.360  0.00  0.00    -0.066 N 
HETATM   21  H           1     -32.227  -3.068 -17.982  0.00  0.00     0.275 HD
HETATM   22  H           1     -33.932  -3.038 -17.920  0.00  0.00     0.275 HD
HETATM   23  H           1     -33.018  -2.457 -16.600  0.00  0.00     0.275 HD
ENDBRANCH   1  20
TORSDOF 9
ENDMDL
MODEL 9
REMARK VINA RESULT:      -5.4     14.159     16.505
REMARK  9 active torsions:
REMARK  status: ('A' for Active; 'I' for Inactive)
REMARK       I    between atoms: C_2  and  N_3 
REMARK    1  A    between atoms: C_2  and  C_14 
REMARK    2  A    between atoms: N_3  and  C_7 
REMARK    3  A    between atoms: C_6  and  C_7 
REMARK    4  A    between atoms: C_7  and  C_8 
REMARK    5  A    between atoms: C_8  and  S_19 
REMARK    6  A    between atoms: C_9  and  C_14 
REMARK    7  A    between atoms: C_9  and  C_21 
REMARK    8  A    between atoms: C_14  and  N_18 
REMARK       I    between atoms: N_16  and  C_22 
REMARK    9  A    between atoms: C_21  and  C_22 
ROOT
HETATM    1  C           1     -20.490  -4.972  -6.582  0.00  0.00     0.275 C 
ENDROOT
BRANCH   1   2
HETATM    2  C           1     -21.381  -5.773  -5.665  0.00  0.00     0.249 C 
HETATM    3  N           1     -20.834  -6.686  -4.804  0.00  0.00    -0.344 N 
HETATM    4  H           1     -19.831  -6.824  -4.783  0.00  0.00     0.163 HD
HETATM    5  O           1     -22.578  -5.607  -5.689  0.00  0.00    -0.271 OA
BRANCH   3   6
HETATM    6  C           1     -21.691  -7.455  -3.923  0.00  0.00     0.194 C 
BRANCH   6   7
HETATM    7  C           1     -21.621  -6.882  -2.528  0.00  0.00     0.197 C 
HETATM    8  O           1     -20.865  -7.399  -1.678  0.00  0.00    -0.646 OA
HETATM    9  O           1     -22.320  -5.891  -2.225  0.00  0.00    -0.646 OA
ENDBRANCH   6   7
BRANCH   6  10
HETATM   10  C           1     -21.224  -8.905  -3.901  0.00  0.00     0.106 C 
BRANCH  10  11
HETATM   11  S           1     -19.610  -9.033  -4.721  0.00  0.00    -0.180 SA
HETATM   12  H           1     -18.984  -8.131  -3.943  0.00  0.00     0.101 HD
ENDBRANCH  10  11
ENDBRANCH   6  10
ENDBRANCH   3   6
ENDBRANCH   1   2
BRANCH   1  13
HETATM   13  C           1     -21.292  -3.839  -7.210  0.00  0.00     0.052 C 
BRANCH  13  14
HETATM   14  C           1     -21.464  -4.104  -8.701  0.00  0.00     0.105 C 
BRANCH  14  15
HETATM   15  C           1     -22.930  -4.273  -9.016  0.00  0.00     0.215 C 
HETATM   16  N           1     -23.868  -4.069  -8.040  0.00  0.00    -0.370 N 
HETATM   17  H           1     -23.578  -3.805  -7.107  0.00  0.00     0.159 HD
HETATM   18  H           1     -24.850  -4.181  -8.251  0.00  0.00     0.159 HD
HETATM   19  O           1     -23.276  -4.587 -10.130  0.00  0.00    -0.274 OA
ENDBRANCH  14  15
ENDBRANCH  13  14
ENDBRANCH   1  13
BRANCH   1  20
HETATM   20  N           1     -19.956  -5.865  -7.663  0.00  0.00    -0.066 N 
HETATM   21  H           1     -18.911  -5.832  -7.657  0.00  0.00     0.275 HD
HETATM   22  H           1     -20.274  -6.846  -7.494  0.00  0.00     0.275 HD
HETATM   23  H           1     -20.309  -5.538  -8.591  0.00  0.00     0.275 HD
ENDBRANCH   1  20
TORSDOF 9
ENDMDL
