MODEL 1
REMARK VINA RESULT:      -6.1      0.000      0.000
REMARK  10 active torsions:
REMARK  status: ('A' for Active; 'I' for Inactive)
REMARK    1  A    between atoms: C_6  and  C_7 
REMARK    2  A    between atoms: C_6  and  N_9 
REMARK    3  A    between atoms: C_7  and  C_10 
REMARK    4  A    between atoms: C_10  and  C_11 
REMARK    5  A    between atoms: C_11  and  C_18 
REMARK    6  A    between atoms: C_11  and  N_22 
REMARK    7  A    between atoms: C_12  and  C_15 
REMARK    8  A    between atoms: N_13  and  C_15 
REMARK       I    between atoms: N_13  and  C_18 
REMARK    9  A    between atoms: C_14  and  C_16 
REMARK   10  A    between atoms: C_15  and  C_16 
ROOT
HETATM    1  C           1     -21.186  -5.894  -6.869  0.00  0.00     0.274 C 
ENDROOT
BRANCH   1   2
HETATM    2  C           1     -21.153  -5.534  -5.390  0.00  0.00     0.044 C 
BRANCH   2   3
HETATM    3  C           1     -22.045  -6.494  -4.613  0.00  0.00     0.030 C 
BRANCH   3   4
HETATM    4  C           1     -21.510  -6.651  -3.196  0.00  0.00     0.230 C 
BRANCH   4   5
HETATM    5  N           1     -22.388  -5.897  -2.242  0.00  0.00    -0.079 N 
HETATM    6  H           1     -23.168  -5.445  -2.769  0.00  0.00     0.274 HD
HETATM    7  H           1     -21.823  -5.163  -1.756  0.00  0.00     0.274 HD
HETATM    8  H           1     -22.782  -6.558  -1.535  0.00  0.00     0.274 HD
ENDBRANCH   4   5
ENDBRANCH   3   4
ENDBRANCH   2   3
ENDBRANCH   1   2
BRANCH   1   9
HETATM    9  C           1     -21.705  -4.719  -7.661  0.00  0.00     0.249 C 
HETATM   10  N           1     -22.275  -4.919  -8.889  0.00  0.00    -0.344 N 
HETATM   11  H           1     -22.350  -5.856  -9.265  0.00  0.00     0.163 HD
HETATM   12  O           1     -21.617  -3.601  -7.212  0.00  0.00    -0.271 OA
BRANCH  10  13
HETATM   13  C           1     -22.774  -3.791  -9.650  0.00  0.00     0.195 C 
BRANCH  13  14
HETATM   14  C           1     -24.282  -3.828  -9.674  0.00  0.00     0.197 C 
HETATM   15  O           1     -24.936  -2.772  -9.534  0.00  0.00    -0.646 OA
HETATM   16  O           1     -24.878  -4.915  -9.834  0.00  0.00    -0.646 OA
ENDBRANCH  13  14
BRANCH  13  17
HETATM   17  C           1     -22.241  -3.865 -11.075  0.00  0.00     0.149 C 
BRANCH  17  18
HETATM   18  C           1     -20.740  -3.708 -11.060  0.00  0.00     0.175 C 
HETATM   19  O           1     -20.012  -4.682 -10.770  0.00  0.00    -0.648 OA
HETATM   20  O           1     -20.224  -2.603 -11.337  0.00  0.00    -0.648 OA
ENDBRANCH  17  18
ENDBRANCH  13  17
ENDBRANCH  10  13
ENDBRANCH   1   9
BRANCH   1  21
HETATM   21  N           1     -19.800  -6.235  -7.331  0.00  0.00    -0.067 N 
HETATM   22  H           1     -19.422  -5.450  -7.908  0.00  0.00     0.275 HD
HETATM   23  H           1     -19.184  -6.385  -6.501  0.00  0.00     0.275 HD
HETATM   24  H           1     -19.829  -7.106  -7.906  0.00  0.00     0.275 HD
ENDBRANCH   1  21
TORSDOF 10
ENDMDL
MODEL 2
REMARK VINA RESULT:      -5.9      2.445      6.231
REMARK  10 active torsions:
REMARK  status: ('A' for Active; 'I' for Inactive)
REMARK    1  A    between atoms: C_6  and  C_7 
REMARK    2  A    between atoms: C_6  and  N_9 
REMARK    3  A    between atoms: C_7  and  C_10 
REMARK    4  A    between atoms: C_10  and  C_11 
REMARK    5  A    between atoms: C_11  and  C_18 
REMARK    6  A    between atoms: C_11  and  N_22 
REMARK    7  A    between atoms: C_12  and  C_15 
REMARK    8  A    between atoms: N_13  and  C_15 
REMARK       I    between atoms: N_13  and  C_18 
REMARK    9  A    between atoms: C_14  and  C_16 
REMARK   10  A    between atoms: C_15  and  C_16 
ROOT
HETATM    1  C           1     -23.548  -4.467  -9.146  0.00  0.00     0.274 C 
ENDROOT
BRANCH   1   2
HETATM    2  C           1     -23.166  -4.551 -10.618  0.00  0.00     0.044 C 
BRANCH   2   3
HETATM    3  C           1     -23.839  -3.418 -11.383  0.00  0.00     0.030 C 
BRANCH   3   4
HETATM    4  C           1     -22.787  -2.630 -12.152  0.00  0.00     0.230 C 
BRANCH   4   5
HETATM    5  N           1     -21.419  -3.104 -11.759  0.00  0.00    -0.079 N 
HETATM    6  H           1     -20.947  -3.534 -12.586  0.00  0.00     0.274 HD
HETATM    7  H           1     -21.503  -3.815 -10.996  0.00  0.00     0.274 HD
HETATM    8  H           1     -20.854  -2.294 -11.418  0.00  0.00     0.274 HD
ENDBRANCH   4   5
ENDBRANCH   3   4
ENDBRANCH   2   3
ENDBRANCH   1   2
BRANCH   1   9
HETATM    9  C           1     -22.317  -4.184  -8.322  0.00  0.00     0.249 C 
HETATM   10  N           1     -22.021  -4.970  -7.241  0.00  0.00    -0.344 N 
HETATM   11  H           1     -22.628  -5.742  -6.996  0.00  0.00     0.163 HD
HETATM   12  O           1     -21.591  -3.264  -8.616  0.00  0.00    -0.271 OA
BRANCH  10  13
HETATM   13  C           1     -20.837  -4.698  -6.449  0.00  0.00     0.195 C 
BRANCH  13  14
HETATM   14  C           1     -19.618  -5.216  -7.173  0.00  0.00     0.197 C 
HETATM   15  O           1     -18.659  -4.451  -7.407  0.00  0.00    -0.646 OA
HETATM   16  O           1     -19.569  -6.411  -7.537  0.00  0.00    -0.646 OA
ENDBRANCH  13  14
BRANCH  13  17
HETATM   17  C           1     -20.960  -5.393  -5.099  0.00  0.00     0.149 C 
BRANCH  17  18
HETATM   18  C           1     -22.063  -6.421  -5.161  0.00  0.00     0.175 C 
HETATM   19  O           1     -23.250  -6.078  -4.965  0.00  0.00    -0.648 OA
HETATM   20  O           1     -21.791  -7.616  -5.407  0.00  0.00    -0.648 OA
ENDBRANCH  17  18
ENDBRANCH  13  17
ENDBRANCH  10  13
ENDBRANCH   1   9
BRANCH   1  21
HETATM   21  N           1     -24.545  -3.363  -8.951  0.00  0.00    -0.067 N 
HETATM   22  H           1     -25.464  -3.647  -9.359  0.00  0.00     0.275 HD
HETATM   23  H           1     -24.661  -3.176  -7.930  0.00  0.00     0.275 HD
HETATM   24  H           1     -24.204  -2.498  -9.428  0.00  0.00     0.275 HD
ENDBRANCH   1  21
TORSDOF 10
ENDMDL
MODEL 3
REMARK VINA RESULT:      -5.9      1.908      3.468
REMARK  10 active torsions:
REMARK  status: ('A' for Active; 'I' for Inactive)
REMARK    1  A    between atoms: C_6  and  C_7 
REMARK    2  A    between atoms: C_6  and  N_9 
REMARK    3  A    between atoms: C_7  and  C_10 
REMARK    4  A    between atoms: C_10  and  C_11 
REMARK    5  A    between atoms: C_11  and  C_18 
REMARK    6  A    between atoms: C_11  and  N_22 
REMARK    7  A    between atoms: C_12  and  C_15 
REMARK    8  A    between atoms: N_13  and  C_15 
REMARK       I    between atoms: N_13  and  C_18 
REMARK    9  A    between atoms: C_14  and  C_16 
REMARK   10  A    between atoms: C_15  and  C_16 
ROOT
HETATM    1  C           1     -20.318  -3.764  -7.864  0.00  0.00     0.274 C 
ENDROOT
BRANCH   1   2
HETATM    2  C           1     -19.692  -4.909  -7.079  0.00  0.00     0.044 C 
BRANCH   2   3
HETATM    3  C           1     -20.125  -4.823  -5.620  0.00  0.00     0.030 C 
BRANCH   3   4
HETATM    4  C           1     -20.835  -6.111  -5.225  0.00  0.00     0.230 C 
BRANCH   4   5
HETATM    5  N           1     -20.842  -7.057  -6.389  0.00  0.00    -0.079 N 
HETATM    6  H           1     -20.372  -7.949  -6.116  0.00  0.00     0.274 HD
HETATM    7  H           1     -20.330  -6.625  -7.192  0.00  0.00     0.274 HD
HETATM    8  H           1     -21.828  -7.255  -6.672  0.00  0.00     0.274 HD
ENDBRANCH   4   5
ENDBRANCH   3   4
ENDBRANCH   2   3
ENDBRANCH   1   2
BRANCH   1   9
HETATM    9  C           1     -20.666  -4.238  -9.253  0.00  0.00     0.249 C 
HETATM   10  N           1     -21.854  -3.869  -9.824  0.00  0.00    -0.344 N 
HETATM   11  H           1     -22.499  -3.278  -9.315  0.00  0.00     0.163 HD
HETATM   12  O           1     -19.896  -4.942  -9.862  0.00  0.00    -0.271 OA
BRANCH  10  13
HETATM   13  C           1     -22.189  -4.324 -11.160  0.00  0.00     0.195 C 
BRANCH  13  14
HETATM   14  C           1     -22.098  -3.165 -12.123  0.00  0.00     0.197 C 
HETATM   15  O           1     -22.597  -3.261 -13.264  0.00  0.00    -0.646 OA
HETATM   16  O           1     -21.525  -2.110 -11.778  0.00  0.00    -0.646 OA
ENDBRANCH  13  14
BRANCH  13  17
HETATM   17  C           1     -23.607  -4.880 -11.166  0.00  0.00     0.149 C 
BRANCH  17  18
HETATM   18  C           1     -24.448  -4.124 -10.165  0.00  0.00     0.175 C 
HETATM   19  O           1     -25.140  -3.152 -10.538  0.00  0.00    -0.648 OA
HETATM   20  O           1     -24.453  -4.471  -8.964  0.00  0.00    -0.648 OA
ENDBRANCH  17  18
ENDBRANCH  13  17
ENDBRANCH  10  13
ENDBRANCH   1   9
BRANCH   1  21
HETATM   21  N           1     -21.564  -3.303  -7.166  0.00  0.00    -0.067 N 
HETATM   22  H           1     -22.286  -4.058  -7.207  0.00  0.00     0.275 HD
HETATM   23  H           1     -21.344  -3.086  -6.168  0.00  0.00     0.275 HD
HETATM   24  H           1     -21.930  -2.446  -7.638  0.00  0.00     0.275 HD
ENDBRANCH   1  21
TORSDOF 10
ENDMDL
MODEL 4
REMARK VINA RESULT:      -5.8      3.467      6.536
REMARK  10 active torsions:
REMARK  status: ('A' for Active; 'I' for Inactive)
REMARK    1  A    between atoms: C_6  and  C_7 
REMARK    2  A    between atoms: C_6  and  N_9 
REMARK    3  A    between atoms: C_7  and  C_10 
REMARK    4  A    between atoms: C_10  and  C_11 
REMARK    5  A    between atoms: C_11  and  C_18 
REMARK    6  A    between atoms: C_11  and  N_22 
REMARK    7  A    between atoms: C_12  and  C_15 
REMARK    8  A    between atoms: N_13  and  C_15 
REMARK       I    between atoms: N_13  and  C_18 
REMARK    9  A    between atoms: C_14  and  C_16 
REMARK   10  A    between atoms: C_15  and  C_16 
ROOT
HETATM    1  C           1     -20.498  -5.042  -6.518  0.00  0.00     0.274 C 
ENDROOT
BRANCH   1   2
HETATM    2  C           1     -21.293  -3.906  -7.148  0.00  0.00     0.044 C 
BRANCH   2   3
HETATM    3  C           1     -21.399  -4.131  -8.651  0.00  0.00     0.030 C 
BRANCH   3   4
HETATM    4  C           1     -22.847  -3.962  -9.089  0.00  0.00     0.230 C 
BRANCH   4   5
HETATM    5  N           1     -23.749  -4.086  -7.897  0.00  0.00    -0.079 N 
HETATM    6  H           1     -24.630  -3.551  -8.069  0.00  0.00     0.274 HD
HETATM    7  H           1     -23.266  -3.700  -7.054  0.00  0.00     0.274 HD
HETATM    8  H           1     -23.978  -5.092  -7.736  0.00  0.00     0.274 HD
ENDBRANCH   4   5
ENDBRANCH   3   4
ENDBRANCH   2   3
ENDBRANCH   1   2
BRANCH   1   9
HETATM    9  C           1     -21.394  -5.831  -5.594  0.00  0.00     0.249 C 
HETATM   10  N           1     -20.850  -6.731  -4.718  0.00  0.00    -0.344 N 
HETATM   11  H           1     -19.848  -6.867  -4.690  0.00  0.00     0.163 HD
HETATM   12  O           1     -22.590  -5.667  -5.627  0.00  0.00    -0.271 OA
BRANCH  10  13
HETATM   13  C           1     -21.710  -7.489  -3.831  0.00  0.00     0.195 C 
BRANCH  13  14
HETATM   14  C           1     -21.637  -6.904  -2.441  0.00  0.00     0.197 C 
HETATM   15  O           1     -20.917  -7.443  -1.573  0.00  0.00    -0.646 OA
HETATM   16  O           1     -22.297  -5.881  -2.158  0.00  0.00    -0.646 OA
ENDBRANCH  13  14
BRANCH  13  17
HETATM   17  C           1     -21.250  -8.940  -3.796  0.00  0.00     0.149 C 
BRANCH  17  18
HETATM   18  C           1     -19.949  -9.074  -4.551  0.00  0.00     0.175 C 
HETATM   19  O           1     -19.960  -9.348  -5.771  0.00  0.00    -0.648 OA
HETATM   20  O           1     -18.862  -8.912  -3.957  0.00  0.00    -0.648 OA
ENDBRANCH  17  18
ENDBRANCH  13  17
ENDBRANCH  10  13
ENDBRANCH   1   9
BRANCH   1  21
HETATM   21  N           1     -19.976  -5.943  -7.597  0.00  0.00    -0.067 N 
HETATM   22  H           1     -18.997  -6.230  -7.369  0.00  0.00     0.275 HD
HETATM   23  H           1     -20.580  -6.793  -7.663  0.00  0.00     0.275 HD
HETATM   24  H           1     -19.986  -5.436  -8.510  0.00  0.00     0.275 HD
ENDBRANCH   1  21
TORSDOF 10
ENDMDL
MODEL 5
REMARK VINA RESULT:      -5.2      3.457      6.655
REMARK  10 active torsions:
REMARK  status: ('A' for Active; 'I' for Inactive)
REMARK    1  A    between atoms: C_6  and  C_7 
REMARK    2  A    between atoms: C_6  and  N_9 
REMARK    3  A    between atoms: C_7  and  C_10 
REMARK    4  A    between atoms: C_10  and  C_11 
REMARK    5  A    between atoms: C_11  and  C_18 
REMARK    6  A    between atoms: C_11  and  N_22 
REMARK    7  A    between atoms: C_12  and  C_15 
REMARK    8  A    between atoms: N_13  and  C_15 
REMARK       I    between atoms: N_13  and  C_18 
REMARK    9  A    between atoms: C_14  and  C_16 
REMARK   10  A    between atoms: C_15  and  C_16 
ROOT
HETATM    1  C           1     -21.116  -4.065  -7.470  0.00  0.00     0.274 C 
ENDROOT
BRANCH   1   2
HETATM    2  C           1     -22.583  -4.331  -7.784  0.00  0.00     0.044 C 
BRANCH   2   3
HETATM    3  C           1     -22.933  -3.720  -9.135  0.00  0.00     0.030 C 
BRANCH   3   4
HETATM    4  C           1     -24.126  -4.455  -9.731  0.00  0.00     0.230 C 
BRANCH   4   5
HETATM    5  N           1     -25.341  -3.578  -9.660  0.00  0.00    -0.079 N 
HETATM    6  H           1     -25.773  -3.503 -10.608  0.00  0.00     0.274 HD
HETATM    7  H           1     -25.064  -2.626  -9.327  0.00  0.00     0.274 HD
HETATM    8  H           1     -26.031  -3.992  -8.994  0.00  0.00     0.274 HD
ENDBRANCH   4   5
ENDBRANCH   3   4
ENDBRANCH   2   3
ENDBRANCH   1   2
BRANCH   1   9
HETATM    9  C           1     -20.711  -4.858  -6.252  0.00  0.00     0.249 C 
HETATM   10  N           1     -21.267  -6.086  -6.018  0.00  0.00    -0.344 N 
HETATM   11  H           1     -21.951  -6.463  -6.663  0.00  0.00     0.163 HD
HETATM   12  O           1     -19.894  -4.409  -5.484  0.00  0.00    -0.271 OA
BRANCH  10  13
HETATM   13  C           1     -20.878  -6.848  -4.848  0.00  0.00     0.195 C 
BRANCH  13  14
HETATM   14  C           1     -20.375  -8.205  -5.276  0.00  0.00     0.197 C 
HETATM   15  O           1     -19.235  -8.585  -4.936  0.00  0.00    -0.646 OA
HETATM   16  O           1     -21.101  -8.949  -5.971  0.00  0.00    -0.646 OA
ENDBRANCH  13  14
BRANCH  13  17
HETATM   17  C           1     -22.081  -7.017  -3.930  0.00  0.00     0.149 C 
BRANCH  17  18
HETATM   18  C           1     -21.683  -6.686  -2.512  0.00  0.00     0.175 C 
HETATM   19  O           1     -22.216  -5.720  -1.923  0.00  0.00    -0.648 OA
HETATM   20  O           1     -20.821  -7.376  -1.927  0.00  0.00    -0.648 OA
ENDBRANCH  17  18
ENDBRANCH  13  17
ENDBRANCH  10  13
ENDBRANCH   1   9
BRANCH   1  21
HETATM   21  N           1     -20.273  -4.479  -8.640  0.00  0.00    -0.067 N 
HETATM   22  H           1     -19.744  -5.347  -8.398  0.00  0.00     0.275 HD
HETATM   23  H           1     -20.888  -4.665  -9.464  0.00  0.00     0.275 HD
HETATM   24  H           1     -19.600  -3.715  -8.872  0.00  0.00     0.275 HD
ENDBRANCH   1  21
TORSDOF 10
ENDMDL
MODEL 6
REMARK VINA RESULT:      -5.2      4.399      6.780
REMARK  10 active torsions:
REMARK  status: ('A' for Active; 'I' for Inactive)
REMARK    1  A    between atoms: C_6  and  C_7 
REMARK    2  A    between atoms: C_6  and  N_9 
REMARK    3  A    between atoms: C_7  and  C_10 
REMARK    4  A    between atoms: C_10  and  C_11 
REMARK    5  A    between atoms: C_11  and  C_18 
REMARK    6  A    between atoms: C_11  and  N_22 
REMARK    7  A    between atoms: C_12  and  C_15 
REMARK    8  A    between atoms: N_13  and  C_15 
REMARK       I    between atoms: N_13  and  C_18 
REMARK    9  A    between atoms: C_14  and  C_16 
REMARK   10  A    between atoms: C_15  and  C_16 
ROOT
HETATM    1  C           1     -21.712  -7.177  -1.228  0.00  0.00     0.274 C 
ENDROOT
BRANCH   1   2
HETATM    2  C           1     -22.634  -7.873  -0.236  0.00  0.00     0.044 C 
BRANCH   2   3
HETATM    3  C           1     -21.889  -8.110   1.072  0.00  0.00     0.030 C 
BRANCH   3   4
HETATM    4  C           1     -21.075  -9.392   0.968  0.00  0.00     0.230 C 
BRANCH   4   5
HETATM    5  N           1     -21.899 -10.456   0.305  0.00  0.00    -0.079 N 
HETATM    6  H           1     -21.309 -11.304   0.144  0.00  0.00     0.274 HD
HETATM    7  H           1     -22.255 -10.100  -0.611  0.00  0.00     0.274 HD
HETATM    8  H           1     -22.706 -10.705   0.919  0.00  0.00     0.274 HD
ENDBRANCH   4   5
ENDBRANCH   3   4
ENDBRANCH   2   3
ENDBRANCH   1   2
BRANCH   1   9
HETATM    9  C           1     -21.542  -8.042  -2.452  0.00  0.00     0.249 C 
HETATM   10  N           1     -20.928  -7.539  -3.566  0.00  0.00    -0.344 N 
HETATM   11  H           1     -20.586  -6.587  -3.569  0.00  0.00     0.163 HD
HETATM   12  O           1     -21.949  -9.180  -2.449  0.00  0.00    -0.271 OA
BRANCH  10  13
HETATM   13  C           1     -20.765  -8.371  -4.743  0.00  0.00     0.195 C 
BRANCH  13  14
HETATM   14  C           1     -19.311  -8.747  -4.895  0.00  0.00     0.197 C 
HETATM   15  O           1     -18.790  -8.782  -6.030  0.00  0.00    -0.646 OA
HETATM   16  O           1     -18.628  -9.022  -3.885  0.00  0.00    -0.646 OA
ENDBRANCH  13  14
BRANCH  13  17
HETATM   17  C           1     -21.222  -7.602  -5.975  0.00  0.00     0.149 C 
BRANCH  17  18
HETATM   18  C           1     -21.660  -6.215  -5.569  0.00  0.00     0.175 C 
HETATM   19  O           1     -22.845  -6.008  -5.228  0.00  0.00    -0.648 OA
HETATM   20  O           1     -20.838  -5.274  -5.574  0.00  0.00    -0.648 OA
ENDBRANCH  17  18
ENDBRANCH  13  17
ENDBRANCH  10  13
ENDBRANCH   1   9
BRANCH   1  21
HETATM   21  N           1     -22.311  -5.860  -1.626  0.00  0.00    -0.067 N 
HETATM   22  H           1     -23.201  -6.025  -2.148  0.00  0.00     0.275 HD
HETATM   23  H           1     -22.509  -5.295  -0.770  0.00  0.00     0.275 HD
HETATM   24  H           1     -21.639  -5.343  -2.238  0.00  0.00     0.275 HD
ENDBRANCH   1  21
TORSDOF 10
ENDMDL
MODEL 7
REMARK VINA RESULT:      -5.1      1.930      3.560
REMARK  10 active torsions:
REMARK  status: ('A' for Active; 'I' for Inactive)
REMARK    1  A    between atoms: C_6  and  C_7 
REMARK    2  A    between atoms: C_6  and  N_9 
REMARK    3  A    between atoms: C_7  and  C_10 
REMARK    4  A    between atoms: C_10  and  C_11 
REMARK    5  A    between atoms: C_11  and  C_18 
REMARK    6  A    between atoms: C_11  and  N_22 
REMARK    7  A    between atoms: C_12  and  C_15 
REMARK    8  A    between atoms: N_13  and  C_15 
REMARK       I    between atoms: N_13  and  C_18 
REMARK    9  A    between atoms: C_14  and  C_16 
REMARK   10  A    between atoms: C_15  and  C_16 
ROOT
HETATM    1  C           1     -21.326  -6.005  -4.957  0.00  0.00     0.274 C 
ENDROOT
BRANCH   1   2
HETATM    2  C           1     -20.505  -7.218  -4.539  0.00  0.00     0.044 C 
BRANCH   2   3
HETATM    3  C           1     -21.381  -8.173  -3.737  0.00  0.00     0.030 C 
BRANCH   3   4
HETATM    4  C           1     -21.275  -9.573  -4.325  0.00  0.00     0.230 C 
BRANCH   4   5
HETATM    5  N           1     -20.777  -9.488  -5.737  0.00  0.00    -0.079 N 
HETATM    6  H           1     -19.782  -9.169  -5.737  0.00  0.00     0.274 HD
HETATM    7  H           1     -21.362  -8.806  -6.272  0.00  0.00     0.274 HD
HETATM    8  H           1     -20.841 -10.429  -6.186  0.00  0.00     0.274 HD
ENDBRANCH   4   5
ENDBRANCH   3   4
ENDBRANCH   2   3
ENDBRANCH   1   2
BRANCH   1   9
HETATM    9  C           1     -21.374  -5.924  -6.463  0.00  0.00     0.249 C 
HETATM   10  N           1     -21.841  -4.791  -7.073  0.00  0.00    -0.344 N 
HETATM   11  H           1     -22.154  -4.008  -6.514  0.00  0.00     0.163 HD
HETATM   12  O           1     -20.999  -6.858  -7.131  0.00  0.00    -0.271 OA
BRANCH  10  13
HETATM   13  C           1     -21.887  -4.713  -8.520  0.00  0.00     0.195 C 
BRANCH  13  14
HETATM   14  C           1     -20.526  -4.324  -9.045  0.00  0.00     0.197 C 
HETATM   15  O           1     -20.215  -4.585 -10.227  0.00  0.00    -0.646 OA
HETATM   16  O           1     -19.711  -3.741  -8.299  0.00  0.00    -0.646 OA
ENDBRANCH  13  14
BRANCH  13  17
HETATM   17  C           1     -22.911  -3.667  -8.939  0.00  0.00     0.149 C 
BRANCH  17  18
HETATM   18  C           1     -23.931  -4.300  -9.855  0.00  0.00     0.175 C 
HETATM   19  O           1     -23.623  -5.303 -10.535  0.00  0.00    -0.648 OA
HETATM   20  O           1     -25.083  -3.821  -9.933  0.00  0.00    -0.648 OA
ENDBRANCH  17  18
ENDBRANCH  13  17
ENDBRANCH  10  13
ENDBRANCH   1   9
BRANCH   1  21
HETATM   21  N           1     -22.720  -6.136  -4.419  0.00  0.00    -0.067 N 
HETATM   22  H           1     -22.752  -6.909  -3.718  0.00  0.00     0.275 HD
HETATM   23  H           1     -23.002  -5.240  -3.962  0.00  0.00     0.275 HD
HETATM   24  H           1     -23.377  -6.350  -5.203  0.00  0.00     0.275 HD
ENDBRANCH   1  21
TORSDOF 10
ENDMDL
MODEL 8
REMARK VINA RESULT:      -5.1      4.538      7.734
REMARK  10 active torsions:
REMARK  status: ('A' for Active; 'I' for Inactive)
REMARK    1  A    between atoms: C_6  and  C_7 
REMARK    2  A    between atoms: C_6  and  N_9 
REMARK    3  A    between atoms: C_7  and  C_10 
REMARK    4  A    between atoms: C_10  and  C_11 
REMARK    5  A    between atoms: C_11  and  C_18 
REMARK    6  A    between atoms: C_11  and  N_22 
REMARK    7  A    between atoms: C_12  and  C_15 
REMARK    8  A    between atoms: N_13  and  C_15 
REMARK       I    between atoms: N_13  and  C_18 
REMARK    9  A    between atoms: C_14  and  C_16 
REMARK   10  A    between atoms: C_15  and  C_16 
ROOT
HETATM    1  C           1     -21.400  -6.791  -5.912  0.00  0.00     0.274 C 
ENDROOT
BRANCH   1   2
HETATM    2  C           1     -20.317  -5.957  -6.583  0.00  0.00     0.044 C 
BRANCH   2   3
HETATM    3  C           1     -20.741  -4.494  -6.604  0.00  0.00     0.030 C 
BRANCH   3   4
HETATM    4  C           1     -21.073  -4.082  -8.032  0.00  0.00     0.230 C 
BRANCH   4   5
HETATM    5  N           1     -22.429  -3.443  -8.067  0.00  0.00    -0.079 N 
HETATM    6  H           1     -22.349  -2.438  -7.792  0.00  0.00     0.274 HD
HETATM    7  H           1     -23.064  -3.938  -7.399  0.00  0.00     0.274 HD
HETATM    8  H           1     -22.822  -3.510  -9.033  0.00  0.00     0.274 HD
ENDBRANCH   4   5
ENDBRANCH   3   4
ENDBRANCH   2   3
ENDBRANCH   1   2
BRANCH   1   9
HETATM    9  C           1     -20.794  -7.591  -4.785  0.00  0.00     0.249 C 
HETATM   10  N           1     -21.532  -7.865  -3.666  0.00  0.00    -0.344 N 
HETATM   11  H           1     -22.485  -7.530  -3.594  0.00  0.00     0.163 HD
HETATM   12  O           1     -19.657  -7.991  -4.872  0.00  0.00    -0.271 OA
BRANCH  10  13
HETATM   13  C           1     -20.950  -8.634  -2.583  0.00  0.00     0.195 C 
BRANCH  13  14
HETATM   14  C           1     -21.796  -9.856  -2.324  0.00  0.00     0.197 C 
HETATM   15  O           1     -21.876 -10.327  -1.169  0.00  0.00    -0.646 OA
HETATM   16  O           1     -22.418 -10.396  -3.264  0.00  0.00    -0.646 OA
ENDBRANCH  13  14
BRANCH  13  17
HETATM   17  C           1     -20.895  -7.777  -1.325  0.00  0.00     0.149 C 
BRANCH  17  18
HETATM   18  C           1     -22.120  -6.898  -1.261  0.00  0.00     0.175 C 
HETATM   19  O           1     -22.207  -5.892  -1.999  0.00  0.00    -0.648 OA
HETATM   20  O           1     -23.048  -7.175  -0.471  0.00  0.00    -0.648 OA
ENDBRANCH  17  18
ENDBRANCH  13  17
ENDBRANCH  10  13
ENDBRANCH   1   9
BRANCH   1  21
HETATM   21  N           1     -22.462  -5.883  -5.365  0.00  0.00    -0.067 N 
HETATM   22  H           1     -23.335  -6.431  -5.193  0.00  0.00     0.275 HD
HETATM   23  H           1     -22.132  -5.464  -4.467  0.00  0.00     0.275 HD
HETATM   24  H           1     -22.658  -5.123  -6.054  0.00  0.00     0.275 HD
ENDBRANCH   1  21
TORSDOF 10
ENDMDL
MODEL 9
REMARK VINA RESULT:      -5.0     10.907     13.303
REMARK  10 active torsions:
REMARK  status: ('A' for Active; 'I' for Inactive)
REMARK    1  A    between atoms: C_6  and  C_7 
REMARK    2  A    between atoms: C_6  and  N_9 
REMARK    3  A    between atoms: C_7  and  C_10 
REMARK    4  A    between atoms: C_10  and  C_11 
REMARK    5  A    between atoms: C_11  and  C_18 
REMARK    6  A    between atoms: C_11  and  N_22 
REMARK    7  A    between atoms: C_12  and  C_15 
REMARK    8  A    between atoms: N_13  and  C_15 
REMARK       I    between atoms: N_13  and  C_18 
REMARK    9  A    between atoms: C_14  and  C_16 
REMARK   10  A    between atoms: C_15  and  C_16 
ROOT
HETATM    1  C           1     -26.773  -7.277 -19.830  0.00  0.00     0.274 C 
ENDROOT
BRANCH   1   2
HETATM    2  C           1     -26.018  -6.347 -20.771  0.00  0.00     0.044 C 
BRANCH   2   3
HETATM    3  C           1     -24.880  -7.111 -21.436  0.00  0.00     0.030 C 
BRANCH   3   4
HETATM    4  C           1     -24.087  -7.864 -20.376  0.00  0.00     0.230 C 
BRANCH   4   5
HETATM    5  N           1     -23.133  -8.810 -21.042  0.00  0.00    -0.079 N 
HETATM    6  H           1     -23.411  -9.794 -20.827  0.00  0.00     0.274 HD
HETATM    7  H           1     -22.165  -8.635 -20.687  0.00  0.00     0.274 HD
HETATM    8  H           1     -23.157  -8.660 -22.075  0.00  0.00     0.274 HD
ENDBRANCH   4   5
ENDBRANCH   3   4
ENDBRANCH   2   3
ENDBRANCH   1   2
BRANCH   1   9
HETATM    9  C           1     -27.695  -6.465 -18.953  0.00  0.00     0.249 C 
HETATM   10  N           1     -28.136  -6.978 -17.764  0.00  0.00    -0.344 N 
HETATM   11  H           1     -27.844  -7.902 -17.472  0.00  0.00     0.163 HD
HETATM   12  O           1     -28.044  -5.362 -19.301  0.00  0.00    -0.271 OA
BRANCH  10  13
HETATM   13  C           1     -29.022  -6.199 -16.922  0.00  0.00     0.195 C 
BRANCH  13  14
HETATM   14  C           1     -28.668  -6.427 -15.473  0.00  0.00     0.197 C 
HETATM   15  O           1     -29.072  -5.631 -14.598  0.00  0.00    -0.646 OA
HETATM   16  O           1     -27.971  -7.413 -15.148  0.00  0.00    -0.646 OA
ENDBRANCH  13  14
BRANCH  13  17
HETATM   17  C           1     -30.463  -6.628 -17.166  0.00  0.00     0.149 C 
BRANCH  17  18
HETATM   18  C           1     -31.353  -5.410 -17.201  0.00  0.00     0.175 C 
HETATM   19  O           1     -30.884  -4.303 -17.547  0.00  0.00    -0.648 OA
HETATM   20  O           1     -32.558  -5.506 -16.885  0.00  0.00    -0.648 OA
ENDBRANCH  17  18
ENDBRANCH  13  17
ENDBRANCH  10  13
ENDBRANCH   1   9
BRANCH   1  21
HETATM   21  N           1     -27.579  -8.254 -20.632  0.00  0.00    -0.067 N 
HETATM   22  H           1     -28.563  -7.912 -20.712  0.00  0.00     0.275 HD
HETATM   23  H           1     -27.164  -8.346 -21.587  0.00  0.00     0.275 HD
HETATM   24  H           1     -27.571  -9.185 -20.158  0.00  0.00     0.275 HD
ENDBRANCH   1  21
TORSDOF 10
ENDMDL
