MODEL 1
REMARK VINA RESULT:      -8.4      0.000      0.000
REMARK  6 active torsions:
REMARK  status: ('A' for Active; 'I' for Inactive)
REMARK    1  A    between atoms: C_3  and  C_9 
REMARK    2  A    between atoms: C_3  and  N_20 
REMARK    3  A    between atoms: C_5  and  C_17 
REMARK    4  A    between atoms: C_5  and  C_12 
REMARK    5  A    between atoms: N_11  and  C_17 
REMARK    6  A    between atoms: C_17  and  C_18 
REMARK       I    between atoms: C_18  and  N_20 
ROOT
HETATM    1  C           1     -23.746  -4.060 -11.832  0.00  0.00     0.278 C 
ENDROOT
BRANCH   1   2
HETATM    2  C           1     -22.632  -3.361 -11.064  0.00  0.00     0.083 C 
BRANCH   2   3
HETATM    3  C           1     -22.708  -3.737  -9.618  0.00  0.00    -0.028 A 
HETATM    4  C           1     -23.858  -3.857  -8.870  0.00  0.00     0.096 A 
HETATM    5  N           1     -23.496  -4.217  -7.599  0.00  0.00    -0.365 N 
HETATM    6  H           1     -24.166  -4.381  -6.808  0.00  0.00     0.165 HD
HETATM    7  C           1     -22.127  -4.334  -7.510  0.00  0.00     0.042 A 
HETATM    8  C           1     -21.319  -4.677  -6.419  0.00  0.00     0.030 A 
HETATM    9  C           1     -21.607  -4.036  -8.769  0.00  0.00    -0.002 A 
HETATM   10  C           1     -19.936  -4.716  -6.628  0.00  0.00     0.002 A 
HETATM   11  C           1     -19.388  -4.424  -7.875  0.00  0.00     0.001 A 
HETATM   12  C           1     -20.212  -4.082  -8.954  0.00  0.00     0.014 A 
ENDBRANCH   2   3
ENDBRANCH   1   2
BRANCH   1  13
HETATM   13  N           1     -23.514  -5.542 -11.808  0.00  0.00    -0.066 N 
HETATM   14  H           1     -23.937  -5.947 -10.943  0.00  0.00     0.275 HD
HETATM   15  H           1     -23.959  -5.976 -12.648  0.00  0.00     0.275 HD
HETATM   16  H           1     -22.487  -5.734 -11.818  0.00  0.00     0.275 HD
ENDBRANCH   1  13
BRANCH   1  17
HETATM   17  C           1     -23.753  -3.575 -13.261  0.00  0.00     0.249 C 
HETATM   18  O           1     -24.401  -4.163 -14.094  0.00  0.00    -0.271 OA
HETATM   19  N           1     -23.025  -2.470 -13.613  0.00  0.00    -0.349 N 
HETATM   20  H           1     -22.483  -1.978 -12.915  0.00  0.00     0.163 HD
BRANCH  19  21
HETATM   21  C           1     -23.032  -2.005 -14.986  0.00  0.00     0.235 C 
BRANCH  21  22
HETATM   22  C           1     -23.945  -0.809 -15.108  0.00  0.00     0.191 C 
HETATM   23  O           1     -25.096  -0.850 -14.622  0.00  0.00    -0.647 OA
HETATM   24  O           1     -23.548   0.223 -15.692  0.00  0.00    -0.647 OA
ENDBRANCH  21  22
ENDBRANCH  19  21
ENDBRANCH   1  17
TORSDOF 6
ENDMDL
MODEL 2
REMARK VINA RESULT:      -8.4      1.760      2.552
REMARK  6 active torsions:
REMARK  status: ('A' for Active; 'I' for Inactive)
REMARK    1  A    between atoms: C_3  and  C_9 
REMARK    2  A    between atoms: C_3  and  N_20 
REMARK    3  A    between atoms: C_5  and  C_17 
REMARK    4  A    between atoms: C_5  and  C_12 
REMARK    5  A    between atoms: N_11  and  C_17 
REMARK    6  A    between atoms: C_17  and  C_18 
REMARK       I    between atoms: C_18  and  N_20 
ROOT
HETATM    1  C           1     -24.246  -3.426 -10.433  0.00  0.00     0.278 C 
ENDROOT
BRANCH   1   2
HETATM    2  C           1     -23.569  -4.788 -10.497  0.00  0.00     0.083 C 
BRANCH   2   3
HETATM    3  C           1     -22.122  -4.644 -10.145  0.00  0.00    -0.028 A 
HETATM    4  C           1     -21.082  -4.489 -11.033  0.00  0.00     0.096 A 
HETATM    5  N           1     -19.923  -4.394 -10.309  0.00  0.00    -0.365 N 
HETATM    6  H           1     -18.966  -4.269 -10.723  0.00  0.00     0.165 HD
HETATM    7  C           1     -20.194  -4.485  -8.962  0.00  0.00     0.042 A 
HETATM    8  C           1     -19.330  -4.440  -7.861  0.00  0.00     0.030 A 
HETATM    9  C           1     -21.574  -4.644  -8.832  0.00  0.00    -0.002 A 
HETATM   10  C           1     -19.899  -4.561  -6.589  0.00  0.00     0.002 A 
HETATM   11  C           1     -21.274  -4.720  -6.429  0.00  0.00     0.001 A 
HETATM   12  C           1     -22.123  -4.764  -7.541  0.00  0.00     0.014 A 
ENDBRANCH   2   3
ENDBRANCH   1   2
BRANCH   1  13
HETATM   13  N           1     -25.564  -3.556  -9.728  0.00  0.00    -0.066 N 
HETATM   14  H           1     -26.260  -3.996 -10.371  0.00  0.00     0.275 HD
HETATM   15  H           1     -25.446  -4.153  -8.880  0.00  0.00     0.275 HD
HETATM   16  H           1     -25.902  -2.609  -9.445  0.00  0.00     0.275 HD
ENDBRANCH   1  13
BRANCH   1  17
HETATM   17  C           1     -24.473  -2.910 -11.832  0.00  0.00     0.249 C 
HETATM   18  O           1     -25.558  -3.025 -12.350  0.00  0.00    -0.271 OA
HETATM   19  N           1     -23.448  -2.312 -12.516  0.00  0.00    -0.349 N 
HETATM   20  H           1     -22.539  -2.215 -12.083  0.00  0.00     0.163 HD
BRANCH  19  21
HETATM   21  C           1     -23.666  -1.816 -13.861  0.00  0.00     0.235 C 
BRANCH  21  22
HETATM   22  C           1     -23.257  -2.872 -14.859  0.00  0.00     0.191 C 
HETATM   23  O           1     -22.271  -2.679 -15.603  0.00  0.00    -0.647 OA
HETATM   24  O           1     -23.903  -3.939 -14.940  0.00  0.00    -0.647 OA
ENDBRANCH  21  22
ENDBRANCH  19  21
ENDBRANCH   1  17
TORSDOF 6
ENDMDL
MODEL 3
REMARK VINA RESULT:      -7.8      4.771      8.020
REMARK  6 active torsions:
REMARK  status: ('A' for Active; 'I' for Inactive)
REMARK    1  A    between atoms: C_3  and  C_9 
REMARK    2  A    between atoms: C_3  and  N_20 
REMARK    3  A    between atoms: C_5  and  C_17 
REMARK    4  A    between atoms: C_5  and  C_12 
REMARK    5  A    between atoms: N_11  and  C_17 
REMARK    6  A    between atoms: C_17  and  C_18 
REMARK       I    between atoms: C_18  and  N_20 
ROOT
HETATM    1  C           1     -22.103  -4.499  -7.305  0.00  0.00     0.278 C 
ENDROOT
BRANCH   1   2
HETATM    2  C           1     -21.848  -4.733  -8.788  0.00  0.00     0.083 C 
BRANCH   2   3
HETATM    3  C           1     -23.009  -4.220  -9.582  0.00  0.00    -0.028 A 
HETATM    4  C           1     -24.302  -4.082  -9.131  0.00  0.00     0.096 A 
HETATM    5  N           1     -25.053  -3.582 -10.162  0.00  0.00    -0.365 N 
HETATM    6  H           1     -26.081  -3.373 -10.109  0.00  0.00     0.165 HD
HETATM    7  C           1     -24.267  -3.392 -11.276  0.00  0.00     0.042 A 
HETATM    8  C           1     -24.600  -2.906 -12.546  0.00  0.00     0.030 A 
HETATM    9  C           1     -22.973  -3.788 -10.936  0.00  0.00    -0.002 A 
HETATM   10  C           1     -23.576  -2.822 -13.495  0.00  0.00     0.002 A 
HETATM   11  C           1     -22.274  -3.209 -13.183  0.00  0.00     0.001 A 
HETATM   12  C           1     -21.959  -3.694 -11.908  0.00  0.00     0.014 A 
ENDBRANCH   2   3
ENDBRANCH   1   2
BRANCH   1  13
HETATM   13  N           1     -21.421  -3.234  -6.874  0.00  0.00    -0.066 N 
HETATM   14  H           1     -21.044  -2.739  -7.713  0.00  0.00     0.275 HD
HETATM   15  H           1     -22.108  -2.618  -6.386  0.00  0.00     0.275 HD
HETATM   16  H           1     -20.636  -3.466  -6.225  0.00  0.00     0.275 HD
ENDBRANCH   1  13
BRANCH   1  17
HETATM   17  C           1     -21.556  -5.660  -6.511  0.00  0.00     0.249 C 
HETATM   18  O           1     -20.763  -6.417  -7.017  0.00  0.00    -0.271 OA
HETATM   19  N           1     -21.961  -5.855  -5.217  0.00  0.00    -0.349 N 
HETATM   20  H           1     -22.625  -5.221  -4.793  0.00  0.00     0.163 HD
BRANCH  19  21
HETATM   21  C           1     -21.435  -6.971  -4.454  0.00  0.00     0.235 C 
BRANCH  21  22
HETATM   22  C           1     -21.596  -6.693  -2.980  0.00  0.00     0.191 C 
HETATM   23  O           1     -22.462  -5.881  -2.588  0.00  0.00    -0.647 OA
HETATM   24  O           1     -20.864  -7.276  -2.150  0.00  0.00    -0.647 OA
ENDBRANCH  21  22
ENDBRANCH  19  21
ENDBRANCH   1  17
TORSDOF 6
ENDMDL
MODEL 4
REMARK VINA RESULT:      -7.5     11.489     13.216
REMARK  6 active torsions:
REMARK  status: ('A' for Active; 'I' for Inactive)
REMARK    1  A    between atoms: C_3  and  C_9 
REMARK    2  A    between atoms: C_3  and  N_20 
REMARK    3  A    between atoms: C_5  and  C_17 
REMARK    4  A    between atoms: C_5  and  C_12 
REMARK    5  A    between atoms: N_11  and  C_17 
REMARK    6  A    between atoms: C_17  and  C_18 
REMARK       I    between atoms: C_18  and  N_20 
ROOT
HETATM    1  C           1     -36.109   0.118 -15.082  0.00  0.00     0.278 C 
ENDROOT
BRANCH   1   2
HETATM    2  C           1     -37.025  -0.580 -14.086  0.00  0.00     0.083 C 
BRANCH   2   3
HETATM    3  C           1     -36.324  -0.716 -12.771  0.00  0.00    -0.028 A 
HETATM    4  C           1     -36.530   0.065 -11.657  0.00  0.00     0.096 A 
HETATM    5  N           1     -35.694  -0.384 -10.669  0.00  0.00    -0.365 N 
HETATM    6  H           1     -35.632   0.024  -9.703  0.00  0.00     0.165 HD
HETATM    7  C           1     -34.946  -1.446 -11.125  0.00  0.00     0.042 A 
HETATM    8  C           1     -33.974  -2.214 -10.473  0.00  0.00     0.030 A 
HETATM    9  C           1     -35.324  -1.676 -12.448  0.00  0.00    -0.002 A 
HETATM   10  C           1     -33.372  -3.247 -11.199  0.00  0.00     0.002 A 
HETATM   11  C           1     -33.730  -3.499 -12.522  0.00  0.00     0.001 A 
HETATM   12  C           1     -34.705  -2.721 -13.159  0.00  0.00     0.014 A 
ENDBRANCH   2   3
ENDBRANCH   1   2
BRANCH   1  13
HETATM   13  N           1     -36.773   1.369 -15.579  0.00  0.00    -0.066 N 
HETATM   14  H           1     -37.810   1.241 -15.565  0.00  0.00     0.275 HD
HETATM   15  H           1     -36.512   2.169 -14.961  0.00  0.00     0.275 HD
HETATM   16  H           1     -36.459   1.564 -16.556  0.00  0.00     0.275 HD
ENDBRANCH   1  13
BRANCH   1  17
HETATM   17  C           1     -35.835  -0.802 -16.245  0.00  0.00     0.249 C 
HETATM   18  O           1     -36.570  -0.799 -17.204  0.00  0.00    -0.271 OA
HETATM   19  N           1     -34.753  -1.641 -16.215  0.00  0.00    -0.349 N 
HETATM   20  H           1     -34.137  -1.643 -15.412  0.00  0.00     0.163 HD
BRANCH  19  21
HETATM   21  C           1     -34.489  -2.525 -17.333  0.00  0.00     0.235 C 
BRANCH  21  22
HETATM   22  C           1     -33.208  -3.283 -17.085  0.00  0.00     0.191 C 
HETATM   23  O           1     -33.169  -4.175 -16.210  0.00  0.00    -0.647 OA
HETATM   24  O           1     -32.186  -3.019 -17.755  0.00  0.00    -0.647 OA
ENDBRANCH  21  22
ENDBRANCH  19  21
ENDBRANCH   1  17
TORSDOF 6
ENDMDL
MODEL 5
REMARK VINA RESULT:      -7.4      4.162      6.307
REMARK  6 active torsions:
REMARK  status: ('A' for Active; 'I' for Inactive)
REMARK    1  A    between atoms: C_3  and  C_9 
REMARK    2  A    between atoms: C_3  and  N_20 
REMARK    3  A    between atoms: C_5  and  C_17 
REMARK    4  A    between atoms: C_5  and  C_12 
REMARK    5  A    between atoms: N_11  and  C_17 
REMARK    6  A    between atoms: C_17  and  C_18 
REMARK       I    between atoms: C_18  and  N_20 
ROOT
HETATM    1  C           1     -21.198  -5.566  -6.919  0.00  0.00     0.278 C 
ENDROOT
BRANCH   1   2
HETATM    2  C           1     -20.884  -5.316  -5.450  0.00  0.00     0.083 C 
BRANCH   2   3
HETATM    3  C           1     -20.816  -6.623  -4.724  0.00  0.00    -0.028 A 
HETATM    4  C           1     -20.279  -7.794  -5.209  0.00  0.00     0.096 A 
HETATM    5  N           1     -20.413  -8.750  -4.238  0.00  0.00    -0.365 N 
HETATM    6  H           1     -20.092  -9.746  -4.328  0.00  0.00     0.165 HD
HETATM    7  C           1     -21.029  -8.218  -3.127  0.00  0.00     0.042 A 
HETATM    8  C           1     -21.369  -8.817  -1.908  0.00  0.00     0.030 A 
HETATM    9  C           1     -21.294  -6.878  -3.408  0.00  0.00    -0.002 A 
HETATM   10  C           1     -21.998  -8.016  -0.949  0.00  0.00     0.002 A 
HETATM   11  C           1     -22.274  -6.674  -1.202  0.00  0.00     0.001 A 
HETATM   12  C           1     -21.928  -6.092  -2.427  0.00  0.00     0.014 A 
ENDBRANCH   2   3
ENDBRANCH   1   2
BRANCH   1  13
HETATM   13  N           1     -20.047  -5.101  -7.762  0.00  0.00    -0.066 N 
HETATM   14  H           1     -19.531  -5.929  -8.134  0.00  0.00     0.275 HD
HETATM   15  H           1     -20.409  -4.529  -8.558  0.00  0.00     0.275 HD
HETATM   16  H           1     -19.402  -4.521  -7.179  0.00  0.00     0.275 HD
ENDBRANCH   1  13
BRANCH   1  17
HETATM   17  C           1     -22.443  -4.805  -7.304  0.00  0.00     0.249 C 
HETATM   18  O           1     -23.350  -4.692  -6.515  0.00  0.00    -0.271 OA
HETATM   19  N           1     -22.544  -4.244  -8.550  0.00  0.00    -0.349 N 
HETATM   20  H           1     -21.784  -4.339  -9.211  0.00  0.00     0.163 HD
BRANCH  19  21
HETATM   21  C           1     -23.740  -3.513  -8.920  0.00  0.00     0.235 C 
BRANCH  21  22
HETATM   22  C           1     -24.236  -4.005 -10.258  0.00  0.00     0.191 C 
HETATM   23  O           1     -23.880  -5.125 -10.683  0.00  0.00    -0.647 OA
HETATM   24  O           1     -25.006  -3.293 -10.939  0.00  0.00    -0.647 OA
ENDBRANCH  21  22
ENDBRANCH  19  21
ENDBRANCH   1  17
TORSDOF 6
ENDMDL
MODEL 6
REMARK VINA RESULT:      -7.4      5.056      8.312
REMARK  6 active torsions:
REMARK  status: ('A' for Active; 'I' for Inactive)
REMARK    1  A    between atoms: C_3  and  C_9 
REMARK    2  A    between atoms: C_3  and  N_20 
REMARK    3  A    between atoms: C_5  and  C_17 
REMARK    4  A    between atoms: C_5  and  C_12 
REMARK    5  A    between atoms: N_11  and  C_17 
REMARK    6  A    between atoms: C_17  and  C_18 
REMARK       I    between atoms: C_18  and  N_20 
ROOT
HETATM    1  C           1     -22.351  -5.323  -6.968  0.00  0.00     0.278 C 
ENDROOT
BRANCH   1   2
HETATM    2  C           1     -21.581  -4.075  -7.379  0.00  0.00     0.083 C 
BRANCH   2   3
HETATM    3  C           1     -21.315  -4.113  -8.851  0.00  0.00    -0.028 A 
HETATM    4  C           1     -20.120  -4.438  -9.452  0.00  0.00     0.096 A 
HETATM    5  N           1     -20.297  -4.354 -10.808  0.00  0.00    -0.365 N 
HETATM    6  H           1     -19.552  -4.547 -11.523  0.00  0.00     0.165 HD
HETATM    7  C           1     -21.589  -3.979 -11.097  0.00  0.00     0.042 A 
HETATM    8  C           1     -22.215  -3.771 -12.332  0.00  0.00     0.030 A 
HETATM    9  C           1     -22.253  -3.821  -9.880  0.00  0.00    -0.002 A 
HETATM   10  C           1     -23.561  -3.390 -12.318  0.00  0.00     0.002 A 
HETATM   11  C           1     -24.249  -3.225 -11.118  0.00  0.00     0.001 A 
HETATM   12  C           1     -23.607  -3.437  -9.892  0.00  0.00     0.014 A 
ENDBRANCH   2   3
ENDBRANCH   1   2
BRANCH   1  13
HETATM   13  N           1     -23.659  -4.922  -6.351  0.00  0.00    -0.066 N 
HETATM   14  H           1     -24.387  -4.849  -7.096  0.00  0.00     0.275 HD
HETATM   15  H           1     -23.947  -5.641  -5.651  0.00  0.00     0.275 HD
HETATM   16  H           1     -23.551  -3.996  -5.878  0.00  0.00     0.275 HD
ENDBRANCH   1  13
BRANCH   1  17
HETATM   17  C           1     -21.541  -6.105  -5.963  0.00  0.00     0.249 C 
HETATM   18  O           1     -20.598  -6.765  -6.330  0.00  0.00    -0.271 OA
HETATM   19  N           1     -21.877  -6.069  -4.636  0.00  0.00    -0.349 N 
HETATM   20  H           1     -22.667  -5.518  -4.329  0.00  0.00     0.163 HD
BRANCH  19  21
HETATM   21  C           1     -21.100  -6.822  -3.671  0.00  0.00     0.235 C 
BRANCH  21  22
HETATM   22  C           1     -21.824  -6.842  -2.347  0.00  0.00     0.191 C 
HETATM   23  O           1     -21.721  -7.834  -1.594  0.00  0.00    -0.647 OA
HETATM   24  O           1     -22.525  -5.866  -2.003  0.00  0.00    -0.647 OA
ENDBRANCH  21  22
ENDBRANCH  19  21
ENDBRANCH   1  17
TORSDOF 6
ENDMDL
MODEL 7
REMARK VINA RESULT:      -7.4      5.657      8.753
REMARK  6 active torsions:
REMARK  status: ('A' for Active; 'I' for Inactive)
REMARK    1  A    between atoms: C_3  and  C_9 
REMARK    2  A    between atoms: C_3  and  N_20 
REMARK    3  A    between atoms: C_5  and  C_17 
REMARK    4  A    between atoms: C_5  and  C_12 
REMARK    5  A    between atoms: N_11  and  C_17 
REMARK    6  A    between atoms: C_17  and  C_18 
REMARK       I    between atoms: C_18  and  N_20 
ROOT
HETATM    1  C           1     -20.691  -6.103  -5.650  0.00  0.00     0.278 C 
ENDROOT
BRANCH   1   2
HETATM    2  C           1     -20.637  -4.663  -6.144  0.00  0.00     0.083 C 
BRANCH   2   3
HETATM    3  C           1     -21.633  -4.474  -7.245  0.00  0.00    -0.028 A 
HETATM    4  C           1     -22.992  -4.317  -7.092  0.00  0.00     0.096 A 
HETATM    5  N           1     -23.539  -4.174  -8.339  0.00  0.00    -0.365 N 
HETATM    6  H           1     -24.563  -4.037  -8.533  0.00  0.00     0.165 HD
HETATM    7  C           1     -22.557  -4.235  -9.301  0.00  0.00     0.042 A 
HETATM    8  C           1     -22.648  -4.138 -10.695  0.00  0.00     0.030 A 
HETATM    9  C           1     -21.344  -4.424  -8.637  0.00  0.00    -0.002 A 
HETATM   10  C           1     -21.461  -4.237 -11.428  0.00  0.00     0.002 A 
HETATM   11  C           1     -20.237  -4.426 -10.791  0.00  0.00     0.001 A 
HETATM   12  C           1     -20.163  -4.521  -9.396  0.00  0.00     0.014 A 
ENDBRANCH   2   3
ENDBRANCH   1   2
BRANCH   1  13
HETATM   13  N           1     -21.147  -6.996  -6.766  0.00  0.00    -0.066 N 
HETATM   14  H           1     -21.461  -6.413  -7.573  0.00  0.00     0.275 HD
HETATM   15  H           1     -20.356  -7.608  -7.065  0.00  0.00     0.275 HD
HETATM   16  H           1     -21.942  -7.588  -6.434  0.00  0.00     0.275 HD
ENDBRANCH   1  13
BRANCH   1  17
HETATM   17  C           1     -21.659  -6.204  -4.497  0.00  0.00     0.249 C 
HETATM   18  O           1     -22.829  -6.415  -4.708  0.00  0.00    -0.271 OA
HETATM   19  N           1     -21.210  -6.056  -3.212  0.00  0.00    -0.349 N 
HETATM   20  H           1     -20.230  -5.880  -3.035  0.00  0.00     0.163 HD
BRANCH  19  21
HETATM   21  C           1     -22.140  -6.154  -2.104  0.00  0.00     0.235 C 
BRANCH  21  22
HETATM   22  C           1     -21.739  -7.301  -1.209  0.00  0.00     0.191 C 
HETATM   23  O           1     -22.504  -7.677  -0.294  0.00  0.00    -0.647 OA
HETATM   24  O           1     -20.643  -7.877  -1.385  0.00  0.00    -0.647 OA
ENDBRANCH  21  22
ENDBRANCH  19  21
ENDBRANCH   1  17
TORSDOF 6
ENDMDL
MODEL 8
REMARK VINA RESULT:      -7.3     11.798     13.232
REMARK  6 active torsions:
REMARK  status: ('A' for Active; 'I' for Inactive)
REMARK    1  A    between atoms: C_3  and  C_9 
REMARK    2  A    between atoms: C_3  and  N_20 
REMARK    3  A    between atoms: C_5  and  C_17 
REMARK    4  A    between atoms: C_5  and  C_12 
REMARK    5  A    between atoms: N_11  and  C_17 
REMARK    6  A    between atoms: C_17  and  C_18 
REMARK       I    between atoms: C_18  and  N_20 
ROOT
HETATM    1  C           1     -36.119  -0.333 -11.184  0.00  0.00     0.278 C 
ENDROOT
BRANCH   1   2
HETATM    2  C           1     -36.227  -1.747 -10.631  0.00  0.00     0.083 C 
BRANCH   2   3
HETATM    3  C           1     -34.968  -2.499 -10.931  0.00  0.00    -0.028 A 
HETATM    4  C           1     -33.775  -1.952 -11.345  0.00  0.00     0.096 A 
HETATM    5  N           1     -32.879  -2.975 -11.507  0.00  0.00    -0.365 N 
HETATM    6  H           1     -31.883  -2.856 -11.819  0.00  0.00     0.165 HD
HETATM    7  C           1     -33.472  -4.180 -11.205  0.00  0.00     0.042 A 
HETATM    8  C           1     -32.946  -5.477 -11.228  0.00  0.00     0.030 A 
HETATM    9  C           1     -34.790  -3.907 -10.838  0.00  0.00    -0.002 A 
HETATM   10  C           1     -33.797  -6.525 -10.863  0.00  0.00     0.002 A 
HETATM   11  C           1     -35.118  -6.283 -10.492  0.00  0.00     0.001 A 
HETATM   12  C           1     -35.628  -4.979 -10.475  0.00  0.00     0.014 A 
ENDBRANCH   2   3
ENDBRANCH   1   2
BRANCH   1  13
HETATM   13  N           1     -36.701   0.636 -10.197  0.00  0.00    -0.066 N 
HETATM   14  H           1     -35.987   1.358  -9.955  0.00  0.00     0.275 HD
HETATM   15  H           1     -37.537   1.099 -10.618  0.00  0.00     0.275 HD
HETATM   16  H           1     -36.984   0.122  -9.332  0.00  0.00     0.275 HD
ENDBRANCH   1  13
BRANCH   1  17
HETATM   17  C           1     -36.878  -0.241 -12.485  0.00  0.00     0.249 C 
HETATM   18  O           1     -38.073  -0.420 -12.501  0.00  0.00    -0.271 OA
HETATM   19  N           1     -36.213   0.044 -13.648  0.00  0.00    -0.349 N 
HETATM   20  H           1     -35.213   0.194 -13.635  0.00  0.00     0.163 HD
BRANCH  19  21
HETATM   21  C           1     -36.943   0.131 -14.897  0.00  0.00     0.235 C 
BRANCH  21  22
HETATM   22  C           1     -36.268  -0.730 -15.936  0.00  0.00     0.191 C 
HETATM   23  O           1     -35.305  -1.459 -15.613  0.00  0.00    -0.647 OA
HETATM   24  O           1     -36.673  -0.716 -17.119  0.00  0.00    -0.647 OA
ENDBRANCH  21  22
ENDBRANCH  19  21
ENDBRANCH   1  17
TORSDOF 6
ENDMDL
MODEL 9
REMARK VINA RESULT:      -7.2      4.627      7.809
REMARK  6 active torsions:
REMARK  status: ('A' for Active; 'I' for Inactive)
REMARK    1  A    between atoms: C_3  and  C_9 
REMARK    2  A    between atoms: C_3  and  N_20 
REMARK    3  A    between atoms: C_5  and  C_17 
REMARK    4  A    between atoms: C_5  and  C_12 
REMARK    5  A    between atoms: N_11  and  C_17 
REMARK    6  A    between atoms: C_17  and  C_18 
REMARK       I    between atoms: C_18  and  N_20 
ROOT
HETATM    1  C           1     -21.922  -4.379  -7.221  0.00  0.00     0.278 C 
ENDROOT
BRANCH   1   2
HETATM    2  C           1     -21.798  -4.819  -8.674  0.00  0.00     0.083 C 
BRANCH   2   3
HETATM    3  C           1     -22.974  -4.316  -9.451  0.00  0.00    -0.028 A 
HETATM    4  C           1     -24.268  -4.219  -8.992  0.00  0.00     0.096 A 
HETATM    5  N           1     -25.035  -3.714 -10.008  0.00  0.00    -0.365 N 
HETATM    6  H           1     -26.068  -3.531  -9.947  0.00  0.00     0.165 HD
HETATM    7  C           1     -24.259  -3.481 -11.121  0.00  0.00     0.042 A 
HETATM    8  C           1     -24.609  -2.974 -12.378  0.00  0.00     0.030 A 
HETATM    9  C           1     -22.954  -3.852 -10.795  0.00  0.00    -0.002 A 
HETATM   10  C           1     -23.591  -2.843 -13.328  0.00  0.00     0.002 A 
HETATM   11  C           1     -22.279  -3.207 -13.031  0.00  0.00     0.001 A 
HETATM   12  C           1     -21.947  -3.712 -11.768  0.00  0.00     0.014 A 
ENDBRANCH   2   3
ENDBRANCH   1   2
BRANCH   1  13
HETATM   13  N           1     -21.516  -2.939  -7.100  0.00  0.00    -0.066 N 
HETATM   14  H           1     -20.643  -2.776  -7.649  0.00  0.00     0.275 HD
HETATM   15  H           1     -22.279  -2.331  -7.471  0.00  0.00     0.275 HD
HETATM   16  H           1     -21.344  -2.710  -6.095  0.00  0.00     0.275 HD
ENDBRANCH   1  13
BRANCH   1  17
HETATM   17  C           1     -21.022  -5.229  -6.358  0.00  0.00     0.249 C 
HETATM   18  O           1     -20.286  -4.707  -5.555  0.00  0.00    -0.271 OA
HETATM   19  N           1     -21.039  -6.592  -6.487  0.00  0.00    -0.349 N 
HETATM   20  H           1     -21.655  -7.030  -7.160  0.00  0.00     0.163 HD
BRANCH  19  21
HETATM   21  C           1     -20.174  -7.409  -5.658  0.00  0.00     0.235 C 
BRANCH  21  22
HETATM   22  C           1     -20.933  -8.625  -5.184  0.00  0.00     0.191 C 
HETATM   23  O           1     -20.672  -9.750  -5.662  0.00  0.00    -0.647 OA
HETATM   24  O           1     -21.821  -8.506  -4.312  0.00  0.00    -0.647 OA
ENDBRANCH  21  22
ENDBRANCH  19  21
ENDBRANCH   1  17
TORSDOF 6
ENDMDL
