MODEL 1
REMARK VINA RESULT:      -8.6      0.000      0.000
REMARK  11 active torsions:
REMARK  status: ('A' for Active; 'I' for Inactive)
REMARK    1  A    between atoms: C_1  and  C_32 
REMARK    2  A    between atoms: C_1  and  C_2 
REMARK    3  A    between atoms: C_4  and  O_7 
REMARK    4  A    between atoms: C_5  and  C_19 
REMARK    5  A    between atoms: C_5  and  C_10 
REMARK    6  A    between atoms: N_6  and  C_32 
REMARK    7  A    between atoms: N_8  and  C_28 
REMARK       I    between atoms: N_8  and  C_17 
REMARK    8  A    between atoms: C_10  and  C_28 
REMARK    9  A    between atoms: C_16  and  C_28 
REMARK   10  A    between atoms: C_17  and  C_32 
REMARK   11  A    between atoms: C_19  and  N_20 
REMARK       I    between atoms: N_20  and  C_27 
REMARK       I    between atoms: N_26  and  C_27 
ROOT
HETATM    1  N           1     -22.092  -4.866  -8.909  0.00  0.00    -0.345 N 
HETATM    2  H           1     -22.109  -5.817  -9.254  0.00  0.00     0.163 HD
HETATM    3  C           1     -21.588  -4.599  -7.664  0.00  0.00     0.249 C 
HETATM    4  O           1     -21.568  -3.464  -7.250  0.00  0.00    -0.271 OA
ENDROOT
BRANCH   1   5
HETATM    5  C           1     -22.601  -3.786  -9.730  0.00  0.00     0.185 C 
BRANCH   5   6
HETATM    6  C           1     -22.041  -3.913 -11.141  0.00  0.00     0.038 C 
BRANCH   6   7
HETATM    7  C           1     -22.373  -2.657 -11.935  0.00  0.00     0.023 C 
BRANCH   7   8
HETATM    8  C           1     -23.214  -3.029 -13.148  0.00  0.00     0.138 C 
BRANCH   8   9
HETATM    9  N           1     -23.996  -1.861 -13.581  0.00  0.00    -0.227 N 
HETATM   10  H           1     -24.742  -1.468 -12.956  0.00  0.00     0.177 HD
HETATM   11  C           1     -23.769  -1.330 -14.706  0.00  0.00     0.665 C 
HETATM   12  N           1     -22.868  -1.803 -15.461  0.00  0.00    -0.235 N 
HETATM   13  N           1     -24.459  -0.297 -15.089  0.00  0.00    -0.235 N 
HETATM   14  H           1     -22.310  -2.638 -15.151  0.00  0.00     0.174 HD
HETATM   15  H           1     -22.680  -1.362 -16.395  0.00  0.00     0.174 HD
HETATM   16  H           1     -25.202   0.095 -14.467  0.00  0.00     0.174 HD
HETATM   17  H           1     -24.271   0.142 -16.019  0.00  0.00     0.174 HD
ENDBRANCH   8   9
ENDBRANCH   7   8
ENDBRANCH   6   7
ENDBRANCH   5   6
BRANCH   5  18
HETATM   18  C           1     -24.108  -3.860  -9.780  0.00  0.00     0.196 C 
HETATM   19  O           1     -24.670  -4.921 -10.127  0.00  0.00    -0.646 OA
HETATM   20  O           1     -24.794  -2.861  -9.473  0.00  0.00    -0.646 OA
ENDBRANCH   5  18
ENDBRANCH   1   5
BRANCH   3  21
HETATM   21  C           1     -21.057  -5.724  -6.808  0.00  0.00     0.278 C 
BRANCH  21  22
HETATM   22  C           1     -20.887  -5.235  -5.376  0.00  0.00     0.081 C 
BRANCH  22  23
HETATM   23  C           1     -21.149  -6.364  -4.428  0.00  0.00    -0.056 A 
HETATM   24  C           1     -21.256  -6.113  -3.059  0.00  0.00     0.010 A 
HETATM   25  C           1     -21.500  -7.164  -2.175  0.00  0.00     0.037 A 
HETATM   26  C           1     -21.637  -8.465  -2.660  0.00  0.00     0.065 A 
HETATM   27  C           1     -21.530  -8.715  -4.028  0.00  0.00     0.037 A 
HETATM   28  C           1     -21.286  -7.665  -4.911  0.00  0.00     0.010 A 
BRANCH  26  29
HETATM   29  O           1     -21.874  -9.486  -1.801  0.00  0.00    -0.361 OA
HETATM   30  H           1     -21.982  -9.111  -0.910  0.00  0.00     0.217 HD
ENDBRANCH  26  29
ENDBRANCH  22  23
ENDBRANCH  21  22
BRANCH  21  31
HETATM   31  N           1     -19.730  -6.174  -7.343  0.00  0.00    -0.066 N 
HETATM   32  H           1     -18.991  -6.015  -6.621  0.00  0.00     0.275 HD
HETATM   33  H           1     -19.776  -7.193  -7.574  0.00  0.00     0.275 HD
HETATM   34  H           1     -19.499  -5.631  -8.205  0.00  0.00     0.275 HD
ENDBRANCH  21  31
ENDBRANCH   3  21
TORSDOF 11
ENDMDL
MODEL 2
REMARK VINA RESULT:      -8.4     12.493     14.587
REMARK  11 active torsions:
REMARK  status: ('A' for Active; 'I' for Inactive)
REMARK    1  A    between atoms: C_1  and  C_32 
REMARK    2  A    between atoms: C_1  and  C_2 
REMARK    3  A    between atoms: C_4  and  O_7 
REMARK    4  A    between atoms: C_5  and  C_19 
REMARK    5  A    between atoms: C_5  and  C_10 
REMARK    6  A    between atoms: N_6  and  C_32 
REMARK    7  A    between atoms: N_8  and  C_28 
REMARK       I    between atoms: N_8  and  C_17 
REMARK    8  A    between atoms: C_10  and  C_28 
REMARK    9  A    between atoms: C_16  and  C_28 
REMARK   10  A    between atoms: C_17  and  C_32 
REMARK   11  A    between atoms: C_19  and  N_20 
REMARK       I    between atoms: N_20  and  C_27 
REMARK       I    between atoms: N_26  and  C_27 
ROOT
HETATM    1  N           1     -33.411  -3.840 -14.175  0.00  0.00    -0.345 N 
HETATM    2  H           1     -32.515  -3.374 -14.255  0.00  0.00     0.163 HD
HETATM    3  C           1     -33.926  -4.520 -15.246  0.00  0.00     0.249 C 
HETATM    4  O           1     -34.995  -5.075 -15.151  0.00  0.00    -0.271 OA
ENDROOT
BRANCH   1   5
HETATM    5  C           1     -34.147  -3.786 -12.928  0.00  0.00     0.185 C 
BRANCH   5   6
HETATM    6  C           1     -33.173  -3.851 -11.759  0.00  0.00     0.038 C 
BRANCH   6   7
HETATM    7  C           1     -33.824  -4.585 -10.595  0.00  0.00     0.023 C 
BRANCH   7   8
HETATM    8  C           1     -34.654  -5.745 -11.125  0.00  0.00     0.138 C 
BRANCH   8   9
HETATM    9  N           1     -33.866  -6.984 -11.059  0.00  0.00    -0.227 N 
HETATM   10  H           1     -33.030  -7.109 -11.681  0.00  0.00     0.177 HD
HETATM   11  C           1     -34.194  -7.900 -10.249  0.00  0.00     0.665 C 
HETATM   12  N           1     -35.201  -7.750  -9.496  0.00  0.00    -0.235 N 
HETATM   13  N           1     -33.497  -8.996 -10.189  0.00  0.00    -0.235 N 
HETATM   14  H           1     -35.764  -6.865  -9.544  0.00  0.00     0.174 HD
HETATM   15  H           1     -35.473  -8.510  -8.824  0.00  0.00     0.174 HD
HETATM   16  H           1     -32.665  -9.120 -10.810  0.00  0.00     0.174 HD
HETATM   17  H           1     -33.767  -9.752  -9.520  0.00  0.00     0.174 HD
ENDBRANCH   8   9
ENDBRANCH   7   8
ENDBRANCH   6   7
ENDBRANCH   5   6
BRANCH   5  18
HETATM   18  C           1     -34.929  -2.496 -12.860  0.00  0.00     0.196 C 
HETATM   19  O           1     -35.818  -2.350 -11.995  0.00  0.00    -0.646 OA
HETATM   20  O           1     -34.686  -1.575 -13.669  0.00  0.00    -0.646 OA
ENDBRANCH   5  18
ENDBRANCH   1   5
BRANCH   3  21
HETATM   21  C           1     -33.159  -4.575 -16.544  0.00  0.00     0.278 C 
BRANCH  21  22
HETATM   22  C           1     -31.666  -4.649 -16.250  0.00  0.00     0.081 C 
BRANCH  22  23
HETATM   23  C           1     -31.056  -5.767 -17.036  0.00  0.00    -0.056 A 
HETATM   24  C           1     -29.668  -5.901 -17.095  0.00  0.00     0.010 A 
HETATM   25  C           1     -29.099  -6.942 -17.827  0.00  0.00     0.037 A 
HETATM   26  C           1     -29.917  -7.850 -18.500  0.00  0.00     0.065 A 
HETATM   27  C           1     -31.303  -7.716 -18.441  0.00  0.00     0.037 A 
HETATM   28  C           1     -31.873  -6.675 -17.709  0.00  0.00     0.010 A 
BRANCH  26  29
HETATM   29  O           1     -29.363  -8.862 -19.211  0.00  0.00    -0.361 OA
HETATM   30  H           1     -29.340  -9.651 -18.643  0.00  0.00     0.217 HD
ENDBRANCH  26  29
ENDBRANCH  22  23
ENDBRANCH  21  22
BRANCH  21  31
HETATM   31  N           1     -33.449  -3.343 -17.349  0.00  0.00    -0.066 N 
HETATM   32  H           1     -33.162  -2.497 -16.806  0.00  0.00     0.275 HD
HETATM   33  H           1     -32.913  -3.379 -18.245  0.00  0.00     0.275 HD
HETATM   34  H           1     -34.473  -3.295 -17.555  0.00  0.00     0.275 HD
ENDBRANCH  21  31
ENDBRANCH   3  21
TORSDOF 11
ENDMDL
MODEL 3
REMARK VINA RESULT:      -7.9      3.970      9.809
REMARK  11 active torsions:
REMARK  status: ('A' for Active; 'I' for Inactive)
REMARK    1  A    between atoms: C_1  and  C_32 
REMARK    2  A    between atoms: C_1  and  C_2 
REMARK    3  A    between atoms: C_4  and  O_7 
REMARK    4  A    between atoms: C_5  and  C_19 
REMARK    5  A    between atoms: C_5  and  C_10 
REMARK    6  A    between atoms: N_6  and  C_32 
REMARK    7  A    between atoms: N_8  and  C_28 
REMARK       I    between atoms: N_8  and  C_17 
REMARK    8  A    between atoms: C_10  and  C_28 
REMARK    9  A    between atoms: C_16  and  C_28 
REMARK   10  A    between atoms: C_17  and  C_32 
REMARK   11  A    between atoms: C_19  and  N_20 
REMARK       I    between atoms: N_20  and  C_27 
REMARK       I    between atoms: N_26  and  C_27 
ROOT
HETATM    1  N           1     -21.539  -6.926  -5.181  0.00  0.00    -0.345 N 
HETATM    2  H           1     -22.450  -6.716  -4.791  0.00  0.00     0.163 HD
HETATM    3  C           1     -21.151  -6.350  -6.361  0.00  0.00     0.249 C 
HETATM    4  O           1     -20.065  -6.600  -6.827  0.00  0.00    -0.271 OA
ENDROOT
BRANCH   1   5
HETATM    5  C           1     -20.646  -7.835  -4.490  0.00  0.00     0.185 C 
BRANCH   5   6
HETATM    6  C           1     -20.588  -7.467  -3.014  0.00  0.00     0.038 C 
BRANCH   6   7
HETATM    7  C           1     -21.690  -6.466  -2.695  0.00  0.00     0.023 C 
BRANCH   7   8
HETATM    8  C           1     -22.291  -6.787  -1.334  0.00  0.00     0.138 C 
BRANCH   8   9
HETATM    9  N           1     -22.086  -8.211  -1.030  0.00  0.00    -0.227 N 
HETATM   10  H           1     -21.393  -8.772  -1.584  0.00  0.00     0.177 HD
HETATM   11  C           1     -22.743  -8.760  -0.098  0.00  0.00     0.665 C 
HETATM   12  N           1     -23.579  -8.084   0.572  0.00  0.00    -0.235 N 
HETATM   13  N           1     -22.561 -10.019   0.171  0.00  0.00    -0.235 N 
HETATM   14  H           1     -23.725  -7.068   0.354  0.00  0.00     0.174 HD
HETATM   15  H           1     -24.124  -8.540   1.345  0.00  0.00     0.174 HD
HETATM   16  H           1     -21.872 -10.577  -0.381  0.00  0.00     0.174 HD
HETATM   17  H           1     -23.104 -10.473   0.941  0.00  0.00     0.174 HD
ENDBRANCH   8   9
ENDBRANCH   7   8
ENDBRANCH   6   7
ENDBRANCH   5   6
BRANCH   5  18
HETATM   18  C           1     -21.155  -9.248  -4.637  0.00  0.00     0.196 C 
HETATM   19  O           1     -21.757  -9.796  -3.689  0.00  0.00    -0.646 OA
HETATM   20  O           1     -20.977  -9.869  -5.706  0.00  0.00    -0.646 OA
ENDBRANCH   5  18
ENDBRANCH   1   5
BRANCH   3  21
HETATM   21  C           1     -22.081  -5.403  -7.080  0.00  0.00     0.278 C 
BRANCH  21  22
HETATM   22  C           1     -21.302  -4.180  -7.544  0.00  0.00     0.081 C 
BRANCH  22  23
HETATM   23  C           1     -21.449  -4.026  -9.026  0.00  0.00    -0.056 A 
HETATM   24  C           1     -20.317  -4.013  -9.841  0.00  0.00     0.010 A 
HETATM   25  C           1     -20.453  -3.869 -11.222  0.00  0.00     0.037 A 
HETATM   26  C           1     -21.722  -3.737 -11.786  0.00  0.00     0.065 A 
HETATM   27  C           1     -22.854  -3.750 -10.972  0.00  0.00     0.037 A 
HETATM   28  C           1     -22.717  -3.894  -9.592  0.00  0.00     0.010 A 
BRANCH  26  29
HETATM   29  O           1     -21.854  -3.598 -13.128  0.00  0.00    -0.361 OA
HETATM   30  H           1     -21.458  -4.377 -13.552  0.00  0.00     0.217 HD
ENDBRANCH  26  29
ENDBRANCH  22  23
ENDBRANCH  21  22
BRANCH  21  31
HETATM   31  N           1     -23.175  -4.973  -6.147  0.00  0.00    -0.066 N 
HETATM   32  H           1     -23.455  -5.780  -5.544  0.00  0.00     0.275 HD
HETATM   33  H           1     -22.830  -4.192  -5.544  0.00  0.00     0.275 HD
HETATM   34  H           1     -23.999  -4.649  -6.702  0.00  0.00     0.275 HD
ENDBRANCH  21  31
ENDBRANCH   3  21
TORSDOF 11
ENDMDL
MODEL 4
REMARK VINA RESULT:      -7.9      1.230      1.705
REMARK  11 active torsions:
REMARK  status: ('A' for Active; 'I' for Inactive)
REMARK    1  A    between atoms: C_1  and  C_32 
REMARK    2  A    between atoms: C_1  and  C_2 
REMARK    3  A    between atoms: C_4  and  O_7 
REMARK    4  A    between atoms: C_5  and  C_19 
REMARK    5  A    between atoms: C_5  and  C_10 
REMARK    6  A    between atoms: N_6  and  C_32 
REMARK    7  A    between atoms: N_8  and  C_28 
REMARK       I    between atoms: N_8  and  C_17 
REMARK    8  A    between atoms: C_10  and  C_28 
REMARK    9  A    between atoms: C_16  and  C_28 
REMARK   10  A    between atoms: C_17  and  C_32 
REMARK   11  A    between atoms: C_19  and  N_20 
REMARK       I    between atoms: N_20  and  C_27 
REMARK       I    between atoms: N_26  and  C_27 
ROOT
HETATM    1  N           1     -22.491  -5.119  -7.795  0.00  0.00    -0.345 N 
HETATM    2  H           1     -23.108  -5.914  -7.911  0.00  0.00     0.163 HD
HETATM    3  C           1     -21.705  -5.021  -6.679  0.00  0.00     0.249 C 
HETATM    4  O           1     -20.969  -4.073  -6.539  0.00  0.00    -0.271 OA
ENDROOT
BRANCH   1   5
HETATM    5  C           1     -22.442  -4.085  -8.809  0.00  0.00     0.185 C 
BRANCH   5   6
HETATM    6  C           1     -21.392  -4.445  -9.852  0.00  0.00     0.038 C 
BRANCH   6   7
HETATM    7  C           1     -21.243  -3.298 -10.842  0.00  0.00     0.023 C 
BRANCH   7   8
HETATM    8  C           1     -21.891  -3.681 -12.165  0.00  0.00     0.138 C 
BRANCH   8   9
HETATM    9  N           1     -22.990  -2.751 -12.462  0.00  0.00    -0.227 N 
HETATM   10  H           1     -23.556  -2.340 -11.679  0.00  0.00     0.177 HD
HETATM   11  C           1     -23.252  -2.443 -13.661  0.00  0.00     0.665 C 
HETATM   12  N           1     -22.569  -2.938 -14.606  0.00  0.00    -0.235 N 
HETATM   13  N           1     -24.223  -1.620 -13.924  0.00  0.00    -0.235 N 
HETATM   14  H           1     -21.785  -3.603 -14.394  0.00  0.00     0.174 HD
HETATM   15  H           1     -22.788  -2.682 -15.601  0.00  0.00     0.174 HD
HETATM   16  H           1     -24.788  -1.212 -13.144  0.00  0.00     0.174 HD
HETATM   17  H           1     -24.440  -1.366 -14.914  0.00  0.00     0.174 HD
ENDBRANCH   8   9
ENDBRANCH   7   8
ENDBRANCH   6   7
ENDBRANCH   5   6
BRANCH   5  18
HETATM   18  C           1     -23.792  -3.970  -9.475  0.00  0.00     0.196 C 
HETATM   19  O           1     -24.277  -4.951 -10.078  0.00  0.00    -0.646 OA
HETATM   20  O           1     -24.424  -2.893  -9.423  0.00  0.00    -0.646 OA
ENDBRANCH   5  18
ENDBRANCH   1   5
BRANCH   3  21
HETATM   21  C           1     -21.756  -6.098  -5.622  0.00  0.00     0.278 C 
BRANCH  21  22
HETATM   22  C           1     -20.863  -5.706  -4.453  0.00  0.00     0.081 C 
BRANCH  22  23
HETATM   23  C           1     -21.215  -6.532  -3.255  0.00  0.00    -0.056 A 
HETATM   24  C           1     -20.704  -7.824  -3.126  0.00  0.00     0.010 A 
HETATM   25  C           1     -21.031  -8.595  -2.011  0.00  0.00     0.037 A 
HETATM   26  C           1     -21.870  -8.074  -1.026  0.00  0.00     0.065 A 
HETATM   27  C           1     -22.381  -6.783  -1.155  0.00  0.00     0.037 A 
HETATM   28  C           1     -22.053  -6.012  -2.270  0.00  0.00     0.010 A 
BRANCH  26  29
HETATM   29  O           1     -22.188  -8.823   0.058  0.00  0.00    -0.361 OA
HETATM   30  H           1     -23.110  -8.630   0.297  0.00  0.00     0.217 HD
ENDBRANCH  26  29
ENDBRANCH  22  23
ENDBRANCH  21  22
BRANCH  21  31
HETATM   31  N           1     -21.274  -7.393  -6.206  0.00  0.00    -0.066 N 
HETATM   32  H           1     -20.303  -7.271  -6.571  0.00  0.00     0.275 HD
HETATM   33  H           1     -21.277  -8.130  -5.465  0.00  0.00     0.275 HD
HETATM   34  H           1     -21.907  -7.680  -6.986  0.00  0.00     0.275 HD
ENDBRANCH  21  31
ENDBRANCH   3  21
TORSDOF 11
ENDMDL
MODEL 5
REMARK VINA RESULT:      -7.8      3.506      9.832
REMARK  11 active torsions:
REMARK  status: ('A' for Active; 'I' for Inactive)
REMARK    1  A    between atoms: C_1  and  C_32 
REMARK    2  A    between atoms: C_1  and  C_2 
REMARK    3  A    between atoms: C_4  and  O_7 
REMARK    4  A    between atoms: C_5  and  C_19 
REMARK    5  A    between atoms: C_5  and  C_10 
REMARK    6  A    between atoms: N_6  and  C_32 
REMARK    7  A    between atoms: N_8  and  C_28 
REMARK       I    between atoms: N_8  and  C_17 
REMARK    8  A    between atoms: C_10  and  C_28 
REMARK    9  A    between atoms: C_16  and  C_28 
REMARK   10  A    between atoms: C_17  and  C_32 
REMARK   11  A    between atoms: C_19  and  N_20 
REMARK       I    between atoms: N_20  and  C_27 
REMARK       I    between atoms: N_26  and  C_27 
ROOT
HETATM    1  N           1     -21.421  -6.556  -5.711  0.00  0.00    -0.345 N 
HETATM    2  H           1     -22.222  -7.000  -6.145  0.00  0.00     0.163 HD
HETATM    3  C           1     -21.017  -5.317  -6.129  0.00  0.00     0.249 C 
HETATM    4  O           1     -20.061  -4.787  -5.613  0.00  0.00    -0.271 OA
ENDROOT
BRANCH   1   5
HETATM    5  C           1     -20.705  -7.232  -4.648  0.00  0.00     0.185 C 
BRANCH   5   6
HETATM    6  C           1     -21.649  -7.489  -3.481  0.00  0.00     0.038 C 
BRANCH   6   7
HETATM    7  C           1     -21.748  -6.236  -2.622  0.00  0.00     0.023 C 
BRANCH   7   8
HETATM    8  C           1     -22.258  -6.608  -1.236  0.00  0.00     0.138 C 
BRANCH   8   9
HETATM    9  N           1     -22.097  -8.054  -1.026  0.00  0.00    -0.227 N 
HETATM   10  H           1     -21.443  -8.604  -1.636  0.00  0.00     0.177 HD
HETATM   11  C           1     -22.745  -8.636  -0.108  0.00  0.00     0.665 C 
HETATM   12  N           1     -23.533  -7.973   0.630  0.00  0.00    -0.235 N 
HETATM   13  N           1     -22.603  -9.914   0.079  0.00  0.00    -0.235 N 
HETATM   14  H           1     -23.648  -6.940   0.479  0.00  0.00     0.174 HD
HETATM   15  H           1     -24.071  -8.456   1.391  0.00  0.00     0.174 HD
HETATM   16  H           1     -21.952 -10.462  -0.529  0.00  0.00     0.174 HD
HETATM   17  H           1     -23.138 -10.395   0.837  0.00  0.00     0.174 HD
ENDBRANCH   8   9
ENDBRANCH   7   8
ENDBRANCH   6   7
ENDBRANCH   5   6
BRANCH   5  18
HETATM   18  C           1     -20.171  -8.548  -5.160  0.00  0.00     0.196 C 
HETATM   19  O           1     -19.072  -8.587  -5.755  0.00  0.00    -0.646 OA
HETATM   20  O           1     -20.826  -9.598  -4.989  0.00  0.00    -0.646 OA
ENDBRANCH   5  18
ENDBRANCH   1   5
BRANCH   3  21
HETATM   21  C           1     -21.763  -4.613  -7.236  0.00  0.00     0.278 C 
BRANCH  21  22
HETATM   22  C           1     -21.224  -5.073  -8.584  0.00  0.00     0.081 C 
BRANCH  22  23
HETATM   23  C           1     -21.933  -4.343  -9.682  0.00  0.00    -0.056 A 
HETATM   24  C           1     -21.200  -3.646 -10.643  0.00  0.00     0.010 A 
HETATM   25  C           1     -21.860  -2.966 -11.666  0.00  0.00     0.037 A 
HETATM   26  C           1     -23.254  -2.981 -11.727  0.00  0.00     0.065 A 
HETATM   27  C           1     -23.987  -3.676 -10.766  0.00  0.00     0.037 A 
HETATM   28  C           1     -23.327  -4.357  -9.743  0.00  0.00     0.010 A 
BRANCH  26  29
HETATM   29  O           1     -23.895  -2.319 -12.721  0.00  0.00    -0.361 OA
HETATM   30  H           1     -23.226  -1.999 -13.349  0.00  0.00     0.217 HD
ENDBRANCH  26  29
ENDBRANCH  22  23
ENDBRANCH  21  22
BRANCH  21  31
HETATM   31  N           1     -21.573  -3.131  -7.102  0.00  0.00    -0.066 N 
HETATM   32  H           1     -20.755  -2.939  -6.479  0.00  0.00     0.275 HD
HETATM   33  H           1     -21.396  -2.717  -8.045  0.00  0.00     0.275 HD
HETATM   34  H           1     -22.433  -2.705  -6.689  0.00  0.00     0.275 HD
ENDBRANCH  21  31
ENDBRANCH   3  21
TORSDOF 11
ENDMDL
MODEL 6
REMARK VINA RESULT:      -7.8      2.232      2.935
REMARK  11 active torsions:
REMARK  status: ('A' for Active; 'I' for Inactive)
REMARK    1  A    between atoms: C_1  and  C_32 
REMARK    2  A    between atoms: C_1  and  C_2 
REMARK    3  A    between atoms: C_4  and  O_7 
REMARK    4  A    between atoms: C_5  and  C_19 
REMARK    5  A    between atoms: C_5  and  C_10 
REMARK    6  A    between atoms: N_6  and  C_32 
REMARK    7  A    between atoms: N_8  and  C_28 
REMARK       I    between atoms: N_8  and  C_17 
REMARK    8  A    between atoms: C_10  and  C_28 
REMARK    9  A    between atoms: C_16  and  C_28 
REMARK   10  A    between atoms: C_17  and  C_32 
REMARK   11  A    between atoms: C_19  and  N_20 
REMARK       I    between atoms: N_20  and  C_27 
REMARK       I    between atoms: N_26  and  C_27 
ROOT
HETATM    1  N           1     -21.508  -4.797  -7.005  0.00  0.00    -0.345 N 
HETATM    2  H           1     -21.524  -3.949  -6.451  0.00  0.00     0.163 HD
HETATM    3  C           1     -21.162  -5.987  -6.423  0.00  0.00     0.249 C 
HETATM    4  O           1     -21.141  -6.999  -7.083  0.00  0.00    -0.271 OA
ENDROOT
BRANCH   1   5
HETATM    5  C           1     -21.853  -4.752  -8.412  0.00  0.00     0.185 C 
BRANCH   5   6
HETATM    6  C           1     -22.989  -3.761  -8.626  0.00  0.00     0.038 C 
BRANCH   6   7
HETATM    7  C           1     -24.043  -4.383  -9.531  0.00  0.00     0.023 C 
BRANCH   7   8
HETATM    8  C           1     -24.403  -3.403 -10.640  0.00  0.00     0.138 C 
BRANCH   8   9
HETATM    9  N           1     -23.204  -3.098 -11.434  0.00  0.00    -0.227 N 
HETATM   10  H           1     -22.458  -2.474 -11.041  0.00  0.00     0.177 HD
HETATM   11  C           1     -23.072  -3.589 -12.593  0.00  0.00     0.665 C 
HETATM   12  N           1     -23.971  -4.343 -13.069  0.00  0.00    -0.235 N 
HETATM   13  N           1     -22.012  -3.320 -13.296  0.00  0.00    -0.235 N 
HETATM   14  H           1     -24.827  -4.561 -12.501  0.00  0.00     0.174 HD
HETATM   15  H           1     -23.860  -4.750 -14.030  0.00  0.00     0.174 HD
HETATM   16  H           1     -21.269  -2.698 -12.904  0.00  0.00     0.174 HD
HETATM   17  H           1     -21.902  -3.725 -14.253  0.00  0.00     0.174 HD
ENDBRANCH   8   9
ENDBRANCH   7   8
ENDBRANCH   6   7
ENDBRANCH   5   6
BRANCH   5  18
HETATM   18  C           1     -20.648  -4.315  -9.210  0.00  0.00     0.196 C 
HETATM   19  O           1     -20.641  -4.448 -10.452  0.00  0.00    -0.646 OA
HETATM   20  O           1     -19.659  -3.819  -8.629  0.00  0.00    -0.646 OA
ENDBRANCH   5  18
ENDBRANCH   1   5
BRANCH   3  21
HETATM   21  C           1     -20.803  -6.034  -4.958  0.00  0.00     0.278 C 
BRANCH  21  22
HETATM   22  C           1     -22.073  -6.178  -4.128  0.00  0.00     0.081 C 
BRANCH  22  23
HETATM   23  C           1     -21.758  -6.893  -2.851  0.00  0.00    -0.056 A 
HETATM   24  C           1     -22.416  -6.538  -1.674  0.00  0.00     0.010 A 
HETATM   25  C           1     -22.123  -7.202  -0.483  0.00  0.00     0.037 A 
HETATM   26  C           1     -21.171  -8.221  -0.470  0.00  0.00     0.065 A 
HETATM   27  C           1     -20.512  -8.576  -1.647  0.00  0.00     0.037 A 
HETATM   28  C           1     -20.805  -7.911  -2.837  0.00  0.00     0.010 A 
BRANCH  26  29
HETATM   29  O           1     -20.886  -8.867   0.687  0.00  0.00    -0.361 OA
HETATM   30  H           1     -20.084  -8.468   1.065  0.00  0.00     0.217 HD
ENDBRANCH  26  29
ENDBRANCH  22  23
ENDBRANCH  21  22
BRANCH  21  31
HETATM   31  N           1     -20.098  -4.766  -4.575  0.00  0.00    -0.066 N 
HETATM   32  H           1     -20.238  -4.584  -3.555  0.00  0.00     0.275 HD
HETATM   33  H           1     -19.077  -4.864  -4.774  0.00  0.00     0.275 HD
HETATM   34  H           1     -20.488  -3.971  -5.129  0.00  0.00     0.275 HD
ENDBRANCH  21  31
ENDBRANCH   3  21
TORSDOF 11
ENDMDL
MODEL 7
REMARK VINA RESULT:      -7.7      2.007      3.107
REMARK  11 active torsions:
REMARK  status: ('A' for Active; 'I' for Inactive)
REMARK    1  A    between atoms: C_1  and  C_32 
REMARK    2  A    between atoms: C_1  and  C_2 
REMARK    3  A    between atoms: C_4  and  O_7 
REMARK    4  A    between atoms: C_5  and  C_19 
REMARK    5  A    between atoms: C_5  and  C_10 
REMARK    6  A    between atoms: N_6  and  C_32 
REMARK    7  A    between atoms: N_8  and  C_28 
REMARK       I    between atoms: N_8  and  C_17 
REMARK    8  A    between atoms: C_10  and  C_28 
REMARK    9  A    between atoms: C_16  and  C_28 
REMARK   10  A    between atoms: C_17  and  C_32 
REMARK   11  A    between atoms: C_19  and  N_20 
REMARK       I    between atoms: N_20  and  C_27 
REMARK       I    between atoms: N_26  and  C_27 
ROOT
HETATM    1  N           1     -20.964  -6.317  -7.033  0.00  0.00    -0.345 N 
HETATM    2  H           1     -21.244  -7.114  -7.590  0.00  0.00     0.163 HD
HETATM    3  C           1     -20.930  -6.414  -5.668  0.00  0.00     0.249 C 
HETATM    4  O           1     -20.597  -5.463  -5.002  0.00  0.00    -0.271 OA
ENDROOT
BRANCH   1   5
HETATM    5  C           1     -20.599  -5.072  -7.680  0.00  0.00     0.185 C 
BRANCH   5   6
HETATM    6  C           1     -20.242  -5.341  -9.135  0.00  0.00     0.038 C 
BRANCH   6   7
HETATM    7  C           1     -20.067  -4.018  -9.869  0.00  0.00     0.023 C 
BRANCH   7   8
HETATM    8  C           1     -20.731  -4.103 -11.237  0.00  0.00     0.138 C 
BRANCH   8   9
HETATM    9  N           1     -22.042  -3.440 -11.188  0.00  0.00    -0.227 N 
HETATM   10  H           1     -22.496  -3.241 -10.263  0.00  0.00     0.177 HD
HETATM   11  C           1     -22.624  -3.109 -12.262  0.00  0.00     0.665 C 
HETATM   12  N           1     -22.077  -3.348 -13.379  0.00  0.00    -0.235 N 
HETATM   13  N           1     -23.783  -2.522 -12.220  0.00  0.00    -0.235 N 
HETATM   14  H           1     -21.140  -3.822 -13.413  0.00  0.00     0.174 HD
HETATM   15  H           1     -22.559  -3.073 -14.270  0.00  0.00     0.174 HD
HETATM   16  H           1     -24.235  -2.324 -11.298  0.00  0.00     0.174 HD
HETATM   17  H           1     -24.263  -2.248 -13.107  0.00  0.00     0.174 HD
ENDBRANCH   8   9
ENDBRANCH   7   8
ENDBRANCH   6   7
ENDBRANCH   5   6
BRANCH   5  18
HETATM   18  C           1     -21.762  -4.112  -7.616  0.00  0.00     0.196 C 
HETATM   19  O           1     -21.633  -3.012  -7.040  0.00  0.00    -0.646 OA
HETATM   20  O           1     -22.854  -4.418  -8.142  0.00  0.00    -0.646 OA
ENDBRANCH   5  18
ENDBRANCH   1   5
BRANCH   3  21
HETATM   21  C           1     -21.311  -7.711  -4.995  0.00  0.00     0.278 C 
BRANCH  21  22
HETATM   22  C           1     -20.401  -7.947  -3.796  0.00  0.00     0.081 C 
BRANCH  22  23
HETATM   23  C           1     -21.222  -7.978  -2.544  0.00  0.00    -0.056 A 
HETATM   24  C           1     -21.693  -6.788  -1.989  0.00  0.00     0.010 A 
HETATM   25  C           1     -22.457  -6.817  -0.823  0.00  0.00     0.037 A 
HETATM   26  C           1     -22.749  -8.036  -0.211  0.00  0.00     0.065 A 
HETATM   27  C           1     -22.278  -9.225  -0.765  0.00  0.00     0.037 A 
HETATM   28  C           1     -21.514  -9.197  -1.931  0.00  0.00     0.010 A 
BRANCH  26  29
HETATM   29  O           1     -23.491  -8.063   0.922  0.00  0.00    -0.361 OA
HETATM   30  H           1     -24.378  -8.390   0.693  0.00  0.00     0.217 HD
ENDBRANCH  26  29
ENDBRANCH  22  23
ENDBRANCH  21  22
BRANCH  21  31
HETATM   31  N           1     -21.157  -8.842  -5.968  0.00  0.00    -0.066 N 
HETATM   32  H           1     -20.173  -9.194  -5.941  0.00  0.00     0.275 HD
HETATM   33  H           1     -21.810  -9.616  -5.706  0.00  0.00     0.275 HD
HETATM   34  H           1     -21.382  -8.506  -6.931  0.00  0.00     0.275 HD
ENDBRANCH  21  31
ENDBRANCH   3  21
TORSDOF 11
ENDMDL
MODEL 8
REMARK VINA RESULT:      -7.5     13.007     15.444
REMARK  11 active torsions:
REMARK  status: ('A' for Active; 'I' for Inactive)
REMARK    1  A    between atoms: C_1  and  C_32 
REMARK    2  A    between atoms: C_1  and  C_2 
REMARK    3  A    between atoms: C_4  and  O_7 
REMARK    4  A    between atoms: C_5  and  C_19 
REMARK    5  A    between atoms: C_5  and  C_10 
REMARK    6  A    between atoms: N_6  and  C_32 
REMARK    7  A    between atoms: N_8  and  C_28 
REMARK       I    between atoms: N_8  and  C_17 
REMARK    8  A    between atoms: C_10  and  C_28 
REMARK    9  A    between atoms: C_16  and  C_28 
REMARK   10  A    between atoms: C_17  and  C_32 
REMARK   11  A    between atoms: C_19  and  N_20 
REMARK       I    between atoms: N_20  and  C_27 
REMARK       I    between atoms: N_26  and  C_27 
ROOT
HETATM    1  N           1     -35.481  -2.295 -12.083  0.00  0.00    -0.345 N 
HETATM    2  H           1     -36.114  -2.252 -12.871  0.00  0.00     0.163 HD
HETATM    3  C           1     -35.465  -1.283 -11.162  0.00  0.00     0.249 C 
HETATM    4  O           1     -34.708  -1.333 -10.221  0.00  0.00    -0.271 OA
ENDROOT
BRANCH   1   5
HETATM    5  C           1     -34.591  -3.429 -11.929  0.00  0.00     0.185 C 
BRANCH   5   6
HETATM    6  C           1     -35.143  -4.369 -10.867  0.00  0.00     0.038 C 
BRANCH   6   7
HETATM    7  C           1     -34.074  -5.381 -10.477  0.00  0.00     0.023 C 
BRANCH   7   8
HETATM    8  C           1     -34.739  -6.660  -9.985  0.00  0.00     0.138 C 
BRANCH   8   9
HETATM    9  N           1     -34.170  -7.814 -10.696  0.00  0.00    -0.227 N 
HETATM   10  H           1     -33.939  -7.740 -11.717  0.00  0.00     0.177 HD
HETATM   11  C           1     -33.958  -8.897 -10.076  0.00  0.00     0.665 C 
HETATM   12  N           1     -34.235  -8.986  -8.844  0.00  0.00    -0.235 N 
HETATM   13  N           1     -33.454  -9.917 -10.704  0.00  0.00    -0.235 N 
HETATM   14  H           1     -34.642  -8.162  -8.336  0.00  0.00     0.174 HD
HETATM   15  H           1     -34.059  -9.885  -8.330  0.00  0.00     0.174 HD
HETATM   16  H           1     -33.224  -9.844 -11.721  0.00  0.00     0.174 HD
HETATM   17  H           1     -33.278 -10.812 -10.192  0.00  0.00     0.174 HD
ENDBRANCH   8   9
ENDBRANCH   7   8
ENDBRANCH   6   7
ENDBRANCH   5   6
BRANCH   5  18
HETATM   18  C           1     -34.481  -4.164 -13.243  0.00  0.00     0.196 C 
HETATM   19  O           1     -33.761  -3.706 -14.156  0.00  0.00    -0.646 OA
HETATM   20  O           1     -35.109  -5.230 -13.417  0.00  0.00    -0.646 OA
ENDBRANCH   5  18
ENDBRANCH   1   5
BRANCH   3  21
HETATM   21  C           1     -36.392  -0.103 -11.322  0.00  0.00     0.278 C 
BRANCH  21  22
HETATM   22  C           1     -37.697  -0.378 -10.587  0.00  0.00     0.081 C 
BRANCH  22  23
HETATM   23  C           1     -37.588   0.108  -9.175  0.00  0.00    -0.056 A 
HETATM   24  C           1     -37.057   1.371  -8.911  0.00  0.00     0.010 A 
HETATM   25  C           1     -36.955   1.824  -7.596  0.00  0.00     0.037 A 
HETATM   26  C           1     -37.383   1.013  -6.545  0.00  0.00     0.065 A 
HETATM   27  C           1     -37.913  -0.250  -6.808  0.00  0.00     0.037 A 
HETATM   28  C           1     -38.015  -0.703  -8.123  0.00  0.00     0.010 A 
BRANCH  26  29
HETATM   29  O           1     -37.283   1.453  -5.267  0.00  0.00    -0.361 OA
HETATM   30  H           1     -36.793   0.786  -4.757  0.00  0.00     0.217 HD
ENDBRANCH  26  29
ENDBRANCH  22  23
ENDBRANCH  21  22
BRANCH  21  31
HETATM   31  N           1     -36.677   0.114 -12.779  0.00  0.00    -0.066 N 
HETATM   32  H           1     -37.685   0.358 -12.905  0.00  0.00     0.275 HD
HETATM   33  H           1     -36.083   0.897 -13.136  0.00  0.00     0.275 HD
HETATM   34  H           1     -36.460  -0.759 -13.310  0.00  0.00     0.275 HD
ENDBRANCH  21  31
ENDBRANCH   3  21
TORSDOF 11
ENDMDL
MODEL 9
REMARK VINA RESULT:      -7.3     12.985     16.067
REMARK  11 active torsions:
REMARK  status: ('A' for Active; 'I' for Inactive)
REMARK    1  A    between atoms: C_1  and  C_32 
REMARK    2  A    between atoms: C_1  and  C_2 
REMARK    3  A    between atoms: C_4  and  O_7 
REMARK    4  A    between atoms: C_5  and  C_19 
REMARK    5  A    between atoms: C_5  and  C_10 
REMARK    6  A    between atoms: N_6  and  C_32 
REMARK    7  A    between atoms: N_8  and  C_28 
REMARK       I    between atoms: N_8  and  C_17 
REMARK    8  A    between atoms: C_10  and  C_28 
REMARK    9  A    between atoms: C_16  and  C_28 
REMARK   10  A    between atoms: C_17  and  C_32 
REMARK   11  A    between atoms: C_19  and  N_20 
REMARK       I    between atoms: N_20  and  C_27 
REMARK       I    between atoms: N_26  and  C_27 
ROOT
HETATM    1  N           1     -35.414  -2.419 -11.990  0.00  0.00    -0.345 N 
HETATM    2  H           1     -36.040  -2.354 -12.784  0.00  0.00     0.163 HD
HETATM    3  C           1     -35.381  -1.414 -11.062  0.00  0.00     0.249 C 
HETATM    4  O           1     -34.633  -1.490 -10.116  0.00  0.00    -0.271 OA
ENDROOT
BRANCH   1   5
HETATM    5  C           1     -34.553  -3.575 -11.838  0.00  0.00     0.185 C 
BRANCH   5   6
HETATM    6  C           1     -35.135  -4.508 -10.785  0.00  0.00     0.038 C 
BRANCH   6   7
HETATM    7  C           1     -34.073  -5.507 -10.348  0.00  0.00     0.023 C 
BRANCH   7   8
HETATM    8  C           1     -34.742  -6.806  -9.920  0.00  0.00     0.138 C 
BRANCH   8   9
HETATM    9  N           1     -34.164  -7.928 -10.674  0.00  0.00    -0.227 N 
HETATM   10  H           1     -33.919  -7.809 -11.688  0.00  0.00     0.177 HD
HETATM   11  C           1     -33.959  -9.037 -10.100  0.00  0.00     0.665 C 
HETATM   12  N           1     -34.253  -9.182  -8.877  0.00  0.00    -0.235 N 
HETATM   13  N           1     -33.447 -10.029 -10.766  0.00  0.00    -0.235 N 
HETATM   14  H           1     -34.666  -8.380  -8.339  0.00  0.00     0.174 HD
HETATM   15  H           1     -34.083 -10.102  -8.401  0.00  0.00     0.174 HD
HETATM   16  H           1     -33.204  -9.910 -11.776  0.00  0.00     0.174 HD
HETATM   17  H           1     -33.278 -10.945 -10.292  0.00  0.00     0.174 HD
ENDBRANCH   8   9
ENDBRANCH   7   8
ENDBRANCH   6   7
ENDBRANCH   5   6
BRANCH   5  18
HETATM   18  C           1     -34.454  -4.305 -13.156  0.00  0.00     0.196 C 
HETATM   19  O           1     -33.690  -3.881 -14.049  0.00  0.00    -0.646 OA
HETATM   20  O           1     -35.136  -5.333 -13.354  0.00  0.00    -0.646 OA
ENDBRANCH   5  18
ENDBRANCH   1   5
BRANCH   3  21
HETATM   21  C           1     -36.277  -0.210 -11.220  0.00  0.00     0.278 C 
BRANCH  21  22
HETATM   22  C           1     -35.636   0.778 -12.185  0.00  0.00     0.081 C 
BRANCH  22  23
HETATM   23  C           1     -35.903   0.348 -13.594  0.00  0.00    -0.056 A 
HETATM   24  C           1     -37.207   0.064 -14.000  0.00  0.00     0.010 A 
HETATM   25  C           1     -37.457  -0.337 -15.312  0.00  0.00     0.037 A 
HETATM   26  C           1     -36.403  -0.456 -16.217  0.00  0.00     0.065 A 
HETATM   27  C           1     -35.099  -0.173 -15.812  0.00  0.00     0.037 A 
HETATM   28  C           1     -34.849   0.229 -14.500  0.00  0.00     0.010 A 
BRANCH  26  29
HETATM   29  O           1     -36.646  -0.845 -17.492  0.00  0.00    -0.361 OA
HETATM   30  H           1     -36.295  -1.746 -17.603  0.00  0.00     0.217 HD
ENDBRANCH  26  29
ENDBRANCH  22  23
ENDBRANCH  21  22
BRANCH  21  31
HETATM   31  N           1     -36.470   0.448  -9.886  0.00  0.00    -0.066 N 
HETATM   32  H           1     -36.441   1.487 -10.003  0.00  0.00     0.275 HD
HETATM   33  H           1     -37.396   0.168  -9.491  0.00  0.00     0.275 HD
HETATM   34  H           1     -35.708   0.149  -9.237  0.00  0.00     0.275 HD
ENDBRANCH  21  31
ENDBRANCH   3  21
TORSDOF 11
ENDMDL
