MODEL 1
REMARK VINA RESULT:      -7.1      0.000      0.000
REMARK  9 active torsions:
REMARK  status: ('A' for Active; 'I' for Inactive)
REMARK    1  A    between atoms: N_2  and  C_19 
REMARK       I    between atoms: N_2  and  C_3 
REMARK    2  A    between atoms: C_3  and  C_24 
REMARK    3  A    between atoms: C_8  and  C_10 
REMARK    4  A    between atoms: C_10  and  C_11 
REMARK    5  A    between atoms: C_11  and  C_19 
REMARK    6  A    between atoms: N_14  and  C_24 
REMARK    7  A    between atoms: C_16  and  C_23 
REMARK    8  A    between atoms: C_19  and  C_20 
REMARK    9  A    between atoms: C_23  and  C_24 
ROOT
HETATM    1  N           1     -35.413  -1.809 -12.640  0.00  0.00    -0.345 N 
HETATM    2  C           1     -34.447  -2.572 -12.040  0.00  0.00     0.249 C 
HETATM    3  O           1     -33.746  -2.093 -11.182  0.00  0.00    -0.271 OA
HETATM    4  H           1     -36.001  -2.210 -13.359  0.00  0.00     0.163 HD
ENDROOT
BRANCH   2   5
HETATM    5  C           1     -34.260  -4.011 -12.453  0.00  0.00     0.280 C 
BRANCH   5   6
HETATM    6  N           1     -33.811  -4.066 -13.883  0.00  0.00    -0.066 N 
HETATM    7  H           1     -34.218  -3.259 -14.407  0.00  0.00     0.275 HD
HETATM    8  H           1     -32.768  -4.017 -13.923  0.00  0.00     0.275 HD
HETATM    9  H           1     -34.136  -4.961 -14.316  0.00  0.00     0.275 HD
ENDBRANCH   5   6
BRANCH   5  10
HETATM   10  C           1     -33.205  -4.661 -11.566  0.00  0.00     0.101 C 
BRANCH  10  11
HETATM   11  C           1     -33.793  -5.859 -10.888  0.00  0.00     0.028 A 
HETATM   12  C           1     -34.969  -5.855 -10.176  0.00  0.00     0.114 A 
HETATM   13  N           1     -35.122  -7.141  -9.737  0.00  0.00    -0.360 N 
HETATM   14  C           1     -34.054  -7.860 -10.193  0.00  0.00     0.180 A 
HETATM   15  H           1     -35.916  -7.509  -9.158  0.00  0.00     0.166 HD
HETATM   16  N           1     -33.233  -7.110 -10.892  0.00  0.00    -0.355 N 
ATOM     17  HN          1     -32.364  -7.398 -11.341  1.00  0.00     0.166 HD
ENDBRANCH  10  11
ENDBRANCH   5  10
ENDBRANCH   2   5
BRANCH   1  18
HETATM   18  C           1     -35.594  -0.426 -12.243  0.00  0.00     0.186 C 
BRANCH  18  19
HETATM   19  C           1     -36.070   0.388 -13.439  0.00  0.00     0.046 C 
BRANCH  19  20
HETATM   20  C           1     -35.028   0.322 -14.548  0.00  0.00     0.116 C 
BRANCH  20  21
HETATM   21  C           1     -35.521  -0.584 -15.649  0.00  0.00     0.172 C 
HETATM   22  O           1     -36.261  -0.130 -16.547  0.00  0.00    -0.648 OA
HETATM   23  O           1     -35.189  -1.789 -15.662  0.00  0.00    -0.648 OA
ENDBRANCH  20  21
ENDBRANCH  19  20
ENDBRANCH  18  19
BRANCH  18  24
HETATM   24  C           1     -36.623  -0.349 -11.141  0.00  0.00     0.196 C 
HETATM   25  O           1     -36.500   0.497 -10.230  0.00  0.00    -0.646 OA
HETATM   26  O           1     -37.598  -1.131 -11.142  0.00  0.00    -0.646 OA
ENDBRANCH  18  24
ENDBRANCH   1  18
TORSDOF 9
ENDMDL
MODEL 2
REMARK VINA RESULT:      -6.8     11.917     13.562
REMARK  9 active torsions:
REMARK  status: ('A' for Active; 'I' for Inactive)
REMARK    1  A    between atoms: N_2  and  C_19 
REMARK       I    between atoms: N_2  and  C_3 
REMARK    2  A    between atoms: C_3  and  C_24 
REMARK    3  A    between atoms: C_8  and  C_10 
REMARK    4  A    between atoms: C_10  and  C_11 
REMARK    5  A    between atoms: C_11  and  C_19 
REMARK    6  A    between atoms: N_14  and  C_24 
REMARK    7  A    between atoms: C_16  and  C_23 
REMARK    8  A    between atoms: C_19  and  C_20 
REMARK    9  A    between atoms: C_23  and  C_24 
ROOT
HETATM    1  N           1     -22.244  -4.809  -9.195  0.00  0.00    -0.345 N 
HETATM    2  C           1     -21.707  -4.497  -7.975  0.00  0.00     0.249 C 
HETATM    3  O           1     -21.751  -3.361  -7.568  0.00  0.00    -0.271 OA
HETATM    4  H           1     -22.208  -5.760  -9.536  0.00  0.00     0.163 HD
ENDROOT
BRANCH   2   5
HETATM    5  C           1     -21.060  -5.574  -7.138  0.00  0.00     0.280 C 
BRANCH   5   6
HETATM    6  N           1     -19.772  -5.998  -7.780  0.00  0.00    -0.066 N 
HETATM    7  H           1     -19.760  -7.038  -7.881  0.00  0.00     0.275 HD
HETATM    8  H           1     -19.691  -5.555  -8.723  0.00  0.00     0.275 HD
HETATM    9  H           1     -18.970  -5.697  -7.182  0.00  0.00     0.275 HD
ENDBRANCH   5   6
BRANCH   5  10
HETATM   10  C           1     -20.778  -5.033  -5.743  0.00  0.00     0.101 C 
BRANCH  10  11
HETATM   11  C           1     -21.133  -6.070  -4.724  0.00  0.00     0.028 A 
HETATM   12  C           1     -21.287  -7.409  -4.993  0.00  0.00     0.114 A 
HETATM   13  N           1     -21.606  -7.978  -3.792  0.00  0.00    -0.360 N 
HETATM   14  C           1     -21.631  -6.981  -2.859  0.00  0.00     0.180 A 
HETATM   15  H           1     -21.795  -8.996  -3.617  0.00  0.00     0.166 HD
HETATM   16  N           1     -21.349  -5.815  -3.394  0.00  0.00    -0.355 N 
ATOM     17  HN          1     -21.301  -4.913  -2.921  1.00  0.00     0.166 HD
ENDBRANCH  10  11
ENDBRANCH   5  10
ENDBRANCH   2   5
BRANCH   1  18
HETATM   18  C           1     -22.866  -3.774  -9.999  0.00  0.00     0.186 C 
BRANCH  18  19
HETATM   19  C           1     -22.542  -4.008 -11.468  0.00  0.00     0.046 C 
BRANCH  19  20
HETATM   20  C           1     -22.742  -2.713 -12.245  0.00  0.00     0.116 C 
BRANCH  20  21
HETATM   21  C           1     -23.783  -2.923 -13.316  0.00  0.00     0.172 C 
HETATM   22  O           1     -24.996  -2.940 -13.014  0.00  0.00    -0.648 OA
HETATM   23  O           1     -23.434  -3.081 -14.507  0.00  0.00    -0.648 OA
ENDBRANCH  20  21
ENDBRANCH  19  20
ENDBRANCH  18  19
BRANCH  18  24
HETATM   24  C           1     -24.361  -3.815  -9.801  0.00  0.00     0.196 C 
HETATM   25  O           1     -24.987  -2.762  -9.548  0.00  0.00    -0.646 OA
HETATM   26  O           1     -24.974  -4.900  -9.891  0.00  0.00    -0.646 OA
ENDBRANCH  18  24
ENDBRANCH   1  18
TORSDOF 9
ENDMDL
MODEL 3
REMARK VINA RESULT:      -6.4      2.754      6.981
REMARK  9 active torsions:
REMARK  status: ('A' for Active; 'I' for Inactive)
REMARK    1  A    between atoms: N_2  and  C_19 
REMARK       I    between atoms: N_2  and  C_3 
REMARK    2  A    between atoms: C_3  and  C_24 
REMARK    3  A    between atoms: C_8  and  C_10 
REMARK    4  A    between atoms: C_10  and  C_11 
REMARK    5  A    between atoms: C_11  and  C_19 
REMARK    6  A    between atoms: N_14  and  C_24 
REMARK    7  A    between atoms: C_16  and  C_23 
REMARK    8  A    between atoms: C_19  and  C_20 
REMARK    9  A    between atoms: C_23  and  C_24 
ROOT
HETATM    1  N           1     -35.262  -2.866 -11.636  0.00  0.00    -0.345 N 
HETATM    2  C           1     -34.994  -1.525 -11.565  0.00  0.00     0.249 C 
HETATM    3  O           1     -33.918  -1.143 -11.171  0.00  0.00    -0.271 OA
HETATM    4  H           1     -36.163  -3.186 -11.966  0.00  0.00     0.163 HD
ENDROOT
BRANCH   2   5
HETATM    5  C           1     -36.043  -0.524 -11.983  0.00  0.00     0.280 C 
BRANCH   5   6
HETATM    6  N           1     -36.371   0.369 -10.822  0.00  0.00    -0.066 N 
HETATM    7  H           1     -37.385   0.619 -10.851  0.00  0.00     0.275 HD
HETATM    8  H           1     -36.161  -0.131  -9.929  0.00  0.00     0.275 HD
HETATM    9  H           1     -35.796   1.239 -10.879  0.00  0.00     0.275 HD
ENDBRANCH   5   6
BRANCH   5  10
HETATM   10  C           1     -35.513   0.318 -13.135  0.00  0.00     0.101 C 
BRANCH  10  11
HETATM   11  C           1     -36.365   0.100 -14.346  0.00  0.00     0.028 A 
HETATM   12  C           1     -35.897  -0.342 -15.561  0.00  0.00     0.114 A 
HETATM   13  N           1     -37.000  -0.396 -16.367  0.00  0.00    -0.360 N 
HETATM   14  C           1     -38.073   0.005 -15.623  0.00  0.00     0.180 A 
HETATM   15  H           1     -37.020  -0.694 -17.374  0.00  0.00     0.166 HD
HETATM   16  N           1     -37.719   0.312 -14.396  0.00  0.00    -0.355 N 
ATOM     17  HN          1     -38.322   0.638 -13.642  1.00  0.00     0.166 HD
ENDBRANCH  10  11
ENDBRANCH   5  10
ENDBRANCH   2   5
BRANCH   1  18
HETATM   18  C           1     -34.253  -3.828 -11.235  0.00  0.00     0.186 C 
BRANCH  18  19
HETATM   19  C           1     -34.924  -5.143 -10.863  0.00  0.00     0.046 C 
BRANCH  19  20
HETATM   20  C           1     -33.892  -6.264 -10.882  0.00  0.00     0.116 C 
BRANCH  20  21
HETATM   21  C           1     -34.424  -7.451 -10.118  0.00  0.00     0.172 C 
HETATM   22  O           1     -33.799  -8.533 -10.131  0.00  0.00    -0.648 OA
HETATM   23  O           1     -35.490  -7.353  -9.471  0.00  0.00    -0.648 OA
ENDBRANCH  20  21
ENDBRANCH  19  20
ENDBRANCH  18  19
BRANCH  18  24
HETATM   24  C           1     -33.297  -4.059 -12.380  0.00  0.00     0.196 C 
HETATM   25  O           1     -33.708  -3.997 -13.559  0.00  0.00    -0.646 OA
HETATM   26  O           1     -32.095  -4.311 -12.149  0.00  0.00    -0.646 OA
ENDBRANCH  18  24
ENDBRANCH   1  18
TORSDOF 9
ENDMDL
MODEL 4
REMARK VINA RESULT:      -6.3     13.596     16.439
REMARK  9 active torsions:
REMARK  status: ('A' for Active; 'I' for Inactive)
REMARK    1  A    between atoms: N_2  and  C_19 
REMARK       I    between atoms: N_2  and  C_3 
REMARK    2  A    between atoms: C_3  and  C_24 
REMARK    3  A    between atoms: C_8  and  C_10 
REMARK    4  A    between atoms: C_10  and  C_11 
REMARK    5  A    between atoms: C_11  and  C_19 
REMARK    6  A    between atoms: N_14  and  C_24 
REMARK    7  A    between atoms: C_16  and  C_23 
REMARK    8  A    between atoms: C_19  and  C_20 
REMARK    9  A    between atoms: C_23  and  C_24 
ROOT
HETATM    1  N           1     -21.489  -5.774  -5.681  0.00  0.00    -0.345 N 
HETATM    2  C           1     -20.658  -4.841  -6.241  0.00  0.00     0.249 C 
HETATM    3  O           1     -19.595  -4.592  -5.727  0.00  0.00    -0.271 OA
HETATM    4  H           1     -22.380  -5.983  -6.113  0.00  0.00     0.163 HD
ENDROOT
BRANCH   2   5
HETATM    5  C           1     -21.072  -4.125  -7.504  0.00  0.00     0.280 C 
BRANCH   5   6
HETATM    6  N           1     -19.849  -3.655  -8.235  0.00  0.00    -0.066 N 
HETATM    7  H           1     -18.996  -4.042  -7.772  0.00  0.00     0.275 HD
HETATM    8  H           1     -19.888  -3.986  -9.225  0.00  0.00     0.275 HD
HETATM    9  H           1     -19.812  -2.611  -8.217  0.00  0.00     0.275 HD
ENDBRANCH   5   6
BRANCH   5  10
HETATM   10  C           1     -21.860  -5.077  -8.393  0.00  0.00     0.101 C 
BRANCH  10  11
HETATM   11  C           1     -22.912  -4.312  -9.135  0.00  0.00     0.028 A 
HETATM   12  C           1     -22.849  -3.990 -10.470  0.00  0.00     0.114 A 
HETATM   13  N           1     -24.003  -3.301 -10.722  0.00  0.00    -0.360 N 
HETATM   14  C           1     -24.706  -3.235  -9.554  0.00  0.00     0.180 A 
HETATM   15  H           1     -24.295  -2.898 -11.647  0.00  0.00     0.166 HD
HETATM   16  N           1     -24.071  -3.837  -8.575  0.00  0.00    -0.355 N 
ATOM     17  HN          1     -24.374  -3.932  -7.606  1.00  0.00     0.166 HD
ENDBRANCH  10  11
ENDBRANCH   5  10
ENDBRANCH   2   5
BRANCH   1  18
HETATM   18  C           1     -21.091  -6.463  -4.469  0.00  0.00     0.186 C 
BRANCH  18  19
HETATM   19  C           1     -22.289  -6.586  -3.537  0.00  0.00     0.046 C 
BRANCH  19  20
HETATM   20  C           1     -21.913  -6.069  -2.154  0.00  0.00     0.116 C 
BRANCH  20  21
HETATM   21  C           1     -22.045  -7.183  -1.146  0.00  0.00     0.172 C 
HETATM   22  O           1     -21.188  -8.091  -1.103  0.00  0.00    -0.648 OA
HETATM   23  O           1     -23.013  -7.199  -0.354  0.00  0.00    -0.648 OA
ENDBRANCH  20  21
ENDBRANCH  19  20
ENDBRANCH  18  19
BRANCH  18  24
HETATM   24  C           1     -20.582  -7.841  -4.817  0.00  0.00     0.196 C 
HETATM   25  O           1     -19.700  -8.378  -4.114  0.00  0.00    -0.646 OA
HETATM   26  O           1     -21.045  -8.445  -5.809  0.00  0.00    -0.646 OA
ENDBRANCH  18  24
ENDBRANCH   1  18
TORSDOF 9
ENDMDL
MODEL 5
REMARK VINA RESULT:      -6.1     10.257     11.912
REMARK  9 active torsions:
REMARK  status: ('A' for Active; 'I' for Inactive)
REMARK    1  A    between atoms: N_2  and  C_19 
REMARK       I    between atoms: N_2  and  C_3 
REMARK    2  A    between atoms: C_3  and  C_24 
REMARK    3  A    between atoms: C_8  and  C_10 
REMARK    4  A    between atoms: C_10  and  C_11 
REMARK    5  A    between atoms: C_11  and  C_19 
REMARK    6  A    between atoms: N_14  and  C_24 
REMARK    7  A    between atoms: C_16  and  C_23 
REMARK    8  A    between atoms: C_19  and  C_20 
REMARK    9  A    between atoms: C_23  and  C_24 
ROOT
HETATM    1  N           1     -27.749  -6.708 -18.760  0.00  0.00    -0.345 N 
HETATM    2  C           1     -26.470  -6.428 -18.359  0.00  0.00     0.249 C 
HETATM    3  O           1     -26.253  -6.095 -17.218  0.00  0.00    -0.271 OA
HETATM    4  H           1     -27.930  -6.986 -19.715  0.00  0.00     0.163 HD
ENDROOT
BRANCH   2   5
HETATM    5  C           1     -25.330  -6.536 -19.343  0.00  0.00     0.280 C 
BRANCH   5   6
HETATM    6  N           1     -24.113  -7.062 -18.641  0.00  0.00    -0.066 N 
HETATM    7  H           1     -24.351  -7.283 -17.648  0.00  0.00     0.275 HD
HETATM    8  H           1     -23.783  -7.930 -19.121  0.00  0.00     0.275 HD
HETATM    9  H           1     -23.358  -6.340 -18.666  0.00  0.00     0.275 HD
ENDBRANCH   5   6
BRANCH   5  10
HETATM   10  C           1     -25.718  -7.488 -20.466  0.00  0.00     0.101 C 
BRANCH  10  11
HETATM   11  C           1     -24.496  -7.870 -21.241  0.00  0.00     0.028 A 
HETATM   12  C           1     -24.235  -7.478 -22.533  0.00  0.00     0.114 A 
HETATM   13  N           1     -23.030  -8.047 -22.839  0.00  0.00    -0.360 N 
HETATM   14  C           1     -22.616  -8.747 -21.742  0.00  0.00     0.180 A 
HETATM   15  H           1     -22.517  -7.960 -23.751  0.00  0.00     0.166 HD
HETATM   16  N           1     -23.482  -8.659 -20.760  0.00  0.00    -0.355 N 
ATOM     17  HN          1     -23.416  -9.086 -19.836  1.00  0.00     0.166 HD
ENDBRANCH  10  11
ENDBRANCH   5  10
ENDBRANCH   2   5
BRANCH   1  18
HETATM   18  C           1     -28.843  -6.604 -17.814  0.00  0.00     0.186 C 
BRANCH  18  19
HETATM   19  C           1     -29.787  -5.490 -18.248  0.00  0.00     0.046 C 
BRANCH  19  20
HETATM   20  C           1     -30.929  -5.373 -17.247  0.00  0.00     0.116 C 
BRANCH  20  21
HETATM   21  C           1     -31.588  -4.024 -17.391  0.00  0.00     0.172 C 
HETATM   22  O           1     -32.751  -3.848 -16.968  0.00  0.00    -0.648 OA
HETATM   23  O           1     -30.972  -3.081 -17.934  0.00  0.00    -0.648 OA
ENDBRANCH  20  21
ENDBRANCH  19  20
ENDBRANCH  18  19
BRANCH  18  24
HETATM   24  C           1     -29.596  -7.912 -17.771  0.00  0.00     0.196 C 
HETATM   25  O           1     -30.280  -8.271 -18.754  0.00  0.00    -0.646 OA
HETATM   26  O           1     -29.534  -8.635 -16.754  0.00  0.00    -0.646 OA
ENDBRANCH  18  24
ENDBRANCH   1  18
TORSDOF 9
ENDMDL
MODEL 6
REMARK VINA RESULT:      -6.1      8.747     11.206
REMARK  9 active torsions:
REMARK  status: ('A' for Active; 'I' for Inactive)
REMARK    1  A    between atoms: N_2  and  C_19 
REMARK       I    between atoms: N_2  and  C_3 
REMARK    2  A    between atoms: C_3  and  C_24 
REMARK    3  A    between atoms: C_8  and  C_10 
REMARK    4  A    between atoms: C_10  and  C_11 
REMARK    5  A    between atoms: C_11  and  C_19 
REMARK    6  A    between atoms: N_14  and  C_24 
REMARK    7  A    between atoms: C_16  and  C_23 
REMARK    8  A    between atoms: C_19  and  C_20 
REMARK    9  A    between atoms: C_23  and  C_24 
ROOT
HETATM    1  N           1     -27.919  -7.067 -19.094  0.00  0.00    -0.345 N 
HETATM    2  C           1     -28.907  -6.151 -18.847  0.00  0.00     0.249 C 
HETATM    3  O           1     -28.714  -4.980 -19.069  0.00  0.00    -0.271 OA
HETATM    4  H           1     -28.081  -8.048 -18.909  0.00  0.00     0.163 HD
ENDROOT
BRANCH   2   5
HETATM    5  C           1     -30.237  -6.607 -18.300  0.00  0.00     0.280 C 
BRANCH   5   6
HETATM    6  N           1     -30.246  -8.103 -18.190  0.00  0.00    -0.066 N 
HETATM    7  H           1     -31.177  -8.421 -17.837  0.00  0.00     0.275 HD
HETATM    8  H           1     -30.070  -8.521 -19.131  0.00  0.00     0.275 HD
HETATM    9  H           1     -29.499  -8.408 -17.527  0.00  0.00     0.275 HD
ENDBRANCH   5   6
BRANCH   5  10
HETATM   10  C           1     -30.456  -5.996 -16.922  0.00  0.00     0.101 C 
BRANCH  10  11
HETATM   11  C           1     -31.556  -4.984 -16.993  0.00  0.00     0.028 A 
HETATM   12  C           1     -31.423  -3.721 -17.520  0.00  0.00     0.114 A 
HETATM   13  N           1     -32.656  -3.148 -17.382  0.00  0.00    -0.360 N 
HETATM   14  C           1     -33.474  -4.068 -16.791  0.00  0.00     0.180 A 
HETATM   15  H           1     -32.927  -2.178 -17.679  0.00  0.00     0.166 HD
HETATM   16  N           1     -32.835  -5.189 -16.543  0.00  0.00    -0.355 N 
ATOM     17  HN          1     -33.211  -6.032 -16.109  1.00  0.00     0.166 HD
ENDBRANCH  10  11
ENDBRANCH   5  10
ENDBRANCH   2   5
BRANCH   1  18
HETATM   18  C           1     -26.641  -6.629 -19.621  0.00  0.00     0.186 C 
BRANCH  18  19
HETATM   19  C           1     -25.603  -6.635 -18.507  0.00  0.00     0.046 C 
BRANCH  19  20
HETATM   20  C           1     -26.292  -6.410 -17.167  0.00  0.00     0.116 C 
BRANCH  20  21
HETATM   21  C           1     -25.293  -6.585 -16.050  0.00  0.00     0.172 C 
HETATM   22  O           1     -24.788  -7.707 -15.834  0.00  0.00    -0.648 OA
HETATM   23  O           1     -24.970  -5.607 -15.341  0.00  0.00    -0.648 OA
ENDBRANCH  20  21
ENDBRANCH  19  20
ENDBRANCH  18  19
BRANCH  18  24
HETATM   24  C           1     -26.203  -7.566 -20.720  0.00  0.00     0.196 C 
HETATM   25  O           1     -25.020  -7.546 -21.123  0.00  0.00    -0.646 OA
HETATM   26  O           1     -27.023  -8.362 -21.227  0.00  0.00    -0.646 OA
ENDBRANCH  18  24
ENDBRANCH   1  18
TORSDOF 9
ENDMDL
MODEL 7
REMARK VINA RESULT:      -5.9     12.124     14.089
REMARK  9 active torsions:
REMARK  status: ('A' for Active; 'I' for Inactive)
REMARK    1  A    between atoms: N_2  and  C_19 
REMARK       I    between atoms: N_2  and  C_3 
REMARK    2  A    between atoms: C_3  and  C_24 
REMARK    3  A    between atoms: C_8  and  C_10 
REMARK    4  A    between atoms: C_10  and  C_11 
REMARK    5  A    between atoms: C_11  and  C_19 
REMARK    6  A    between atoms: N_14  and  C_24 
REMARK    7  A    between atoms: C_16  and  C_23 
REMARK    8  A    between atoms: C_19  and  C_20 
REMARK    9  A    between atoms: C_23  and  C_24 
ROOT
HETATM    1  N           1     -21.714  -4.445  -9.929  0.00  0.00    -0.345 N 
HETATM    2  C           1     -20.462  -4.879  -9.585  0.00  0.00     0.249 C 
HETATM    3  O           1     -19.660  -5.155 -10.445  0.00  0.00    -0.271 OA
HETATM    4  H           1     -22.386  -4.214  -9.208  0.00  0.00     0.163 HD
ENDROOT
BRANCH   2   5
HETATM    5  C           1     -20.084  -5.012  -8.130  0.00  0.00     0.280 C 
BRANCH   5   6
HETATM    6  N           1     -19.056  -3.975  -7.784  0.00  0.00    -0.066 N 
HETATM    7  H           1     -18.107  -4.411  -7.787  0.00  0.00     0.275 HD
HETATM    8  H           1     -19.088  -3.206  -8.490  0.00  0.00     0.275 HD
HETATM    9  H           1     -19.258  -3.588  -6.835  0.00  0.00     0.275 HD
ENDBRANCH   5   6
BRANCH   5  10
HETATM   10  C           1     -21.319  -4.810  -7.263  0.00  0.00     0.101 C 
BRANCH  10  11
HETATM   11  C           1     -21.306  -5.796  -6.136  0.00  0.00     0.028 A 
HETATM   12  C           1     -20.268  -6.654  -5.862  0.00  0.00     0.114 A 
HETATM   13  N           1     -20.675  -7.363  -4.765  0.00  0.00    -0.360 N 
HETATM   14  C           1     -21.918  -6.914  -4.424  0.00  0.00     0.180 A 
HETATM   15  H           1     -20.129  -8.114  -4.274  0.00  0.00     0.166 HD
HETATM   16  N           1     -22.327  -5.966  -5.236  0.00  0.00    -0.355 N 
ATOM     17  HN          1     -23.213  -5.463  -5.204  1.00  0.00     0.166 HD
ENDBRANCH  10  11
ENDBRANCH   5  10
ENDBRANCH   2   5
BRANCH   1  18
HETATM   18  C           1     -22.077  -4.316 -11.327  0.00  0.00     0.186 C 
BRANCH  18  19
HETATM   19  C           1     -23.505  -4.804 -11.529  0.00  0.00     0.046 C 
BRANCH  19  20
HETATM   20  C           1     -24.165  -5.021 -10.173  0.00  0.00     0.116 C 
BRANCH  20  21
HETATM   21  C           1     -24.730  -3.714  -9.673  0.00  0.00     0.172 C 
HETATM   22  O           1     -25.808  -3.283 -10.133  0.00  0.00    -0.648 OA
HETATM   23  O           1     -24.118  -3.063  -8.798  0.00  0.00    -0.648 OA
ENDBRANCH  20  21
ENDBRANCH  19  20
ENDBRANCH  18  19
BRANCH  18  24
HETATM   24  C           1     -21.979  -2.868 -11.740  0.00  0.00     0.196 C 
HETATM   25  O           1     -20.958  -2.204 -11.453  0.00  0.00    -0.646 OA
HETATM   26  O           1     -22.916  -2.332 -12.370  0.00  0.00    -0.646 OA
ENDBRANCH  18  24
ENDBRANCH   1  18
TORSDOF 9
ENDMDL
MODEL 8
REMARK VINA RESULT:      -5.9      8.378     10.438
REMARK  9 active torsions:
REMARK  status: ('A' for Active; 'I' for Inactive)
REMARK    1  A    between atoms: N_2  and  C_19 
REMARK       I    between atoms: N_2  and  C_3 
REMARK    2  A    between atoms: C_3  and  C_24 
REMARK    3  A    between atoms: C_8  and  C_10 
REMARK    4  A    between atoms: C_10  and  C_11 
REMARK    5  A    between atoms: C_11  and  C_19 
REMARK    6  A    between atoms: N_14  and  C_24 
REMARK    7  A    between atoms: C_16  and  C_23 
REMARK    8  A    between atoms: C_19  and  C_20 
REMARK    9  A    between atoms: C_23  and  C_24 
ROOT
HETATM    1  N           1     -28.315  -6.264 -17.770  0.00  0.00    -0.345 N 
HETATM    2  C           1     -29.466  -6.957 -17.509  0.00  0.00     0.249 C 
HETATM    3  O           1     -29.415  -8.130 -17.226  0.00  0.00    -0.271 OA
HETATM    4  H           1     -28.358  -5.281 -18.007  0.00  0.00     0.163 HD
ENDROOT
BRANCH   2   5
HETATM    5  C           1     -30.800  -6.255 -17.574  0.00  0.00     0.280 C 
BRANCH   5   6
HETATM    6  N           1     -31.903  -7.263 -17.442  0.00  0.00    -0.066 N 
HETATM    7  H           1     -32.688  -6.851 -16.888  0.00  0.00     0.275 HD
HETATM    8  H           1     -32.249  -7.527 -18.392  0.00  0.00     0.275 HD
HETATM    9  H           1     -31.541  -8.113 -16.953  0.00  0.00     0.275 HD
ENDBRANCH   5   6
BRANCH   5  10
HETATM   10  C           1     -30.899  -5.244 -16.439  0.00  0.00     0.101 C 
BRANCH  10  11
HETATM   11  C           1     -32.135  -4.418 -16.612  0.00  0.00     0.028 A 
HETATM   12  C           1     -32.343  -3.529 -17.639  0.00  0.00     0.114 A 
HETATM   13  N           1     -33.584  -3.004 -17.408  0.00  0.00    -0.360 N 
HETATM   14  C           1     -34.071  -3.585 -16.272  0.00  0.00     0.180 A 
HETATM   15  H           1     -34.074  -2.286 -17.996  0.00  0.00     0.166 HD
HETATM   16  N           1     -33.216  -4.445 -15.768  0.00  0.00    -0.355 N 
ATOM     17  HN          1     -33.331  -5.012 -14.928  1.00  0.00     0.166 HD
ENDBRANCH  10  11
ENDBRANCH   5  10
ENDBRANCH   2   5
BRANCH   1  18
HETATM   18  C           1     -27.033  -6.939 -17.707  0.00  0.00     0.186 C 
BRANCH  18  19
HETATM   19  C           1     -26.142  -6.447 -18.839  0.00  0.00     0.046 C 
BRANCH  19  20
HETATM   20  C           1     -26.824  -6.713 -20.176  0.00  0.00     0.116 C 
BRANCH  20  21
HETATM   21  C           1     -26.143  -7.867 -20.868  0.00  0.00     0.172 C 
HETATM   22  O           1     -24.911  -8.032 -20.743  0.00  0.00    -0.648 OA
HETATM   23  O           1     -26.812  -8.659 -21.567  0.00  0.00    -0.648 OA
ENDBRANCH  20  21
ENDBRANCH  19  20
ENDBRANCH  18  19
BRANCH  18  24
HETATM   24  C           1     -26.373  -6.641 -16.383  0.00  0.00     0.196 C 
HETATM   25  O           1     -26.590  -7.377 -15.396  0.00  0.00    -0.646 OA
HETATM   26  O           1     -25.608  -5.658 -16.273  0.00  0.00    -0.646 OA
ENDBRANCH  18  24
ENDBRANCH   1  18
TORSDOF 9
ENDMDL
MODEL 9
REMARK VINA RESULT:      -5.8      2.720      6.602
REMARK  9 active torsions:
REMARK  status: ('A' for Active; 'I' for Inactive)
REMARK    1  A    between atoms: N_2  and  C_19 
REMARK       I    between atoms: N_2  and  C_3 
REMARK    2  A    between atoms: C_3  and  C_24 
REMARK    3  A    between atoms: C_8  and  C_10 
REMARK    4  A    between atoms: C_10  and  C_11 
REMARK    5  A    between atoms: C_11  and  C_19 
REMARK    6  A    between atoms: N_14  and  C_24 
REMARK    7  A    between atoms: C_16  and  C_23 
REMARK    8  A    between atoms: C_19  and  C_20 
REMARK    9  A    between atoms: C_23  and  C_24 
ROOT
HETATM    1  N           1     -35.910  -3.090 -10.904  0.00  0.00    -0.345 N 
HETATM    2  C           1     -35.636  -1.838 -10.422  0.00  0.00     0.249 C 
HETATM    3  O           1     -34.492  -1.499 -10.236  0.00  0.00    -0.271 OA
HETATM    4  H           1     -36.868  -3.374 -11.060  0.00  0.00     0.163 HD
ENDROOT
BRANCH   2   5
HETATM    5  C           1     -36.765  -0.882 -10.123  0.00  0.00     0.280 C 
BRANCH   5   6
HETATM    6  N           1     -36.232   0.300  -9.368  0.00  0.00    -0.066 N 
HETATM    7  H           1     -36.405   0.167  -8.347  0.00  0.00     0.275 HD
HETATM    8  H           1     -35.205   0.387  -9.539  0.00  0.00     0.275 HD
HETATM    9  H           1     -36.715   1.168  -9.693  0.00  0.00     0.275 HD
ENDBRANCH   5   6
BRANCH   5  10
HETATM   10  C           1     -37.389  -0.409 -11.430  0.00  0.00     0.101 C 
BRANCH  10  11
HETATM   11  C           1     -36.310  -0.160 -12.437  0.00  0.00     0.028 A 
HETATM   12  C           1     -36.241  -0.760 -13.672  0.00  0.00     0.114 A 
HETATM   13  N           1     -35.112  -0.250 -14.251  0.00  0.00    -0.360 N 
HETATM   14  C           1     -34.552   0.623 -13.362  0.00  0.00     0.180 A 
HETATM   15  H           1     -34.743  -0.485 -15.206  0.00  0.00     0.166 HD
HETATM   16  N           1     -35.255   0.697 -12.255  0.00  0.00    -0.355 N 
ATOM     17  HN          1     -35.058   1.270 -11.435  1.00  0.00     0.166 HD
ENDBRANCH  10  11
ENDBRANCH   5  10
ENDBRANCH   2   5
BRANCH   1  18
HETATM   18  C           1     -34.825  -4.009 -11.191  0.00  0.00     0.186 C 
BRANCH  18  19
HETATM   19  C           1     -35.203  -5.406 -10.719  0.00  0.00     0.046 C 
BRANCH  19  20
HETATM   20  C           1     -33.946  -6.257 -10.590  0.00  0.00     0.116 C 
BRANCH  20  21
HETATM   21  C           1     -34.321  -7.641 -10.118  0.00  0.00     0.172 C 
HETATM   22  O           1     -35.455  -7.851  -9.638  0.00  0.00    -0.648 OA
HETATM   23  O           1     -33.496  -8.576 -10.208  0.00  0.00    -0.648 OA
ENDBRANCH  20  21
ENDBRANCH  19  20
ENDBRANCH  18  19
BRANCH  18  24
HETATM   24  C           1     -34.568  -4.033 -12.678  0.00  0.00     0.196 C 
HETATM   25  O           1     -33.880  -3.134 -13.208  0.00  0.00    -0.646 OA
HETATM   26  O           1     -35.042  -4.953 -13.379  0.00  0.00    -0.646 OA
ENDBRANCH  18  24
ENDBRANCH   1  18
TORSDOF 9
ENDMDL
