MODEL 1
REMARK VINA RESULT:      -6.2      0.000      0.000
REMARK  3 active torsions:
REMARK  status: ('A' for Active; 'I' for Inactive)
REMARK    1  A    between atoms: N_8  and  C_10 
REMARK    2  A    between atoms: C_10  and  C_11 
REMARK       I    between atoms: C_11  and  N_12 
REMARK    3  A    between atoms: C_13  and  C_15 
ROOT
HETATM    1  C           1     -22.221  -4.848 -10.351  0.00  0.00     0.038 C 
HETATM    2  C           1     -21.205  -3.747 -10.633  0.00  0.00     0.022 C 
HETATM    3  C           1     -21.973  -2.686 -11.402  0.00  0.00     0.127 C 
HETATM    4  O           1     -24.522  -3.961 -13.621  0.00  0.00    -0.271 OA
HETATM    5  C           1     -23.597  -3.273 -13.263  0.00  0.00     0.250 C 
HETATM    6  N           1     -23.081  -3.423 -12.003  0.00  0.00    -0.336 N 
HETATM    7  C           1     -23.519  -4.355 -10.968  0.00  0.00     0.188 C 
ENDROOT
BRANCH   5   8
HETATM    8  C           1     -23.009  -2.249 -14.202  0.00  0.00     0.271 C 
HETATM    9  C           1     -24.116  -1.345 -14.724  0.00  0.00     0.050 C 
BRANCH   8  10
HETATM   10  N           1     -22.349  -2.949 -15.354  0.00  0.00    -0.067 N 
HETATM   11  H           1     -22.987  -2.936 -16.181  0.00  0.00     0.275 HD
HETATM   12  H           1     -22.142  -3.938 -15.088  0.00  0.00     0.275 HD
HETATM   13  H           1     -21.457  -2.460 -15.594  0.00  0.00     0.275 HD
ENDBRANCH   8  10
ENDBRANCH   5   8
BRANCH   7  14
HETATM   14  C           1     -24.370  -3.653  -9.938  0.00  0.00     0.196 C 
HETATM   15  O           1     -24.022  -3.649  -8.737  0.00  0.00    -0.646 OA
HETATM   16  O           1     -25.424  -3.078 -10.285  0.00  0.00    -0.646 OA
ENDBRANCH   7  14
TORSDOF 3
ENDMDL
MODEL 2
REMARK VINA RESULT:      -5.7      3.008      5.200
REMARK  3 active torsions:
REMARK  status: ('A' for Active; 'I' for Inactive)
REMARK    1  A    between atoms: N_8  and  C_10 
REMARK    2  A    between atoms: C_10  and  C_11 
REMARK       I    between atoms: C_11  and  N_12 
REMARK    3  A    between atoms: C_13  and  C_15 
ROOT
HETATM    1  C           1     -23.726  -4.914 -11.303  0.00  0.00     0.038 C 
HETATM    2  C           1     -24.267  -4.676  -9.897  0.00  0.00     0.022 C 
HETATM    3  C           1     -23.133  -3.999  -9.147  0.00  0.00     0.127 C 
HETATM    4  O           1     -19.820  -5.090 -10.085  0.00  0.00    -0.271 OA
HETATM    5  C           1     -20.724  -4.770  -9.350  0.00  0.00     0.250 C 
HETATM    6  N           1     -21.936  -4.410  -9.874  0.00  0.00    -0.336 N 
HETATM    7  C           1     -22.315  -4.354 -11.283  0.00  0.00     0.188 C 
ENDROOT
BRANCH   5   8
HETATM    8  C           1     -20.517  -4.768  -7.856  0.00  0.00     0.271 C 
HETATM    9  C           1     -19.084  -4.363  -7.541  0.00  0.00     0.050 C 
BRANCH   8  10
HETATM   10  N           1     -20.778  -6.144  -7.314  0.00  0.00    -0.067 N 
HETATM   11  H           1     -20.561  -6.854  -8.049  0.00  0.00     0.275 HD
HETATM   12  H           1     -21.783  -6.224  -7.037  0.00  0.00     0.275 HD
HETATM   13  H           1     -20.173  -6.310  -6.479  0.00  0.00     0.275 HD
ENDBRANCH   8  10
ENDBRANCH   5   8
BRANCH   7  14
HETATM   14  C           1     -22.295  -2.931 -11.789  0.00  0.00     0.196 C 
HETATM   15  O           1     -23.291  -2.465 -12.382  0.00  0.00    -0.646 OA
HETATM   16  O           1     -21.281  -2.221 -11.616  0.00  0.00    -0.646 OA
ENDBRANCH   7  14
TORSDOF 3
ENDMDL
MODEL 3
REMARK VINA RESULT:      -5.5      2.791      5.271
REMARK  3 active torsions:
REMARK  status: ('A' for Active; 'I' for Inactive)
REMARK    1  A    between atoms: N_8  and  C_10 
REMARK    2  A    between atoms: C_10  and  C_11 
REMARK       I    between atoms: C_11  and  N_12 
REMARK    3  A    between atoms: C_13  and  C_15 
ROOT
HETATM    1  C           1     -21.710  -2.765 -11.303  0.00  0.00     0.038 C 
HETATM    2  C           1     -20.411  -3.546 -11.464  0.00  0.00     0.022 C 
HETATM    3  C           1     -20.574  -4.771 -10.581  0.00  0.00     0.127 C 
HETATM    4  O           1     -22.463  -4.225  -7.551  0.00  0.00    -0.271 OA
HETATM    5  C           1     -21.568  -4.637  -8.250  0.00  0.00     0.250 C 
HETATM    6  N           1     -21.564  -4.360  -9.591  0.00  0.00    -0.336 N 
HETATM    7  C           1     -22.550  -3.589 -10.343  0.00  0.00     0.188 C 
ENDROOT
BRANCH   5   8
HETATM    8  C           1     -20.455  -5.458  -7.646  0.00  0.00     0.271 C 
HETATM    9  C           1     -21.001  -6.280  -6.487  0.00  0.00     0.050 C 
BRANCH   8  10
HETATM   10  N           1     -19.376  -4.542  -7.146  0.00  0.00    -0.067 N 
HETATM   11  H           1     -19.187  -3.804  -7.860  0.00  0.00     0.275 HD
HETATM   12  H           1     -18.505  -5.093  -6.972  0.00  0.00     0.275 HD
HETATM   13  H           1     -19.686  -4.093  -6.254  0.00  0.00     0.275 HD
ENDBRANCH   8  10
ENDBRANCH   5   8
BRANCH   7  14
HETATM   14  C           1     -23.487  -4.502 -11.096  0.00  0.00     0.196 C 
HETATM   15  O           1     -23.720  -4.297 -12.306  0.00  0.00    -0.646 OA
HETATM   16  O           1     -24.031  -5.462 -10.508  0.00  0.00    -0.646 OA
ENDBRANCH   7  14
TORSDOF 3
ENDMDL
MODEL 4
REMARK VINA RESULT:      -5.3      2.973      4.033
REMARK  3 active torsions:
REMARK  status: ('A' for Active; 'I' for Inactive)
REMARK    1  A    between atoms: N_8  and  C_10 
REMARK    2  A    between atoms: C_10  and  C_11 
REMARK       I    between atoms: C_11  and  N_12 
REMARK    3  A    between atoms: C_13  and  C_15 
ROOT
HETATM    1  C           1     -19.965  -5.925  -7.305  0.00  0.00     0.038 C 
HETATM    2  C           1     -19.168  -4.655  -7.583  0.00  0.00     0.022 C 
HETATM    3  C           1     -20.175  -3.672  -8.154  0.00  0.00     0.127 C 
HETATM    4  O           1     -22.755  -5.154 -10.202  0.00  0.00    -0.271 OA
HETATM    5  C           1     -21.907  -4.358  -9.878  0.00  0.00     0.250 C 
HETATM    6  N           1     -21.225  -4.526  -8.703  0.00  0.00    -0.336 N 
HETATM    7  C           1     -21.388  -5.598  -7.725  0.00  0.00     0.188 C 
ENDROOT
BRANCH   5   8
HETATM    8  C           1     -21.599  -3.178 -10.767  0.00  0.00     0.271 C 
HETATM    9  C           1     -22.801  -2.882 -11.652  0.00  0.00     0.050 C 
BRANCH   8  10
HETATM   10  N           1     -20.411  -3.499 -11.627  0.00  0.00    -0.067 N 
HETATM   11  H           1     -20.591  -3.174 -12.603  0.00  0.00     0.275 HD
HETATM   12  H           1     -20.249  -4.531 -11.626  0.00  0.00     0.275 HD
HETATM   13  H           1     -19.566  -3.014 -11.248  0.00  0.00     0.275 HD
ENDBRANCH   8  10
ENDBRANCH   5   8
BRANCH   7  14
HETATM   14  C           1     -22.203  -5.129  -6.544  0.00  0.00     0.196 C 
HETATM   15  O           1     -21.800  -5.348  -5.381  0.00  0.00    -0.646 OA
HETATM   16  O           1     -23.280  -4.524  -6.729  0.00  0.00    -0.646 OA
ENDBRANCH   7  14
TORSDOF 3
ENDMDL
MODEL 5
REMARK VINA RESULT:      -5.2      2.439      3.369
REMARK  3 active torsions:
REMARK  status: ('A' for Active; 'I' for Inactive)
REMARK    1  A    between atoms: N_8  and  C_10 
REMARK    2  A    between atoms: C_10  and  C_11 
REMARK       I    between atoms: C_11  and  N_12 
REMARK    3  A    between atoms: C_13  and  C_15 
ROOT
HETATM    1  C           1     -22.399  -3.733  -8.263  0.00  0.00     0.038 C 
HETATM    2  C           1     -23.576  -4.598  -8.700  0.00  0.00     0.022 C 
HETATM    3  C           1     -23.320  -4.904 -10.165  0.00  0.00     0.127 C 
HETATM    4  O           1     -21.721  -2.247 -12.019  0.00  0.00    -0.271 OA
HETATM    5  C           1     -22.508  -3.136 -11.795  0.00  0.00     0.250 C 
HETATM    6  N           1     -22.457  -3.811 -10.605  0.00  0.00    -0.336 N 
HETATM    7  C           1     -21.528  -3.596  -9.499  0.00  0.00     0.188 C 
ENDROOT
BRANCH   5   8
HETATM    8  C           1     -23.546  -3.502 -12.827  0.00  0.00     0.271 C 
HETATM    9  C           1     -23.186  -2.862 -14.160  0.00  0.00     0.050 C 
BRANCH   8  10
HETATM   10  N           1     -24.890  -3.004 -12.380  0.00  0.00    -0.067 N 
HETATM   11  H           1     -24.912  -1.961 -12.439  0.00  0.00     0.275 HD
HETATM   12  H           1     -25.061  -3.302 -11.394  0.00  0.00     0.275 HD
HETATM   13  H           1     -25.632  -3.403 -12.998  0.00  0.00     0.275 HD
ENDBRANCH   8  10
ENDBRANCH   5   8
BRANCH   7  14
HETATM   14  C           1     -20.435  -4.638  -9.505  0.00  0.00     0.196 C 
HETATM   15  O           1     -19.825  -4.898 -10.564  0.00  0.00    -0.646 OA
HETATM   16  O           1     -20.142  -5.241  -8.450  0.00  0.00    -0.646 OA
ENDBRANCH   7  14
TORSDOF 3
ENDMDL
MODEL 6
REMARK VINA RESULT:      -4.8      1.928      2.406
REMARK  3 active torsions:
REMARK  status: ('A' for Active; 'I' for Inactive)
REMARK    1  A    between atoms: N_8  and  C_10 
REMARK    2  A    between atoms: C_10  and  C_11 
REMARK       I    between atoms: C_11  and  N_12 
REMARK    3  A    between atoms: C_13  and  C_15 
ROOT
HETATM    1  C           1     -20.310  -4.607  -9.930  0.00  0.00     0.038 C 
HETATM    2  C           1     -20.123  -3.444 -10.899  0.00  0.00     0.022 C 
HETATM    3  C           1     -21.531  -2.988 -11.244  0.00  0.00     0.127 C 
HETATM    4  O           1     -23.991  -5.628 -11.404  0.00  0.00    -0.271 OA
HETATM    5  C           1     -23.402  -4.629 -11.741  0.00  0.00     0.250 C 
HETATM    6  N           1     -22.353  -4.168 -10.992  0.00  0.00    -0.336 N 
HETATM    7  C           1     -21.813  -4.748  -9.766  0.00  0.00     0.188 C 
ENDROOT
BRANCH   5   8
HETATM    8  C           1     -23.821  -3.890 -12.988  0.00  0.00     0.271 C 
HETATM    9  C           1     -24.854  -2.831 -12.629  0.00  0.00     0.050 C 
BRANCH   8  10
HETATM   10  N           1     -24.417  -4.859 -13.966  0.00  0.00    -0.067 N 
HETATM   11  H           1     -24.819  -4.335 -14.775  0.00  0.00     0.275 HD
HETATM   12  H           1     -25.172  -5.408 -13.496  0.00  0.00     0.275 HD
HETATM   13  H           1     -23.675  -5.511 -14.308  0.00  0.00     0.275 HD
ENDBRANCH   8  10
ENDBRANCH   5   8
BRANCH   7  14
HETATM   14  C           1     -22.295  -3.989  -8.553  0.00  0.00     0.196 C 
HETATM   15  O           1     -23.519  -3.801  -8.381  0.00  0.00    -0.646 OA
HETATM   16  O           1     -21.471  -3.549  -7.723  0.00  0.00    -0.646 OA
ENDBRANCH   7  14
TORSDOF 3
ENDMDL
MODEL 7
REMARK VINA RESULT:      -4.8      9.770     12.010
REMARK  3 active torsions:
REMARK  status: ('A' for Active; 'I' for Inactive)
REMARK    1  A    between atoms: N_8  and  C_10 
REMARK    2  A    between atoms: C_10  and  C_11 
REMARK       I    between atoms: C_11  and  N_12 
REMARK    3  A    between atoms: C_13  and  C_15 
ROOT
HETATM    1  C           1     -21.824  -7.705  -4.588  0.00  0.00     0.038 C 
HETATM    2  C           1     -21.829  -6.368  -3.856  0.00  0.00     0.022 C 
HETATM    3  C           1     -21.267  -6.670  -2.477  0.00  0.00     0.127 C 
HETATM    4  O           1     -22.136  -9.918  -1.157  0.00  0.00    -0.271 OA
HETATM    5  C           1     -21.956  -8.724  -1.155  0.00  0.00     0.250 C 
HETATM    6  N           1     -21.534  -8.094  -2.294  0.00  0.00    -0.336 N 
HETATM    7  C           1     -21.252  -8.699  -3.593  0.00  0.00     0.188 C 
ENDROOT
BRANCH   5   8
HETATM    8  C           1     -22.197  -7.926   0.103  0.00  0.00     0.271 C 
HETATM    9  C           1     -21.290  -8.440   1.212  0.00  0.00     0.050 C 
BRANCH   8  10
HETATM   10  N           1     -23.631  -8.075   0.521  0.00  0.00    -0.067 N 
HETATM   11  H           1     -24.051  -8.899   0.037  0.00  0.00     0.275 HD
HETATM   12  H           1     -24.160  -7.211   0.263  0.00  0.00     0.275 HD
HETATM   13  H           1     -23.680  -8.216   1.555  0.00  0.00     0.275 HD
ENDBRANCH   8  10
ENDBRANCH   5   8
BRANCH   7  14
HETATM   14  C           1     -19.765  -8.868  -3.796  0.00  0.00     0.196 C 
HETATM   15  O           1     -19.247  -8.567  -4.893  0.00  0.00    -0.646 OA
HETATM   16  O           1     -19.054  -9.311  -2.869  0.00  0.00    -0.646 OA
ENDBRANCH   7  14
TORSDOF 3
ENDMDL
MODEL 8
REMARK VINA RESULT:      -4.6     11.072     13.156
REMARK  3 active torsions:
REMARK  status: ('A' for Active; 'I' for Inactive)
REMARK    1  A    between atoms: N_8  and  C_10 
REMARK    2  A    between atoms: C_10  and  C_11 
REMARK       I    between atoms: C_11  and  N_12 
REMARK    3  A    between atoms: C_13  and  C_15 
ROOT
HETATM    1  C           1     -20.349  -7.951  -2.634  0.00  0.00     0.038 C 
HETATM    2  C           1     -21.005  -9.064  -3.445  0.00  0.00     0.022 C 
HETATM    3  C           1     -22.057  -9.657  -2.523  0.00  0.00     0.127 C 
HETATM    4  O           1     -21.161  -9.705   0.976  0.00  0.00    -0.271 OA
HETATM    5  C           1     -21.599 -10.120  -0.069  0.00  0.00     0.250 C 
HETATM    6  N           1     -21.576  -9.326  -1.185  0.00  0.00    -0.336 N 
HETATM    7  C           1     -21.065  -7.963  -1.295  0.00  0.00     0.188 C 
ENDROOT
BRANCH   5   8
HETATM    8  C           1     -22.171 -11.514  -0.148  0.00  0.00     0.271 C 
HETATM    9  C           1     -23.680 -11.456   0.051  0.00  0.00     0.050 C 
BRANCH   8  10
HETATM   10  N           1     -21.558 -12.366   0.924  0.00  0.00    -0.067 N 
HETATM   11  H           1     -21.582 -11.852   1.833  0.00  0.00     0.275 HD
HETATM   12  H           1     -20.568 -12.585   0.672  0.00  0.00     0.275 HD
HETATM   13  H           1     -22.099 -13.256   1.013  0.00  0.00     0.275 HD
ENDBRANCH   8  10
ENDBRANCH   5   8
BRANCH   7  14
HETATM   14  C           1     -22.195  -6.962  -1.281  0.00  0.00     0.196 C 
HETATM   15  O           1     -22.249  -6.068  -2.153  0.00  0.00    -0.646 OA
HETATM   16  O           1     -23.076  -7.026  -0.396  0.00  0.00    -0.646 OA
ENDBRANCH   7  14
TORSDOF 3
ENDMDL
MODEL 9
REMARK VINA RESULT:      -4.6     11.413     13.200
REMARK  3 active torsions:
REMARK  status: ('A' for Active; 'I' for Inactive)
REMARK    1  A    between atoms: N_8  and  C_10 
REMARK    2  A    between atoms: C_10  and  C_11 
REMARK       I    between atoms: C_11  and  N_12 
REMARK    3  A    between atoms: C_13  and  C_15 
ROOT
HETATM    1  C           1     -23.785 -11.280  -0.260  0.00  0.00     0.038 C 
HETATM    2  C           1     -23.629 -11.269  -1.777  0.00  0.00     0.022 C 
HETATM    3  C           1     -22.458 -10.341  -2.047  0.00  0.00     0.127 C 
HETATM    4  O           1     -22.173  -7.547   0.223  0.00  0.00    -0.271 OA
HETATM    5  C           1     -22.174  -8.130  -0.834  0.00  0.00     0.250 C 
HETATM    6  N           1     -22.417  -9.477  -0.871  0.00  0.00    -0.336 N 
HETATM    7  C           1     -22.690 -10.363   0.256  0.00  0.00     0.188 C 
ENDROOT
BRANCH   5   8
HETATM    8  C           1     -21.910  -7.375  -2.113  0.00  0.00     0.271 C 
HETATM    9  C           1     -20.428  -7.454  -2.453  0.00  0.00     0.050 C 
BRANCH   8  10
HETATM   10  N           1     -22.307  -5.939  -1.937  0.00  0.00    -0.067 N 
HETATM   11  H           1     -22.214  -5.438  -2.848  0.00  0.00     0.275 HD
HETATM   12  H           1     -21.685  -5.491  -1.226  0.00  0.00     0.275 HD
HETATM   13  H           1     -23.299  -5.889  -1.611  0.00  0.00     0.275 HD
ENDBRANCH   8  10
ENDBRANCH   5   8
BRANCH   7  14
HETATM   14  C           1     -21.459 -11.154   0.630  0.00  0.00     0.196 C 
HETATM   15  O           1     -21.520 -12.399   0.719  0.00  0.00    -0.646 OA
HETATM   16  O           1     -20.380 -10.563   0.851  0.00  0.00    -0.646 OA
ENDBRANCH   7  14
TORSDOF 3
ENDMDL
