MODEL 1
REMARK VINA RESULT:      -7.2      0.000      0.000
REMARK  9 active torsions:
REMARK  status: ('A' for Active; 'I' for Inactive)
REMARK    1  A    between atoms: P_2  and  O_3 
REMARK    2  A    between atoms: P_2  and  O_7 
REMARK    3  A    between atoms: O_3  and  C_4 
REMARK    4  A    between atoms: C_6  and  C_10 
REMARK    5  A    between atoms: C_10  and  C_11 
REMARK    6  A    between atoms: C_11  and  C_13 
REMARK    7  A    between atoms: C_11  and  N_20 
REMARK    8  A    between atoms: N_15  and  C_26 
REMARK       I    between atoms: C_17  and  N_20 
REMARK    9  A    between atoms: C_17  and  C_26 
ROOT
HETATM    1  C           1     -21.950  -4.163  -7.149  0.00  0.00     0.074 C 
ENDROOT
BRANCH   1   2
HETATM    2  C           1     -22.412  -4.211  -8.572  0.00  0.00    -0.056 A 
HETATM    3  C           1     -23.768  -4.086  -8.869  0.00  0.00     0.010 A 
HETATM    4  C           1     -24.200  -4.129 -10.195  0.00  0.00     0.038 A 
HETATM    5  C           1     -23.273  -4.298 -11.224  0.00  0.00     0.081 A 
HETATM    6  C           1     -21.915  -4.421 -10.927  0.00  0.00     0.038 A 
HETATM    7  C           1     -21.485  -4.378  -9.601  0.00  0.00     0.010 A 
BRANCH   5   8
HETATM    8  O           1     -23.691  -4.340 -12.512  0.00  0.00    -0.247 OA
BRANCH   8   9
HETATM    9  P           1     -23.957  -2.938 -13.269  0.00  0.00     0.411 P 
HETATM   10  O           1     -25.370  -2.538 -13.087  0.00  0.00    -0.624 OA
HETATM   11  O           1     -23.672  -3.095 -14.713  0.00  0.00    -0.624 OA
BRANCH   9  12
HETATM   12  O           1     -22.993  -1.801 -12.649  0.00  0.00    -0.300 OA
HETATM   13  H           1     -23.547  -1.296 -12.077  0.00  0.00     0.223 HD
ENDBRANCH   9  12
ENDBRANCH   8   9
ENDBRANCH   5   8
ENDBRANCH   1   2
BRANCH   1  14
HETATM   14  C           1     -21.549  -5.561  -6.698  0.00  0.00     0.189 C 
BRANCH  14  15
HETATM   15  C           1     -20.055  -5.620  -6.503  0.00  0.00     0.197 C 
HETATM   16  O           1     -19.425  -6.654  -6.817  0.00  0.00    -0.646 OA
HETATM   17  O           1     -19.447  -4.637  -6.028  0.00  0.00    -0.646 OA
ENDBRANCH  14  15
BRANCH  14  18
HETATM   18  N           1     -22.211  -5.871  -5.445  0.00  0.00    -0.345 N 
HETATM   19  C           1     -21.629  -6.736  -4.557  0.00  0.00     0.243 C 
HETATM   20  O           1     -20.880  -6.316  -3.708  0.00  0.00    -0.272 OA
HETATM   21  H           1     -23.104  -5.448  -5.227  0.00  0.00     0.163 HD
BRANCH  19  22
HETATM   22  C           1     -21.923  -8.213  -4.641  0.00  0.00     0.332 C 
BRANCH  22  23
HETATM   23  N           1     -20.829  -8.897  -5.407  0.00  0.00    -0.071 N 
HETATM   24  H           1     -19.909  -8.695  -4.956  0.00  0.00     0.274 HD
HETATM   25  H           1     -20.998  -9.928  -5.409  0.00  0.00     0.274 HD
HETATM   26  H           1     -20.819  -8.544  -6.391  0.00  0.00     0.274 HD
ENDBRANCH  22  23
ENDBRANCH  19  22
ENDBRANCH  14  18
ENDBRANCH   1  14
TORSDOF 9
ENDMDL
MODEL 2
REMARK VINA RESULT:      -7.0      3.687      7.516
REMARK  9 active torsions:
REMARK  status: ('A' for Active; 'I' for Inactive)
REMARK    1  A    between atoms: P_2  and  O_3 
REMARK    2  A    between atoms: P_2  and  O_7 
REMARK    3  A    between atoms: O_3  and  C_4 
REMARK    4  A    between atoms: C_6  and  C_10 
REMARK    5  A    between atoms: C_10  and  C_11 
REMARK    6  A    between atoms: C_11  and  C_13 
REMARK    7  A    between atoms: C_11  and  N_20 
REMARK    8  A    between atoms: N_15  and  C_26 
REMARK       I    between atoms: C_17  and  N_20 
REMARK    9  A    between atoms: C_17  and  C_26 
ROOT
HETATM    1  C           1     -22.324  -3.573  -9.152  0.00  0.00     0.074 C 
ENDROOT
BRANCH   1   2
HETATM    2  C           1     -21.764  -4.413  -8.047  0.00  0.00    -0.056 A 
HETATM    3  C           1     -22.560  -4.746  -6.952  0.00  0.00     0.010 A 
HETATM    4  C           1     -22.038  -5.530  -5.922  0.00  0.00     0.038 A 
HETATM    5  C           1     -20.720  -5.981  -5.990  0.00  0.00     0.081 A 
HETATM    6  C           1     -19.924  -5.649  -7.086  0.00  0.00     0.038 A 
HETATM    7  C           1     -20.446  -4.865  -8.115  0.00  0.00     0.010 A 
BRANCH   5   8
HETATM    8  O           1     -20.213  -6.743  -4.990  0.00  0.00    -0.247 OA
BRANCH   8   9
HETATM    9  P           1     -20.185  -8.344  -5.197  0.00  0.00     0.411 P 
HETATM   10  O           1     -18.929  -8.733  -5.877  0.00  0.00    -0.624 OA
HETATM   11  O           1     -21.341  -8.755  -6.025  0.00  0.00    -0.624 OA
BRANCH   9  12
HETATM   12  O           1     -20.266  -9.074  -3.759  0.00  0.00    -0.300 OA
HETATM   13  H           1     -19.400  -9.416  -3.609  0.00  0.00     0.223 HD
ENDBRANCH   9  12
ENDBRANCH   8   9
ENDBRANCH   5   8
ENDBRANCH   1   2
BRANCH   1  14
HETATM   14  C           1     -23.429  -4.341  -9.865  0.00  0.00     0.189 C 
BRANCH  14  15
HETATM   15  C           1     -24.607  -3.428 -10.102  0.00  0.00     0.197 C 
HETATM   16  O           1     -25.051  -2.727  -9.167  0.00  0.00    -0.646 OA
HETATM   17  O           1     -25.138  -3.373 -11.232  0.00  0.00    -0.646 OA
ENDBRANCH  14  15
BRANCH  14  18
HETATM   18  N           1     -22.933  -4.828 -11.138  0.00  0.00    -0.345 N 
HETATM   19  C           1     -21.949  -4.142 -11.798  0.00  0.00     0.243 C 
HETATM   20  O           1     -20.788  -4.401 -11.590  0.00  0.00    -0.272 OA
HETATM   21  H           1     -23.314  -5.676 -11.538  0.00  0.00     0.163 HD
BRANCH  19  22
HETATM   22  C           1     -22.316  -3.061 -12.785  0.00  0.00     0.332 C 
BRANCH  22  23
HETATM   23  N           1     -23.407  -3.557 -13.687  0.00  0.00    -0.071 N 
HETATM   24  H           1     -24.040  -4.193 -13.151  0.00  0.00     0.274 HD
HETATM   25  H           1     -23.954  -2.745 -14.051  0.00  0.00     0.274 HD
HETATM   26  H           1     -22.986  -4.081 -14.488  0.00  0.00     0.274 HD
ENDBRANCH  22  23
ENDBRANCH  19  22
ENDBRANCH  14  18
ENDBRANCH   1  14
TORSDOF 9
ENDMDL
MODEL 3
REMARK VINA RESULT:      -7.0      2.008      2.910
REMARK  9 active torsions:
REMARK  status: ('A' for Active; 'I' for Inactive)
REMARK    1  A    between atoms: P_2  and  O_3 
REMARK    2  A    between atoms: P_2  and  O_7 
REMARK    3  A    between atoms: O_3  and  C_4 
REMARK    4  A    between atoms: C_6  and  C_10 
REMARK    5  A    between atoms: C_10  and  C_11 
REMARK    6  A    between atoms: C_11  and  C_13 
REMARK    7  A    between atoms: C_11  and  N_20 
REMARK    8  A    between atoms: N_15  and  C_26 
REMARK       I    between atoms: C_17  and  N_20 
REMARK    9  A    between atoms: C_17  and  C_26 
ROOT
HETATM    1  C           1     -20.127  -4.706  -5.754  0.00  0.00     0.074 C 
ENDROOT
BRANCH   1   2
HETATM    2  C           1     -20.660  -4.415  -7.122  0.00  0.00    -0.056 A 
HETATM    3  C           1     -19.844  -4.585  -8.239  0.00  0.00     0.010 A 
HETATM    4  C           1     -20.340  -4.314  -9.515  0.00  0.00     0.038 A 
HETATM    5  C           1     -21.655  -3.874  -9.671  0.00  0.00     0.081 A 
HETATM    6  C           1     -22.472  -3.705  -8.553  0.00  0.00     0.038 A 
HETATM    7  C           1     -21.974  -3.976  -7.279  0.00  0.00     0.010 A 
BRANCH   5   8
HETATM    8  O           1     -22.137  -3.611 -10.910  0.00  0.00    -0.247 OA
BRANCH   8   9
HETATM    9  P           1     -23.624  -4.130 -11.270  0.00  0.00     0.411 P 
HETATM   10  O           1     -24.616  -3.109 -10.865  0.00  0.00    -0.624 OA
HETATM   11  O           1     -23.894  -5.393 -10.546  0.00  0.00    -0.624 OA
BRANCH   9  12
HETATM   12  O           1     -23.734  -4.386 -12.861  0.00  0.00    -0.300 OA
HETATM   13  H           1     -24.592  -4.755 -12.990  0.00  0.00     0.223 HD
ENDBRANCH   9  12
ENDBRANCH   8   9
ENDBRANCH   5   8
ENDBRANCH   1   2
BRANCH   1  14
HETATM   14  C           1     -20.930  -5.837  -5.125  0.00  0.00     0.189 C 
BRANCH  14  15
HETATM   15  C           1     -20.681  -7.116  -5.884  0.00  0.00     0.197 C 
HETATM   16  O           1     -21.644  -7.772  -6.337  0.00  0.00    -0.646 OA
HETATM   17  O           1     -19.511  -7.521  -6.060  0.00  0.00    -0.646 OA
ENDBRANCH  14  15
BRANCH  14  18
HETATM   18  N           1     -20.522  -6.008  -3.744  0.00  0.00    -0.345 N 
HETATM   19  C           1     -21.246  -6.819  -2.911  0.00  0.00     0.243 C 
HETATM   20  O           1     -20.972  -7.992  -2.820  0.00  0.00    -0.272 OA
HETATM   21  H           1     -19.702  -5.529  -3.396  0.00  0.00     0.163 HD
BRANCH  19  22
HETATM   22  C           1     -22.387  -6.246  -2.106  0.00  0.00     0.332 C 
BRANCH  22  23
HETATM   23  N           1     -22.463  -6.943  -0.780  0.00  0.00    -0.071 N 
HETATM   24  H           1     -23.458  -7.181  -0.569  0.00  0.00     0.274 HD
HETATM   25  H           1     -21.894  -7.818  -0.814  0.00  0.00     0.274 HD
HETATM   26  H           1     -22.091  -6.313  -0.034  0.00  0.00     0.274 HD
ENDBRANCH  22  23
ENDBRANCH  19  22
ENDBRANCH  14  18
ENDBRANCH   1  14
TORSDOF 9
ENDMDL
MODEL 4
REMARK VINA RESULT:      -6.4      2.027      2.947
REMARK  9 active torsions:
REMARK  status: ('A' for Active; 'I' for Inactive)
REMARK    1  A    between atoms: P_2  and  O_3 
REMARK    2  A    between atoms: P_2  and  O_7 
REMARK    3  A    between atoms: O_3  and  C_4 
REMARK    4  A    between atoms: C_6  and  C_10 
REMARK    5  A    between atoms: C_10  and  C_11 
REMARK    6  A    between atoms: C_11  and  C_13 
REMARK    7  A    between atoms: C_11  and  N_20 
REMARK    8  A    between atoms: N_15  and  C_26 
REMARK       I    between atoms: C_17  and  N_20 
REMARK    9  A    between atoms: C_17  and  C_26 
ROOT
HETATM    1  C           1     -20.479  -6.402  -5.726  0.00  0.00     0.074 C 
ENDROOT
BRANCH   1   2
HETATM    2  C           1     -21.046  -5.561  -6.827  0.00  0.00    -0.056 A 
HETATM    3  C           1     -22.282  -4.936  -6.663  0.00  0.00     0.010 A 
HETATM    4  C           1     -22.810  -4.151  -7.689  0.00  0.00     0.038 A 
HETATM    5  C           1     -22.101  -3.992  -8.879  0.00  0.00     0.081 A 
HETATM    6  C           1     -20.864  -4.616  -9.044  0.00  0.00     0.038 A 
HETATM    7  C           1     -20.337  -5.400  -8.017  0.00  0.00     0.010 A 
BRANCH   5   8
HETATM    8  O           1     -22.613  -3.230  -9.876  0.00  0.00    -0.247 OA
BRANCH   8   9
HETATM    9  P           1     -23.662  -3.918 -10.893  0.00  0.00     0.411 P 
HETATM   10  O           1     -23.131  -3.849 -12.272  0.00  0.00    -0.624 OA
HETATM   11  O           1     -24.956  -3.203 -10.826  0.00  0.00    -0.624 OA
BRANCH   9  12
HETATM   12  O           1     -23.878  -5.464 -10.478  0.00  0.00    -0.300 OA
HETATM   13  H           1     -23.376  -5.578  -9.689  0.00  0.00     0.223 HD
ENDBRANCH   9  12
ENDBRANCH   8   9
ENDBRANCH   5   8
ENDBRANCH   1   2
BRANCH   1  14
HETATM   14  C           1     -21.278  -7.693  -5.611  0.00  0.00     0.189 C 
BRANCH  14  15
HETATM   15  C           1     -20.336  -8.871  -5.613  0.00  0.00     0.197 C 
HETATM   16  O           1     -20.790 -10.034  -5.671  0.00  0.00    -0.646 OA
HETATM   17  O           1     -19.101  -8.684  -5.556  0.00  0.00    -0.646 OA
ENDBRANCH  14  15
BRANCH  14  18
HETATM   18  N           1     -22.035  -7.683  -4.374  0.00  0.00    -0.345 N 
HETATM   19  C           1     -21.541  -7.034  -3.274  0.00  0.00     0.243 C 
HETATM   20  O           1     -21.804  -5.869  -3.091  0.00  0.00    -0.272 OA
HETATM   21  H           1     -22.928  -8.155  -4.324  0.00  0.00     0.163 HD
BRANCH  19  22
HETATM   22  C           1     -20.668  -7.774  -2.291  0.00  0.00     0.332 C 
BRANCH  22  23
HETATM   23  N           1     -21.208  -9.158  -2.086  0.00  0.00    -0.071 N 
HETATM   24  H           1     -22.083  -9.277  -2.645  0.00  0.00     0.274 HD
HETATM   25  H           1     -20.498  -9.859  -2.395  0.00  0.00     0.274 HD
HETATM   26  H           1     -21.422  -9.303  -1.072  0.00  0.00     0.274 HD
ENDBRANCH  22  23
ENDBRANCH  19  22
ENDBRANCH  14  18
ENDBRANCH   1  14
TORSDOF 9
ENDMDL
MODEL 5
REMARK VINA RESULT:      -6.0      6.159      8.452
REMARK  9 active torsions:
REMARK  status: ('A' for Active; 'I' for Inactive)
REMARK    1  A    between atoms: P_2  and  O_3 
REMARK    2  A    between atoms: P_2  and  O_7 
REMARK    3  A    between atoms: O_3  and  C_4 
REMARK    4  A    between atoms: C_6  and  C_10 
REMARK    5  A    between atoms: C_10  and  C_11 
REMARK    6  A    between atoms: C_11  and  C_13 
REMARK    7  A    between atoms: C_11  and  N_20 
REMARK    8  A    between atoms: N_15  and  C_26 
REMARK       I    between atoms: C_17  and  N_20 
REMARK    9  A    between atoms: C_17  and  C_26 
ROOT
HETATM    1  C           1     -22.326  -9.021   0.227  0.00  0.00     0.074 C 
ENDROOT
BRANCH   1   2
HETATM    2  C           1     -21.955  -8.162  -0.941  0.00  0.00    -0.056 A 
HETATM    3  C           1     -21.203  -8.694  -1.988  0.00  0.00     0.010 A 
HETATM    4  C           1     -20.858  -7.894  -3.077  0.00  0.00     0.038 A 
HETATM    5  C           1     -21.267  -6.561  -3.120  0.00  0.00     0.081 A 
HETATM    6  C           1     -22.021  -6.029  -2.074  0.00  0.00     0.038 A 
HETATM    7  C           1     -22.365  -6.830  -0.984  0.00  0.00     0.010 A 
BRANCH   5   8
HETATM    8  O           1     -20.932  -5.784  -4.178  0.00  0.00    -0.247 OA
BRANCH   8   9
HETATM    9  P           1     -21.741  -5.996  -5.560  0.00  0.00     0.411 P 
HETATM   10  O           1     -21.574  -4.801  -6.418  0.00  0.00    -0.624 OA
HETATM   11  O           1     -23.177  -6.195  -5.265  0.00  0.00    -0.624 OA
BRANCH   9  12
HETATM   12  O           1     -21.163  -7.294  -6.328  0.00  0.00    -0.300 OA
HETATM   13  H           1     -20.352  -7.495  -5.891  0.00  0.00     0.223 HD
ENDBRANCH   9  12
ENDBRANCH   8   9
ENDBRANCH   5   8
ENDBRANCH   1   2
BRANCH   1  14
HETATM   14  C           1     -21.732 -10.412   0.045  0.00  0.00     0.189 C 
BRANCH  14  15
HETATM   15  C           1     -20.500 -10.551   0.905  0.00  0.00     0.197 C 
HETATM   16  O           1     -19.601 -11.357   0.582  0.00  0.00    -0.646 OA
HETATM   17  O           1     -20.379  -9.861   1.940  0.00  0.00    -0.646 OA
ENDBRANCH  14  15
BRANCH  14  18
HETATM   18  N           1     -22.709 -11.408   0.437  0.00  0.00    -0.345 N 
HETATM   19  C           1     -22.753 -12.616  -0.206  0.00  0.00     0.243 C 
HETATM   20  O           1     -22.093 -13.542   0.201  0.00  0.00    -0.272 OA
HETATM   21  H           1     -23.360 -11.211   1.187  0.00  0.00     0.163 HD
BRANCH  19  22
HETATM   22  C           1     -23.624 -12.790  -1.426  0.00  0.00     0.332 C 
BRANCH  22  23
HETATM   23  N           1     -22.773 -13.184  -2.597  0.00  0.00    -0.071 N 
HETATM   24  H           1     -23.337 -13.768  -3.256  0.00  0.00     0.274 HD
HETATM   25  H           1     -22.439 -12.326  -3.088  0.00  0.00     0.274 HD
HETATM   26  H           1     -21.952 -13.737  -2.260  0.00  0.00     0.274 HD
ENDBRANCH  22  23
ENDBRANCH  19  22
ENDBRANCH  14  18
ENDBRANCH   1  14
TORSDOF 9
ENDMDL
MODEL 6
REMARK VINA RESULT:      -5.9      5.060      7.093
REMARK  9 active torsions:
REMARK  status: ('A' for Active; 'I' for Inactive)
REMARK    1  A    between atoms: P_2  and  O_3 
REMARK    2  A    between atoms: P_2  and  O_7 
REMARK    3  A    between atoms: O_3  and  C_4 
REMARK    4  A    between atoms: C_6  and  C_10 
REMARK    5  A    between atoms: C_10  and  C_11 
REMARK    6  A    between atoms: C_11  and  C_13 
REMARK    7  A    between atoms: C_11  and  N_20 
REMARK    8  A    between atoms: N_15  and  C_26 
REMARK       I    between atoms: C_17  and  N_20 
REMARK    9  A    between atoms: C_17  and  C_26 
ROOT
HETATM    1  C           1     -20.527  -9.566  -2.252  0.00  0.00     0.074 C 
ENDROOT
BRANCH   1   2
HETATM    2  C           1     -20.951  -8.463  -3.171  0.00  0.00    -0.056 A 
HETATM    3  C           1     -21.186  -7.185  -2.666  0.00  0.00     0.010 A 
HETATM    4  C           1     -21.581  -6.157  -3.523  0.00  0.00     0.038 A 
HETATM    5  C           1     -21.740  -6.409  -4.886  0.00  0.00     0.081 A 
HETATM    6  C           1     -21.504  -7.688  -5.392  0.00  0.00     0.038 A 
HETATM    7  C           1     -21.109  -8.715  -4.534  0.00  0.00     0.010 A 
BRANCH   5   8
HETATM    8  O           1     -22.124  -5.411  -5.718  0.00  0.00    -0.247 OA
BRANCH   8   9
HETATM    9  P           1     -21.007  -4.761  -6.687  0.00  0.00     0.411 P 
HETATM   10  O           1     -21.421  -3.393  -7.072  0.00  0.00    -0.624 OA
HETATM   11  O           1     -20.863  -5.593  -7.902  0.00  0.00    -0.624 OA
BRANCH   9  12
HETATM   12  O           1     -19.593  -4.694  -5.908  0.00  0.00    -0.300 OA
HETATM   13  H           1     -18.972  -5.091  -6.496  0.00  0.00     0.223 HD
ENDBRANCH   9  12
ENDBRANCH   8   9
ENDBRANCH   5   8
ENDBRANCH   1   2
BRANCH   1  14
HETATM   14  C           1     -21.715 -10.473  -1.964  0.00  0.00     0.189 C 
BRANCH  14  15
HETATM   15  C           1     -21.388 -11.883  -2.389  0.00  0.00     0.197 C 
HETATM   16  O           1     -21.498 -12.214  -3.590  0.00  0.00    -0.646 OA
HETATM   17  O           1     -21.008 -12.719  -1.542  0.00  0.00    -0.646 OA
ENDBRANCH  14  15
BRANCH  14  18
HETATM   18  N           1     -22.004 -10.453  -0.543  0.00  0.00    -0.345 N 
HETATM   19  C           1     -23.131  -9.827  -0.081  0.00  0.00     0.243 C 
HETATM   20  O           1     -24.164 -10.443   0.025  0.00  0.00    -0.272 OA
HETATM   21  H           1     -21.373 -10.902   0.108  0.00  0.00     0.163 HD
BRANCH  19  22
HETATM   22  C           1     -23.081  -8.365   0.293  0.00  0.00     0.332 C 
BRANCH  22  23
HETATM   23  N           1     -21.789  -8.073   0.996  0.00  0.00    -0.071 N 
HETATM   24  H           1     -20.989  -8.360   0.388  0.00  0.00     0.274 HD
HETATM   25  H           1     -21.726  -7.050   1.196  0.00  0.00     0.274 HD
HETATM   26  H           1     -21.752  -8.607   1.894  0.00  0.00     0.274 HD
ENDBRANCH  22  23
ENDBRANCH  19  22
ENDBRANCH  14  18
ENDBRANCH   1  14
TORSDOF 9
ENDMDL
MODEL 7
REMARK VINA RESULT:      -5.9      4.668      6.662
REMARK  9 active torsions:
REMARK  status: ('A' for Active; 'I' for Inactive)
REMARK    1  A    between atoms: P_2  and  O_3 
REMARK    2  A    between atoms: P_2  and  O_7 
REMARK    3  A    between atoms: O_3  and  C_4 
REMARK    4  A    between atoms: C_6  and  C_10 
REMARK    5  A    between atoms: C_10  and  C_11 
REMARK    6  A    between atoms: C_11  and  C_13 
REMARK    7  A    between atoms: C_11  and  N_20 
REMARK    8  A    between atoms: N_15  and  C_26 
REMARK       I    between atoms: C_17  and  N_20 
REMARK    9  A    between atoms: C_17  and  C_26 
ROOT
HETATM    1  C           1     -20.902  -8.347  -1.987  0.00  0.00     0.074 C 
ENDROOT
BRANCH   1   2
HETATM    2  C           1     -20.979  -7.782  -3.370  0.00  0.00    -0.056 A 
HETATM    3  C           1     -20.078  -8.203  -4.347  0.00  0.00     0.010 A 
HETATM    4  C           1     -20.150  -7.677  -5.638  0.00  0.00     0.038 A 
HETATM    5  C           1     -21.124  -6.729  -5.950  0.00  0.00     0.081 A 
HETATM    6  C           1     -22.027  -6.308  -4.973  0.00  0.00     0.038 A 
HETATM    7  C           1     -21.954  -6.835  -3.683  0.00  0.00     0.010 A 
BRANCH   5   8
HETATM    8  O           1     -21.195  -6.218  -7.203  0.00  0.00    -0.247 OA
BRANCH   8   9
HETATM    9  P           1     -20.648  -4.717  -7.441  0.00  0.00     0.411 P 
HETATM   10  O           1     -20.137  -4.590  -8.824  0.00  0.00    -0.624 OA
HETATM   11  O           1     -19.555  -4.433  -6.484  0.00  0.00    -0.624 OA
BRANCH   9  12
HETATM   12  O           1     -21.851  -3.663  -7.214  0.00  0.00    -0.300 OA
HETATM   13  H           1     -22.261  -3.931  -6.409  0.00  0.00     0.223 HD
ENDBRANCH   9  12
ENDBRANCH   8   9
ENDBRANCH   5   8
ENDBRANCH   1   2
BRANCH   1  14
HETATM   14  C           1     -21.843  -9.538  -1.871  0.00  0.00     0.189 C 
BRANCH  14  15
HETATM   15  C           1     -21.045 -10.818  -1.910  0.00  0.00     0.197 C 
HETATM   16  O           1     -20.155 -11.024  -1.057  0.00  0.00    -0.646 OA
HETATM   17  O           1     -21.275 -11.671  -2.794  0.00  0.00    -0.646 OA
ENDBRANCH  14  15
BRANCH  14  18
HETATM   18  N           1     -22.568  -9.459  -0.618  0.00  0.00    -0.345 N 
HETATM   19  C           1     -22.500  -8.323   0.144  0.00  0.00     0.243 C 
HETATM   20  O           1     -23.298  -7.433  -0.025  0.00  0.00    -0.272 OA
HETATM   21  H           1     -23.125 -10.244  -0.305  0.00  0.00     0.163 HD
BRANCH  19  22
HETATM   22  C           1     -21.424  -8.183   1.193  0.00  0.00     0.332 C 
BRANCH  22  23
HETATM   23  N           1     -20.825  -9.529   1.478  0.00  0.00    -0.071 N 
HETATM   24  H           1     -21.263  -9.930   2.337  0.00  0.00     0.274 HD
HETATM   25  H           1     -20.998 -10.165   0.667  0.00  0.00     0.274 HD
HETATM   26  H           1     -19.795  -9.427   1.627  0.00  0.00     0.274 HD
ENDBRANCH  22  23
ENDBRANCH  19  22
ENDBRANCH  14  18
ENDBRANCH   1  14
TORSDOF 9
ENDMDL
MODEL 8
REMARK VINA RESULT:      -5.8      7.485      9.336
REMARK  9 active torsions:
REMARK  status: ('A' for Active; 'I' for Inactive)
REMARK    1  A    between atoms: P_2  and  O_3 
REMARK    2  A    between atoms: P_2  and  O_7 
REMARK    3  A    between atoms: O_3  and  C_4 
REMARK    4  A    between atoms: C_6  and  C_10 
REMARK    5  A    between atoms: C_10  and  C_11 
REMARK    6  A    between atoms: C_11  and  C_13 
REMARK    7  A    between atoms: C_11  and  N_20 
REMARK    8  A    between atoms: N_15  and  C_26 
REMARK       I    between atoms: C_17  and  N_20 
REMARK    9  A    between atoms: C_17  and  C_26 
ROOT
HETATM    1  C           1     -20.914  -8.871  -2.820  0.00  0.00     0.074 C 
ENDROOT
BRANCH   1   2
HETATM    2  C           1     -19.621  -9.169  -3.512  0.00  0.00    -0.056 A 
HETATM    3  C           1     -18.478  -9.447  -2.764  0.00  0.00     0.010 A 
HETATM    4  C           1     -17.272  -9.726  -3.408  0.00  0.00     0.038 A 
HETATM    5  C           1     -17.210  -9.725  -4.801  0.00  0.00     0.081 A 
HETATM    6  C           1     -18.354  -9.448  -5.551  0.00  0.00     0.038 A 
HETATM    7  C           1     -19.559  -9.170  -4.905  0.00  0.00     0.010 A 
BRANCH   5   8
HETATM    8  O           1     -16.039  -9.996  -5.427  0.00  0.00    -0.247 OA
BRANCH   8   9
HETATM    9  P           1     -15.578 -11.540  -5.538  0.00  0.00     0.411 P 
HETATM   10  O           1     -14.611 -11.845  -4.461  0.00  0.00    -0.624 OA
HETATM   11  O           1     -14.940 -11.771  -6.854  0.00  0.00    -0.624 OA
BRANCH   9  12
HETATM   12  O           1     -16.869 -12.499  -5.389  0.00  0.00    -0.300 OA
HETATM   13  H           1     -16.876 -13.023  -6.172  0.00  0.00     0.223 HD
ENDBRANCH   9  12
ENDBRANCH   8   9
ENDBRANCH   5   8
ENDBRANCH   1   2
BRANCH   1  14
HETATM   14  C           1     -20.748  -7.641  -1.938  0.00  0.00     0.189 C 
BRANCH  14  15
HETATM   15  C           1     -21.764  -6.598  -2.329  0.00  0.00     0.197 C 
HETATM   16  O           1     -21.784  -6.152  -3.497  0.00  0.00    -0.646 OA
HETATM   17  O           1     -22.586  -6.179  -1.486  0.00  0.00    -0.646 OA
ENDBRANCH  14  15
BRANCH  14  18
HETATM   18  N           1     -20.948  -8.013  -0.551  0.00  0.00    -0.345 N 
HETATM   19  C           1     -21.486  -9.234  -0.239  0.00  0.00     0.243 C 
HETATM   20  O           1     -20.764 -10.189  -0.076  0.00  0.00    -0.272 OA
HETATM   21  H           1     -20.689  -7.371   0.188  0.00  0.00     0.163 HD
BRANCH  19  22
HETATM   22  C           1     -22.981  -9.385  -0.100  0.00  0.00     0.332 C 
BRANCH  22  23
HETATM   23  N           1     -23.545  -8.172   0.579  0.00  0.00    -0.071 N 
HETATM   24  H           1     -23.077  -7.315   0.206  0.00  0.00     0.274 HD
HETATM   25  H           1     -24.572  -8.117   0.395  0.00  0.00     0.274 HD
HETATM   26  H           1     -23.378  -8.239   1.608  0.00  0.00     0.274 HD
ENDBRANCH  22  23
ENDBRANCH  19  22
ENDBRANCH  14  18
ENDBRANCH   1  14
TORSDOF 9
ENDMDL
MODEL 9
REMARK VINA RESULT:      -5.8      5.165      7.336
REMARK  9 active torsions:
REMARK  status: ('A' for Active; 'I' for Inactive)
REMARK    1  A    between atoms: P_2  and  O_3 
REMARK    2  A    between atoms: P_2  and  O_7 
REMARK    3  A    between atoms: O_3  and  C_4 
REMARK    4  A    between atoms: C_6  and  C_10 
REMARK    5  A    between atoms: C_10  and  C_11 
REMARK    6  A    between atoms: C_11  and  C_13 
REMARK    7  A    between atoms: C_11  and  N_20 
REMARK    8  A    between atoms: N_15  and  C_26 
REMARK       I    between atoms: C_17  and  N_20 
REMARK    9  A    between atoms: C_17  and  C_26 
ROOT
HETATM    1  C           1     -20.554  -9.147  -1.247  0.00  0.00     0.074 C 
ENDROOT
BRANCH   1   2
HETATM    2  C           1     -21.044  -8.274  -2.361  0.00  0.00    -0.056 A 
HETATM    3  C           1     -21.445  -6.966  -2.097  0.00  0.00     0.010 A 
HETATM    4  C           1     -21.901  -6.152  -3.134  0.00  0.00     0.038 A 
HETATM    5  C           1     -21.954  -6.649  -4.437  0.00  0.00     0.081 A 
HETATM    6  C           1     -21.551  -7.958  -4.702  0.00  0.00     0.038 A 
HETATM    7  C           1     -21.096  -8.771  -3.663  0.00  0.00     0.010 A 
BRANCH   5   8
HETATM    8  O           1     -22.396  -5.859  -5.445  0.00  0.00    -0.247 OA
BRANCH   8   9
HETATM    9  P           1     -21.301  -5.234  -6.454  0.00  0.00     0.411 P 
HETATM   10  O           1     -21.888  -4.076  -7.165  0.00  0.00    -0.624 OA
HETATM   11  O           1     -20.894  -6.262  -7.438  0.00  0.00    -0.624 OA
BRANCH   9  12
HETATM   12  O           1     -20.009  -4.750  -5.614  0.00  0.00    -0.300 OA
HETATM   13  H           1     -19.406  -5.473  -5.655  0.00  0.00     0.223 HD
ENDBRANCH   9  12
ENDBRANCH   8   9
ENDBRANCH   5   8
ENDBRANCH   1   2
BRANCH   1  14
HETATM   14  C           1     -21.744  -9.706  -0.479  0.00  0.00     0.189 C 
BRANCH  14  15
HETATM   15  C           1     -22.183  -8.711   0.566  0.00  0.00     0.197 C 
HETATM   16  O           1     -23.359  -8.286   0.570  0.00  0.00    -0.646 OA
HETATM   17  O           1     -21.371  -8.312   1.429  0.00  0.00    -0.646 OA
ENDBRANCH  14  15
BRANCH  14  18
HETATM   18  N           1     -22.837  -9.954  -1.398  0.00  0.00    -0.345 N 
HETATM   19  C           1     -23.301 -11.229  -1.585  0.00  0.00     0.243 C 
HETATM   20  O           1     -24.190 -11.657  -0.888  0.00  0.00    -0.272 OA
HETATM   21  H           1     -23.259  -9.184  -1.902  0.00  0.00     0.163 HD
BRANCH  19  22
HETATM   22  C           1     -22.699 -12.100  -2.661  0.00  0.00     0.332 C 
BRANCH  22  23
HETATM   23  N           1     -22.973 -13.541  -2.348  0.00  0.00    -0.071 N 
HETATM   24  H           1     -23.229 -14.046  -3.227  0.00  0.00     0.274 HD
HETATM   25  H           1     -22.119 -13.975  -1.932  0.00  0.00     0.274 HD
HETATM   26  H           1     -23.765 -13.606  -1.668  0.00  0.00     0.274 HD
ENDBRANCH  22  23
ENDBRANCH  19  22
ENDBRANCH  14  18
ENDBRANCH   1  14
TORSDOF 9
ENDMDL
