MODEL 1
REMARK VINA RESULT:      -5.7      0.000      0.000
REMARK  8 active torsions:
REMARK  status: ('A' for Active; 'I' for Inactive)
REMARK    1  A    between atoms: Se_1  and  C_20 
REMARK    2  A    between atoms: N_2  and  C_19 
REMARK    3  A    between atoms: C_5  and  O_6 
REMARK    4  A    between atoms: C_5  and  C_7 
REMARK    5  A    between atoms: C_7  and  C_8 
REMARK    6  A    between atoms: C_7  and  N_11 
REMARK       I    between atoms: N_11  and  C_18 
REMARK    7  A    between atoms: C_18  and  C_19 
REMARK    8  A    between atoms: C_19  and  C_20 
ROOT
HETATM    1  O           1     -36.475  -1.574 -12.297  0.00  0.00    -0.271 OA
HETATM    2  N           1     -35.052  -1.245 -13.987  0.00  0.00    -0.343 N 
HETATM    3  H           1     -34.120  -1.375 -14.362  0.00  0.00     0.163 HD
HETATM    4  C           1     -35.364  -1.729 -12.744  0.00  0.00     0.249 C 
ENDROOT
BRANCH   2   5
HETATM    5  C           1     -36.057  -0.549 -14.768  0.00  0.00     0.214 C 
BRANCH   5   6
HETATM    6  C           1     -35.875   0.953 -14.605  0.00  0.00     0.147 C 
HETATM    7  C           1     -34.506   1.234 -14.000  0.00  0.00     0.042 C 
BRANCH   6   8
HETATM    8  O           1     -35.969   1.574 -15.859  0.00  0.00    -0.393 OA
HETATM    9  H           1     -35.635   0.961 -16.492  0.00  0.00     0.210 HD
ENDBRANCH   6   8
ENDBRANCH   5   6
BRANCH   5  10
HETATM   10  C           1     -35.907  -0.921 -16.222  0.00  0.00     0.199 C 
HETATM   11  O           1     -34.825  -1.384 -16.642  0.00  0.00    -0.646 OA
HETATM   12  O           1     -36.867  -0.765 -17.009  0.00  0.00    -0.646 OA
ENDBRANCH   5  10
ENDBRANCH   2   5
BRANCH   4  13
HETATM   13  C           1     -34.318  -2.453 -11.933  0.00  0.00     0.274 C 
BRANCH  13  14
HETATM   14  N           1     -33.824  -1.554 -10.838  0.00  0.00    -0.067 N 
HETATM   15  H           1     -33.007  -1.999 -10.362  0.00  0.00     0.275 HD
HETATM   16  H           1     -33.530  -0.637 -11.247  0.00  0.00     0.275 HD
HETATM   17  H           1     -34.588  -1.397 -10.144  0.00  0.00     0.275 HD
ENDBRANCH  13  14
BRANCH  13  18
HETATM   18  C           1     -34.929  -3.707 -11.320  0.00  0.00     0.045 C 
BRANCH  18  19
HETATM   19 Se           1     -33.584  -5.114 -11.239  0.00  0.00     0.000 Se
HETATM   20  H           1     -34.534  -6.200 -11.535  0.00  0.00     0.000 HD
ENDBRANCH  18  19
ENDBRANCH  13  18
ENDBRANCH   4  13
TORSDOF 8
ENDMDL
MODEL 2
REMARK VINA RESULT:      -5.5     13.460     14.642
REMARK  8 active torsions:
REMARK  status: ('A' for Active; 'I' for Inactive)
REMARK    1  A    between atoms: Se_1  and  C_20 
REMARK    2  A    between atoms: N_2  and  C_19 
REMARK    3  A    between atoms: C_5  and  O_6 
REMARK    4  A    between atoms: C_5  and  C_7 
REMARK    5  A    between atoms: C_7  and  C_8 
REMARK    6  A    between atoms: C_7  and  N_11 
REMARK       I    between atoms: N_11  and  C_18 
REMARK    7  A    between atoms: C_18  and  C_19 
REMARK    8  A    between atoms: C_19  and  C_20 
ROOT
HETATM    1  O           1     -21.660  -3.401  -7.318  0.00  0.00    -0.271 OA
HETATM    2  N           1     -22.112  -4.784  -9.012  0.00  0.00    -0.343 N 
HETATM    3  H           1     -22.109  -5.731  -9.371  0.00  0.00     0.163 HD
HETATM    4  C           1     -21.658  -4.530  -7.746  0.00  0.00     0.249 C 
ENDROOT
BRANCH   2   5
HETATM    5  C           1     -22.598  -3.697  -9.840  0.00  0.00     0.214 C 
BRANCH   5   6
HETATM    6  C           1     -21.861  -3.705 -11.172  0.00  0.00     0.147 C 
HETATM    7  C           1     -20.436  -4.197 -10.959  0.00  0.00     0.042 C 
BRANCH   6   8
HETATM    8  O           1     -22.522  -4.560 -12.066  0.00  0.00    -0.393 OA
HETATM    9  H           1     -21.943  -4.691 -12.798  0.00  0.00     0.210 HD
ENDBRANCH   6   8
ENDBRANCH   5   6
BRANCH   5  10
HETATM   10  C           1     -24.077  -3.875 -10.081  0.00  0.00     0.199 C 
HETATM   11  O           1     -24.618  -4.980  -9.867  0.00  0.00    -0.646 OA
HETATM   12  O           1     -24.762  -2.914 -10.495  0.00  0.00    -0.646 OA
ENDBRANCH   5  10
ENDBRANCH   2   5
BRANCH   4  13
HETATM   13  C           1     -21.152  -5.661  -6.884  0.00  0.00     0.274 C 
BRANCH  13  14
HETATM   14  N           1     -19.936  -6.268  -7.521  0.00  0.00    -0.067 N 
HETATM   15  H           1     -19.951  -7.304  -7.384  0.00  0.00     0.275 HD
HETATM   16  H           1     -19.934  -6.053  -8.544  0.00  0.00     0.275 HD
HETATM   17  H           1     -19.077  -5.871  -7.079  0.00  0.00     0.275 HD
ENDBRANCH  13  14
BRANCH  13  18
HETATM   18  C           1     -20.787  -5.126  -5.506  0.00  0.00     0.045 C 
BRANCH  18  19
HETATM   19 Se           1     -21.431  -6.357  -4.139  0.00  0.00     0.000 Se
HETATM   20  H           1     -22.852  -6.035  -4.352  0.00  0.00     0.000 HD
ENDBRANCH  18  19
ENDBRANCH  13  18
ENDBRANCH   4  13
TORSDOF 8
ENDMDL
MODEL 3
REMARK VINA RESULT:      -5.4      2.001      3.378
REMARK  8 active torsions:
REMARK  status: ('A' for Active; 'I' for Inactive)
REMARK    1  A    between atoms: Se_1  and  C_20 
REMARK    2  A    between atoms: N_2  and  C_19 
REMARK    3  A    between atoms: C_5  and  O_6 
REMARK    4  A    between atoms: C_5  and  C_7 
REMARK    5  A    between atoms: C_7  and  C_8 
REMARK    6  A    between atoms: C_7  and  N_11 
REMARK       I    between atoms: N_11  and  C_18 
REMARK    7  A    between atoms: C_18  and  C_19 
REMARK    8  A    between atoms: C_19  and  C_20 
ROOT
HETATM    1  O           1     -33.697  -2.043 -11.220  0.00  0.00    -0.271 OA
HETATM    2  N           1     -35.437  -1.859 -12.608  0.00  0.00    -0.343 N 
HETATM    3  H           1     -36.051  -2.305 -13.279  0.00  0.00     0.163 HD
HETATM    4  C           1     -34.429  -2.574 -12.020  0.00  0.00     0.249 C 
ENDROOT
BRANCH   2   5
HETATM    5  C           1     -35.628  -0.462 -12.269  0.00  0.00     0.214 C 
BRANCH   5   6
HETATM    6  C           1     -36.080   0.303 -13.506  0.00  0.00     0.147 C 
HETATM    7  C           1     -34.858   0.789 -14.275  0.00  0.00     0.042 C 
BRANCH   6   8
HETATM    8  O           1     -36.843  -0.542 -14.324  0.00  0.00    -0.393 OA
HETATM    9  H           1     -37.696  -0.608 -13.930  0.00  0.00     0.210 HD
ENDBRANCH   6   8
ENDBRANCH   5   6
BRANCH   5  10
HETATM   10  C           1     -36.680  -0.346 -11.193  0.00  0.00     0.199 C 
HETATM   11  O           1     -36.435   0.288 -10.144  0.00  0.00    -0.646 OA
HETATM   12  O           1     -37.798  -0.884 -11.352  0.00  0.00    -0.646 OA
ENDBRANCH   5  10
ENDBRANCH   2   5
BRANCH   4  13
HETATM   13  C           1     -34.231  -4.028 -12.373  0.00  0.00     0.274 C 
BRANCH  13  14
HETATM   14  N           1     -33.560  -4.131 -13.711  0.00  0.00    -0.067 N 
HETATM   15  H           1     -33.776  -3.279 -14.277  0.00  0.00     0.275 HD
HETATM   16  H           1     -32.526  -4.205 -13.577  0.00  0.00     0.275 HD
HETATM   17  H           1     -33.908  -4.978 -14.212  0.00  0.00     0.275 HD
ENDBRANCH  13  14
BRANCH  13  18
HETATM   18  C           1     -33.358  -4.693 -11.317  0.00  0.00     0.045 C 
BRANCH  18  19
HETATM   19 Se           1     -34.250  -6.290 -10.645  0.00  0.00     0.000 Se
HETATM   20  H           1     -35.086  -5.557  -9.678  0.00  0.00     0.000 HD
ENDBRANCH  18  19
ENDBRANCH  13  18
ENDBRANCH   4  13
TORSDOF 8
ENDMDL
MODEL 4
REMARK VINA RESULT:      -5.2      2.953      5.114
REMARK  8 active torsions:
REMARK  status: ('A' for Active; 'I' for Inactive)
REMARK    1  A    between atoms: Se_1  and  C_20 
REMARK    2  A    between atoms: N_2  and  C_19 
REMARK    3  A    between atoms: C_5  and  O_6 
REMARK    4  A    between atoms: C_5  and  C_7 
REMARK    5  A    between atoms: C_7  and  C_8 
REMARK    6  A    between atoms: C_7  and  N_11 
REMARK       I    between atoms: N_11  and  C_18 
REMARK    7  A    between atoms: C_18  and  C_19 
REMARK    8  A    between atoms: C_19  and  C_20 
ROOT
HETATM    1  O           1     -35.103  -1.630 -14.533  0.00  0.00    -0.271 OA
HETATM    2  N           1     -34.989  -1.965 -12.328  0.00  0.00    -0.343 N 
HETATM    3  H           1     -35.213  -1.635 -11.397  0.00  0.00     0.163 HD
HETATM    4  C           1     -35.371  -1.237 -13.423  0.00  0.00     0.249 C 
ENDROOT
BRANCH   2   5
HETATM    5  C           1     -34.266  -3.210 -12.500  0.00  0.00     0.214 C 
BRANCH   5   6
HETATM    6  C           1     -33.036  -3.211 -11.603  0.00  0.00     0.147 C 
HETATM    7  C           1     -33.197  -2.148 -10.524  0.00  0.00     0.042 C 
BRANCH   6   8
HETATM    8  O           1     -32.897  -4.470 -11.002  0.00  0.00    -0.393 OA
HETATM    9  H           1     -32.974  -5.111 -11.688  0.00  0.00     0.210 HD
ENDBRANCH   6   8
ENDBRANCH   5   6
BRANCH   5  10
HETATM   10  C           1     -35.162  -4.366 -12.129  0.00  0.00     0.199 C 
HETATM   11  O           1     -35.862  -4.308 -11.096  0.00  0.00    -0.646 OA
HETATM   12  O           1     -35.203  -5.383 -12.856  0.00  0.00    -0.646 OA
ENDBRANCH   5  10
ENDBRANCH   2   5
BRANCH   4  13
HETATM   13  C           1     -36.124   0.058 -13.243  0.00  0.00     0.274 C 
BRANCH  13  14
HETATM   14  N           1     -36.132   0.815 -14.538  0.00  0.00    -0.067 N 
HETATM   15  H           1     -35.917   1.822 -14.356  0.00  0.00     0.275 HD
HETATM   16  H           1     -35.409   0.416 -15.179  0.00  0.00     0.275 HD
HETATM   17  H           1     -37.074   0.736 -14.982  0.00  0.00     0.275 HD
ENDBRANCH  13  14
BRANCH  13  18
HETATM   18  C           1     -37.557  -0.242 -12.823  0.00  0.00     0.045 C 
BRANCH  18  19
HETATM   19 Se           1     -37.720  -0.066 -10.889  0.00  0.00     0.000 Se
HETATM   20  H           1     -38.664   1.062 -10.955  0.00  0.00     0.000 HD
ENDBRANCH  18  19
ENDBRANCH  13  18
ENDBRANCH   4  13
TORSDOF 8
ENDMDL
MODEL 5
REMARK VINA RESULT:      -5.0      3.775      5.004
REMARK  8 active torsions:
REMARK  status: ('A' for Active; 'I' for Inactive)
REMARK    1  A    between atoms: Se_1  and  C_20 
REMARK    2  A    between atoms: N_2  and  C_19 
REMARK    3  A    between atoms: C_5  and  O_6 
REMARK    4  A    between atoms: C_5  and  C_7 
REMARK    5  A    between atoms: C_7  and  C_8 
REMARK    6  A    between atoms: C_7  and  N_11 
REMARK       I    between atoms: N_11  and  C_18 
REMARK    7  A    between atoms: C_18  and  C_19 
REMARK    8  A    between atoms: C_19  and  C_20 
ROOT
HETATM    1  O           1     -34.727  -0.584 -11.776  0.00  0.00    -0.271 OA
HETATM    2  N           1     -35.088  -2.770 -11.503  0.00  0.00    -0.343 N 
HETATM    3  H           1     -35.645  -3.502 -11.079  0.00  0.00     0.163 HD
HETATM    4  C           1     -35.391  -1.456 -11.270  0.00  0.00     0.249 C 
ENDROOT
BRANCH   2   5
HETATM    5  C           1     -33.970  -3.116 -12.361  0.00  0.00     0.214 C 
BRANCH   5   6
HETATM    6  C           1     -32.950  -3.919 -11.565  0.00  0.00     0.147 C 
HETATM    7  C           1     -33.670  -4.742 -10.505  0.00  0.00     0.042 C 
BRANCH   6   8
HETATM    8  O           1     -32.253  -4.775 -12.429  0.00  0.00    -0.393 OA
HETATM    9  H           1     -31.844  -4.232 -13.081  0.00  0.00     0.210 HD
ENDBRANCH   6   8
ENDBRANCH   5   6
BRANCH   5  10
HETATM   10  C           1     -34.466  -3.942 -13.522  0.00  0.00     0.199 C 
HETATM   11  O           1     -34.238  -3.574 -14.694  0.00  0.00    -0.646 OA
HETATM   12  O           1     -35.105  -4.996 -13.311  0.00  0.00    -0.646 OA
ENDBRANCH   5  10
ENDBRANCH   2   5
BRANCH   4  13
HETATM   13  C           1     -36.554  -1.097 -10.378  0.00  0.00     0.274 C 
BRANCH  13  14
HETATM   14  N           1     -36.041  -0.674  -9.033  0.00  0.00    -0.067 N 
HETATM   15  H           1     -35.409  -1.414  -8.652  0.00  0.00     0.275 HD
HETATM   16  H           1     -35.510   0.221  -9.130  0.00  0.00     0.275 HD
HETATM   17  H           1     -36.845  -0.534  -8.382  0.00  0.00     0.275 HD
ENDBRANCH  13  14
BRANCH  13  18
HETATM   18  C           1     -37.339   0.049 -11.004  0.00  0.00     0.045 C 
BRANCH  18  19
HETATM   19 Se           1     -38.075   1.179  -9.597  0.00  0.00     0.000 Se
HETATM   20  H           1     -39.033   0.165  -9.124  0.00  0.00     0.000 HD
ENDBRANCH  18  19
ENDBRANCH  13  18
ENDBRANCH   4  13
TORSDOF 8
ENDMDL
MODEL 6
REMARK VINA RESULT:      -4.9     14.045     15.657
REMARK  8 active torsions:
REMARK  status: ('A' for Active; 'I' for Inactive)
REMARK    1  A    between atoms: Se_1  and  C_20 
REMARK    2  A    between atoms: N_2  and  C_19 
REMARK    3  A    between atoms: C_5  and  O_6 
REMARK    4  A    between atoms: C_5  and  C_7 
REMARK    5  A    between atoms: C_7  and  C_8 
REMARK    6  A    between atoms: C_7  and  N_11 
REMARK       I    between atoms: N_11  and  C_18 
REMARK    7  A    between atoms: C_18  and  C_19 
REMARK    8  A    between atoms: C_19  and  C_20 
ROOT
HETATM    1  O           1     -23.124  -4.951 -10.149  0.00  0.00    -0.271 OA
HETATM    2  N           1     -21.184  -4.241  -9.301  0.00  0.00    -0.343 N 
HETATM    3  H           1     -20.392  -3.614  -9.376  0.00  0.00     0.163 HD
HETATM    4  C           1     -22.180  -4.203 -10.239  0.00  0.00     0.249 C 
ENDROOT
BRANCH   2   5
HETATM    5  C           1     -21.263  -5.178  -8.197  0.00  0.00     0.214 C 
BRANCH   5   6
HETATM    6  C           1     -19.870  -5.703  -7.877  0.00  0.00     0.147 C 
HETATM    7  C           1     -18.963  -4.537  -7.506  0.00  0.00     0.042 C 
BRANCH   6   8
HETATM    8  O           1     -19.944  -6.598  -6.800  0.00  0.00    -0.393 OA
HETATM    9  H           1     -19.121  -7.055  -6.767  0.00  0.00     0.210 HD
ENDBRANCH   6   8
ENDBRANCH   5   6
BRANCH   5  10
HETATM   10  C           1     -21.829  -4.480  -6.985  0.00  0.00     0.199 C 
HETATM   11  O           1     -21.733  -3.239  -6.877  0.00  0.00    -0.646 OA
HETATM   12  O           1     -22.397  -5.143  -6.090  0.00  0.00    -0.646 OA
ENDBRANCH   5  10
ENDBRANCH   2   5
BRANCH   4  13
HETATM   13  C           1     -22.098  -3.227 -11.387  0.00  0.00     0.274 C 
BRANCH  13  14
HETATM   14  N           1     -21.301  -3.835 -12.504  0.00  0.00    -0.067 N 
HETATM   15  H           1     -20.303  -3.533 -12.425  0.00  0.00     0.275 HD
HETATM   16  H           1     -21.355  -4.877 -12.442  0.00  0.00     0.275 HD
HETATM   17  H           1     -21.688  -3.519 -13.421  0.00  0.00     0.275 HD
ENDBRANCH  13  14
BRANCH  13  18
HETATM   18  C           1     -23.502  -2.907 -11.884  0.00  0.00     0.045 C 
BRANCH  18  19
HETATM   19 Se           1     -23.456  -2.590 -13.806  0.00  0.00     0.000 Se
HETATM   20  H           1     -23.706  -3.997 -14.162  0.00  0.00     0.000 HD
ENDBRANCH  18  19
ENDBRANCH  13  18
ENDBRANCH   4  13
TORSDOF 8
ENDMDL
MODEL 7
REMARK VINA RESULT:      -4.7     13.946     15.538
REMARK  8 active torsions:
REMARK  status: ('A' for Active; 'I' for Inactive)
REMARK    1  A    between atoms: Se_1  and  C_20 
REMARK    2  A    between atoms: N_2  and  C_19 
REMARK    3  A    between atoms: C_5  and  O_6 
REMARK    4  A    between atoms: C_5  and  C_7 
REMARK    5  A    between atoms: C_7  and  C_8 
REMARK    6  A    between atoms: C_7  and  N_11 
REMARK       I    between atoms: N_11  and  C_18 
REMARK    7  A    between atoms: C_18  and  C_19 
REMARK    8  A    between atoms: C_19  and  C_20 
ROOT
HETATM    1  O           1     -22.857  -3.117  -8.717  0.00  0.00    -0.271 OA
HETATM    2  N           1     -22.070  -5.172  -8.341  0.00  0.00    -0.343 N 
HETATM    3  H           1     -22.143  -6.166  -8.523  0.00  0.00     0.163 HD
HETATM    4  C           1     -22.944  -4.302  -8.934  0.00  0.00     0.249 C 
ENDROOT
BRANCH   2   5
HETATM    5  C           1     -21.039  -4.672  -7.452  0.00  0.00     0.214 C 
BRANCH   5   6
HETATM    6  C           1     -20.839  -5.652  -6.304  0.00  0.00     0.147 C 
HETATM    7  C           1     -22.188  -5.976  -5.675  0.00  0.00     0.042 C 
BRANCH   6   8
HETATM    8  O           1     -20.255  -6.830  -6.792  0.00  0.00    -0.393 OA
HETATM    9  H           1     -20.373  -6.827  -7.727  0.00  0.00     0.210 HD
ENDBRANCH   6   8
ENDBRANCH   5   6
BRANCH   5  10
HETATM   10  C           1     -19.747  -4.523  -8.218  0.00  0.00     0.199 C 
HETATM   11  O           1     -19.748  -4.585  -9.466  0.00  0.00    -0.646 OA
HETATM   12  O           1     -18.674  -4.336  -7.603  0.00  0.00    -0.646 OA
ENDBRANCH   5  10
ENDBRANCH   2   5
BRANCH   4  13
HETATM   13  C           1     -24.016  -4.822  -9.859  0.00  0.00     0.274 C 
BRANCH  13  14
HETATM   14  N           1     -25.245  -3.970  -9.729  0.00  0.00    -0.067 N 
HETATM   15  H           1     -25.992  -4.508  -9.234  0.00  0.00     0.275 HD
HETATM   16  H           1     -25.015  -3.110  -9.182  0.00  0.00     0.275 HD
HETATM   17  H           1     -25.583  -3.700 -10.679  0.00  0.00     0.275 HD
ENDBRANCH  13  14
BRANCH  13  18
HETATM   18  C           1     -23.516  -4.772 -11.297  0.00  0.00     0.045 C 
BRANCH  18  19
HETATM   19 Se           1     -24.174  -3.154 -12.160  0.00  0.00     0.000 Se
HETATM   20  H           1     -24.672  -2.552 -10.912  0.00  0.00     0.000 HD
ENDBRANCH  18  19
ENDBRANCH  13  18
ENDBRANCH   4  13
TORSDOF 8
ENDMDL
MODEL 8
REMARK VINA RESULT:      -4.7      3.147      5.437
REMARK  8 active torsions:
REMARK  status: ('A' for Active; 'I' for Inactive)
REMARK    1  A    between atoms: Se_1  and  C_20 
REMARK    2  A    between atoms: N_2  and  C_19 
REMARK    3  A    between atoms: C_5  and  O_6 
REMARK    4  A    between atoms: C_5  and  C_7 
REMARK    5  A    between atoms: C_7  and  C_8 
REMARK    6  A    between atoms: C_7  and  N_11 
REMARK       I    between atoms: N_11  and  C_18 
REMARK    7  A    between atoms: C_18  and  C_19 
REMARK    8  A    between atoms: C_19  and  C_20 
ROOT
HETATM    1  O           1     -34.931  -2.085 -13.945  0.00  0.00    -0.271 OA
HETATM    2  N           1     -35.119  -2.223 -11.725  0.00  0.00    -0.343 N 
HETATM    3  H           1     -35.372  -1.770 -10.855  0.00  0.00     0.163 HD
HETATM    4  C           1     -35.232  -1.545 -12.908  0.00  0.00     0.249 C 
ENDROOT
BRANCH   2   5
HETATM    5  C           1     -34.641  -3.592 -11.716  0.00  0.00     0.214 C 
BRANCH   5   6
HETATM    6  C           1     -33.226  -3.631 -11.154  0.00  0.00     0.147 C 
HETATM    7  C           1     -32.303  -4.315 -12.154  0.00  0.00     0.042 C 
BRANCH   6   8
HETATM    8  O           1     -32.779  -2.322 -10.925  0.00  0.00    -0.393 OA
HETATM    9  H           1     -33.371  -1.747 -11.379  0.00  0.00     0.210 HD
ENDBRANCH   6   8
ENDBRANCH   5   6
BRANCH   5  10
HETATM   10  C           1     -35.548  -4.435 -10.853  0.00  0.00     0.199 C 
HETATM   11  O           1     -35.195  -5.583 -10.509  0.00  0.00    -0.646 OA
HETATM   12  O           1     -36.654  -3.983 -10.482  0.00  0.00    -0.646 OA
ENDBRANCH   5  10
ENDBRANCH   2   5
BRANCH   4  13
HETATM   13  C           1     -35.731  -0.121 -12.917  0.00  0.00     0.274 C 
BRANCH  13  14
HETATM   14  N           1     -35.648   0.447 -11.530  0.00  0.00    -0.067 N 
HETATM   15  H           1     -35.098   1.335 -11.549  0.00  0.00     0.275 HD
HETATM   16  H           1     -36.612   0.641 -11.176  0.00  0.00     0.275 HD
HETATM   17  H           1     -35.177  -0.241 -10.900  0.00  0.00     0.275 HD
ENDBRANCH  13  14
BRANCH  13  18
HETATM   18  C           1     -34.870   0.713 -13.857  0.00  0.00     0.045 C 
BRANCH  18  19
HETATM   19 Se           1     -35.844   1.042 -15.513  0.00  0.00     0.000 Se
HETATM   20  H           1     -35.478  -0.248 -16.120  0.00  0.00     0.000 HD
ENDBRANCH  18  19
ENDBRANCH  13  18
ENDBRANCH   4  13
TORSDOF 8
ENDMDL
MODEL 9
REMARK VINA RESULT:      -4.6     15.666     17.151
REMARK  8 active torsions:
REMARK  status: ('A' for Active; 'I' for Inactive)
REMARK    1  A    between atoms: Se_1  and  C_20 
REMARK    2  A    between atoms: N_2  and  C_19 
REMARK    3  A    between atoms: C_5  and  O_6 
REMARK    4  A    between atoms: C_5  and  C_7 
REMARK    5  A    between atoms: C_7  and  C_8 
REMARK    6  A    between atoms: C_7  and  N_11 
REMARK       I    between atoms: N_11  and  C_18 
REMARK    7  A    between atoms: C_18  and  C_19 
REMARK    8  A    between atoms: C_19  and  C_20 
ROOT
HETATM    1  O           1     -21.250  -7.824  -4.809  0.00  0.00    -0.271 OA
HETATM    2  N           1     -21.554  -5.617  -4.952  0.00  0.00    -0.343 N 
HETATM    3  H           1     -21.661  -4.732  -4.472  0.00  0.00     0.163 HD
HETATM    4  C           1     -21.376  -6.769  -4.235  0.00  0.00     0.249 C 
ENDROOT
BRANCH   2   5
HETATM    5  C           1     -21.588  -5.662  -6.402  0.00  0.00     0.214 C 
BRANCH   5   6
HETATM    6  C           1     -22.472  -4.538  -6.924  0.00  0.00     0.147 C 
HETATM    7  C           1     -22.416  -4.515  -8.445  0.00  0.00     0.042 C 
BRANCH   6   8
HETATM    8  O           1     -23.794  -4.750  -6.506  0.00  0.00    -0.393 OA
HETATM    9  H           1     -23.779  -4.797  -5.566  0.00  0.00     0.210 HD
ENDBRANCH   6   8
ENDBRANCH   5   6
BRANCH   5  10
HETATM   10  C           1     -20.189  -5.496  -6.942  0.00  0.00     0.199 C 
HETATM   11  O           1     -19.673  -6.401  -7.631  0.00  0.00    -0.646 OA
HETATM   12  O           1     -19.546  -4.450  -6.700  0.00  0.00    -0.646 OA
ENDBRANCH   5  10
ENDBRANCH   2   5
BRANCH   4  13
HETATM   13  C           1     -21.340  -6.721  -2.728  0.00  0.00     0.274 C 
BRANCH  13  14
HETATM   14  N           1     -22.460  -5.856  -2.228  0.00  0.00    -0.067 N 
HETATM   15  H           1     -23.284  -5.951  -2.864  0.00  0.00     0.275 HD
HETATM   16  H           1     -22.729  -6.157  -1.264  0.00  0.00     0.275 HD
HETATM   17  H           1     -22.148  -4.860  -2.209  0.00  0.00     0.275 HD
ENDBRANCH  13  14
BRANCH  13  18
HETATM   18  C           1     -21.502  -8.130  -2.171  0.00  0.00     0.045 C 
BRANCH  18  19
HETATM   19 Se           1     -21.795  -8.039  -0.246  0.00  0.00     0.000 Se
HETATM   20  H           1     -21.837  -9.500  -0.067  0.00  0.00     0.000 HD
ENDBRANCH  18  19
ENDBRANCH  13  18
ENDBRANCH   4  13
TORSDOF 8
ENDMDL
