MODEL 1
REMARK VINA RESULT:      -6.2      0.000      0.000
REMARK  9 active torsions:
REMARK  status: ('A' for Active; 'I' for Inactive)
REMARK       I    between atoms: C_1  and  N_6 
REMARK    1  A    between atoms: C_1  and  C_3 
REMARK    2  A    between atoms: C_3  and  C_4 
REMARK    3  A    between atoms: C_3  and  N_13 
REMARK    4  A    between atoms: C_4  and  C_9 
REMARK    5  A    between atoms: N_6  and  C_15 
REMARK    6  A    between atoms: C_8  and  C_21 
REMARK    7  A    between atoms: C_8  and  C_15 
REMARK    8  A    between atoms: C_11  and  C_15 
REMARK    9  A    between atoms: Se_20  and  C_21 
ROOT
HETATM    1  C           1     -21.094  -5.432  -6.592  0.00  0.00     0.280 C 
ENDROOT
BRANCH   1   2
HETATM    2  C           1     -21.627  -4.398  -7.554  0.00  0.00     0.249 C 
HETATM    3  N           1     -22.194  -4.791  -8.737  0.00  0.00    -0.345 N 
HETATM    4  H           1     -22.255  -5.775  -8.966  0.00  0.00     0.163 HD
HETATM    5  O           1     -21.554  -3.225  -7.280  0.00  0.00    -0.271 OA
BRANCH   3   6
HETATM    6  C           1     -22.706  -3.798  -9.661  0.00  0.00     0.185 C 
BRANCH   6   7
HETATM    7  C           1     -22.176  -4.086 -11.060  0.00  0.00     0.036 C 
BRANCH   7   8
HETATM    8  C           1     -22.279  -2.826 -11.910  0.00  0.00     0.003 C 
BRANCH   8   9
HETATM    9 Se           1     -23.866  -2.930 -13.038  0.00  0.00     0.000 Se
HETATM   10  C           1     -22.902  -2.635 -14.705  0.00  0.00     0.000 C 
ENDBRANCH   8   9
ENDBRANCH   7   8
ENDBRANCH   6   7
BRANCH   6  11
HETATM   11  C           1     -24.213  -3.854  -9.673  0.00  0.00     0.196 C 
HETATM   12  O           1     -24.878  -2.818  -9.456  0.00  0.00    -0.646 OA
HETATM   13  O           1     -24.797  -4.936  -9.898  0.00  0.00    -0.646 OA
ENDBRANCH   6  11
ENDBRANCH   3   6
ENDBRANCH   1   2
BRANCH   1  14
HETATM   14  C           1     -22.222  -5.917  -5.691  0.00  0.00     0.101 C 
BRANCH  14  15
HETATM   15  C           1     -21.684  -6.905  -4.704  0.00  0.00     0.028 A 
HETATM   16  C           1     -21.174  -8.139  -5.032  0.00  0.00     0.114 A 
HETATM   17  N           1     -20.804  -8.697  -3.840  0.00  0.00    -0.360 N 
HETATM   18  C           1     -21.101  -7.798  -2.856  0.00  0.00     0.180 A 
HETATM   19  H           1     -20.372  -9.645  -3.706  0.00  0.00     0.166 HD
HETATM   20  N           1     -21.635  -6.704  -3.348  0.00  0.00    -0.355 N 
ATOM     21  HN          1     -21.947  -5.880  -2.833  1.00  0.00     0.166 HD
ENDBRANCH  14  15
ENDBRANCH   1  14
BRANCH   1  22
HETATM   22  N           1     -20.012  -4.822  -5.753  0.00  0.00    -0.066 N 
HETATM   23  H           1     -20.131  -3.784  -5.729  0.00  0.00     0.275 HD
HETATM   24  H           1     -20.070  -5.201  -4.780  0.00  0.00     0.275 HD
HETATM   25  H           1     -19.079  -5.056  -6.164  0.00  0.00     0.275 HD
ENDBRANCH   1  22
TORSDOF 9
ENDMDL
MODEL 2
REMARK VINA RESULT:      -6.1      3.531      7.667
REMARK  9 active torsions:
REMARK  status: ('A' for Active; 'I' for Inactive)
REMARK       I    between atoms: C_1  and  N_6 
REMARK    1  A    between atoms: C_1  and  C_3 
REMARK    2  A    between atoms: C_3  and  C_4 
REMARK    3  A    between atoms: C_3  and  N_13 
REMARK    4  A    between atoms: C_4  and  C_9 
REMARK    5  A    between atoms: N_6  and  C_15 
REMARK    6  A    between atoms: C_8  and  C_21 
REMARK    7  A    between atoms: C_8  and  C_15 
REMARK    8  A    between atoms: C_11  and  C_15 
REMARK    9  A    between atoms: Se_20  and  C_21 
ROOT
HETATM    1  C           1     -23.085  -4.136  -9.079  0.00  0.00     0.280 C 
ENDROOT
BRANCH   1   2
HETATM    2  C           1     -22.313  -4.217  -7.785  0.00  0.00     0.249 C 
HETATM    3  N           1     -22.253  -5.399  -7.096  0.00  0.00    -0.345 N 
HETATM    4  H           1     -22.726  -6.218  -7.455  0.00  0.00     0.163 HD
HETATM    5  O           1     -21.748  -3.240  -7.356  0.00  0.00    -0.271 OA
BRANCH   3   6
HETATM    6  C           1     -21.512  -5.477  -5.852  0.00  0.00     0.185 C 
BRANCH   6   7
HETATM    7  C           1     -22.105  -6.572  -4.975  0.00  0.00     0.036 C 
BRANCH   7   8
HETATM    8  C           1     -21.682  -6.349  -3.529  0.00  0.00     0.003 C 
BRANCH   8   9
HETATM    9 Se           1     -21.084  -8.037  -2.758  0.00  0.00     0.000 Se
HETATM   10  C           1     -21.528  -9.101  -4.329  0.00  0.00     0.000 C 
ENDBRANCH   8   9
ENDBRANCH   7   8
ENDBRANCH   6   7
BRANCH   6  11
HETATM   11  C           1     -20.068  -5.797  -6.148  0.00  0.00     0.196 C 
HETATM   12  O           1     -19.208  -4.891  -6.115  0.00  0.00    -0.646 OA
HETATM   13  O           1     -19.732  -6.969  -6.427  0.00  0.00    -0.646 OA
ENDBRANCH   6  11
ENDBRANCH   3   6
ENDBRANCH   1   2
BRANCH   1  14
HETATM   14  C           1     -22.213  -3.493 -10.150  0.00  0.00     0.101 C 
BRANCH  14  15
HETATM   15  C           1     -22.954  -3.472 -11.451  0.00  0.00     0.028 A 
HETATM   16  C           1     -23.468  -4.584 -12.075  0.00  0.00     0.114 A 
HETATM   17  N           1     -24.053  -4.111 -13.217  0.00  0.00    -0.360 N 
HETATM   18  C           1     -23.872  -2.757 -13.240  0.00  0.00     0.180 A 
HETATM   19  H           1     -24.549  -4.684 -13.943  0.00  0.00     0.166 HD
HETATM   20  N           1     -23.210  -2.342 -12.184  0.00  0.00    -0.355 N 
ATOM     21  HN          1     -22.943  -1.384 -11.958  1.00  0.00     0.166 HD
ENDBRANCH  14  15
ENDBRANCH   1  14
BRANCH   1  22
HETATM   22  N           1     -24.318  -3.308  -8.875  0.00  0.00    -0.066 N 
HETATM   23  H           1     -24.047  -2.313  -8.708  0.00  0.00     0.275 HD
HETATM   24  H           1     -24.921  -3.366  -9.726  0.00  0.00     0.275 HD
HETATM   25  H           1     -24.846  -3.669  -8.047  0.00  0.00     0.275 HD
ENDBRANCH   1  22
TORSDOF 9
ENDMDL
MODEL 3
REMARK VINA RESULT:      -6.0     12.682     14.157
REMARK  9 active torsions:
REMARK  status: ('A' for Active; 'I' for Inactive)
REMARK       I    between atoms: C_1  and  N_6 
REMARK    1  A    between atoms: C_1  and  C_3 
REMARK    2  A    between atoms: C_3  and  C_4 
REMARK    3  A    between atoms: C_3  and  N_13 
REMARK    4  A    between atoms: C_4  and  C_9 
REMARK    5  A    between atoms: N_6  and  C_15 
REMARK    6  A    between atoms: C_8  and  C_21 
REMARK    7  A    between atoms: C_8  and  C_15 
REMARK    8  A    between atoms: C_11  and  C_15 
REMARK    9  A    between atoms: Se_20  and  C_21 
ROOT
HETATM    1  C           1     -33.884  -3.550 -11.696  0.00  0.00     0.280 C 
ENDROOT
BRANCH   1   2
HETATM    2  C           1     -34.625  -2.716 -12.713  0.00  0.00     0.249 C 
HETATM    3  N           1     -35.283  -1.582 -12.319  0.00  0.00    -0.345 N 
HETATM    4  H           1     -35.273  -1.304 -11.346  0.00  0.00     0.163 HD
HETATM    5  O           1     -34.636  -3.048 -13.873  0.00  0.00    -0.271 OA
BRANCH   3   6
HETATM    6  C           1     -35.994  -0.780 -13.295  0.00  0.00     0.185 C 
BRANCH   6   7
HETATM    7  C           1     -37.165  -0.077 -12.620  0.00  0.00     0.036 C 
BRANCH   7   8
HETATM    8  C           1     -37.342  -0.626 -11.211  0.00  0.00     0.003 C 
BRANCH   8   9
HETATM    9 Se           1     -37.070   0.805  -9.915  0.00  0.00     0.000 Se
HETATM   10  C           1     -37.457  -0.304  -8.362  0.00  0.00     0.000 C 
ENDBRANCH   8   9
ENDBRANCH   7   8
ENDBRANCH   6   7
BRANCH   6  11
HETATM   11  C           1     -35.058   0.250 -13.877  0.00  0.00     0.196 C 
HETATM   12  O           1     -34.654   1.197 -13.169  0.00  0.00    -0.646 OA
HETATM   13  O           1     -34.688   0.156 -15.067  0.00  0.00    -0.646 OA
ENDBRANCH   6  11
ENDBRANCH   3   6
ENDBRANCH   1   2
BRANCH   1  14
HETATM   14  C           1     -34.882  -4.191 -10.740  0.00  0.00     0.101 C 
BRANCH  14  15
HETATM   15  C           1     -34.537  -5.635 -10.550  0.00  0.00     0.028 A 
HETATM   16  C           1     -33.421  -6.246 -11.071  0.00  0.00     0.114 A 
HETATM   17  N           1     -33.505  -7.547 -10.657  0.00  0.00    -0.360 N 
HETATM   18  C           1     -34.646  -7.670  -9.917  0.00  0.00     0.180 A 
HETATM   19  H           1     -32.817  -8.311 -10.869  0.00  0.00     0.166 HD
HETATM   20  N           1     -35.292  -6.529  -9.836  0.00  0.00    -0.355 N 
ATOM     21  HN          1     -36.168  -6.347  -9.346  1.00  0.00     0.166 HD
ENDBRANCH  14  15
ENDBRANCH   1  14
BRANCH   1  22
HETATM   22  N           1     -32.943  -2.676 -10.923  0.00  0.00    -0.066 N 
HETATM   23  H           1     -31.994  -2.713 -11.360  0.00  0.00     0.275 HD
HETATM   24  H           1     -33.293  -1.691 -10.935  0.00  0.00     0.275 HD
HETATM   25  H           1     -32.885  -3.014  -9.935  0.00  0.00     0.275 HD
ENDBRANCH   1  22
TORSDOF 9
ENDMDL
MODEL 4
REMARK VINA RESULT:      -6.0     12.554     14.155
REMARK  9 active torsions:
REMARK  status: ('A' for Active; 'I' for Inactive)
REMARK       I    between atoms: C_1  and  N_6 
REMARK    1  A    between atoms: C_1  and  C_3 
REMARK    2  A    between atoms: C_3  and  C_4 
REMARK    3  A    between atoms: C_3  and  N_13 
REMARK    4  A    between atoms: C_4  and  C_9 
REMARK    5  A    between atoms: N_6  and  C_15 
REMARK    6  A    between atoms: C_8  and  C_21 
REMARK    7  A    between atoms: C_8  and  C_15 
REMARK    8  A    between atoms: C_11  and  C_15 
REMARK    9  A    between atoms: Se_20  and  C_21 
ROOT
HETATM    1  C           1     -33.007  -4.537 -16.685  0.00  0.00     0.280 C 
ENDROOT
BRANCH   1   2
HETATM    2  C           1     -33.834  -4.541 -15.423  0.00  0.00     0.249 C 
HETATM    3  N           1     -33.317  -4.028 -14.264  0.00  0.00    -0.345 N 
HETATM    4  H           1     -32.380  -3.647 -14.253  0.00  0.00     0.163 HD
HETATM    5  O           1     -34.953  -4.995 -15.435  0.00  0.00    -0.271 OA
BRANCH   3   6
HETATM    6  C           1     -34.111  -4.031 -13.051  0.00  0.00     0.185 C 
BRANCH   6   7
HETATM    7  C           1     -33.193  -4.151 -11.841  0.00  0.00     0.036 C 
BRANCH   7   8
HETATM    8  C           1     -33.222  -5.582 -11.322  0.00  0.00     0.003 C 
BRANCH   8   9
HETATM    9 Se           1     -34.803  -5.838 -10.210  0.00  0.00     0.000 Se
HETATM   10  C           1     -34.658  -7.780 -10.164  0.00  0.00     0.000 C 
ENDBRANCH   8   9
ENDBRANCH   7   8
ENDBRANCH   6   7
BRANCH   6  11
HETATM   11  C           1     -34.895  -2.745 -12.961  0.00  0.00     0.196 C 
HETATM   12  O           1     -35.650  -2.540 -11.986  0.00  0.00    -0.646 OA
HETATM   13  O           1     -34.790  -1.885 -13.862  0.00  0.00    -0.646 OA
ENDBRANCH   6  11
ENDBRANCH   3   6
ENDBRANCH   1   2
BRANCH   1  14
HETATM   14  C           1     -31.532  -4.663 -16.326  0.00  0.00     0.101 C 
BRANCH  14  15
HETATM   15  C           1     -30.971  -5.906 -16.945  0.00  0.00     0.028 A 
HETATM   16  C           1     -31.684  -6.774 -17.738  0.00  0.00     0.114 A 
HETATM   17  N           1     -30.794  -7.754 -18.078  0.00  0.00    -0.360 N 
HETATM   18  C           1     -29.601  -7.448 -17.489  0.00  0.00     0.180 A 
HETATM   19  H           1     -30.992  -8.590 -18.682  0.00  0.00     0.166 HD
HETATM   20  N           1     -29.678  -6.335 -16.796  0.00  0.00    -0.355 N 
ATOM     21  HN          1     -28.934  -5.885 -16.261  1.00  0.00     0.166 HD
ENDBRANCH  14  15
ENDBRANCH   1  14
BRANCH   1  22
HETATM   22  N           1     -33.233  -3.253 -17.426  0.00  0.00    -0.066 N 
HETATM   23  H           1     -32.472  -3.118 -18.130  0.00  0.00     0.275 HD
HETATM   24  H           1     -34.156  -3.291 -17.915  0.00  0.00     0.275 HD
HETATM   25  H           1     -33.228  -2.456 -16.750  0.00  0.00     0.275 HD
ENDBRANCH   1  22
TORSDOF 9
ENDMDL
MODEL 5
REMARK VINA RESULT:      -5.9      3.889      7.891
REMARK  9 active torsions:
REMARK  status: ('A' for Active; 'I' for Inactive)
REMARK       I    between atoms: C_1  and  N_6 
REMARK    1  A    between atoms: C_1  and  C_3 
REMARK    2  A    between atoms: C_3  and  C_4 
REMARK    3  A    between atoms: C_3  and  N_13 
REMARK    4  A    between atoms: C_4  and  C_9 
REMARK    5  A    between atoms: N_6  and  C_15 
REMARK    6  A    between atoms: C_8  and  C_21 
REMARK    7  A    between atoms: C_8  and  C_15 
REMARK    8  A    between atoms: C_11  and  C_15 
REMARK    9  A    between atoms: Se_20  and  C_21 
ROOT
HETATM    1  C           1     -22.201  -4.711  -8.058  0.00  0.00     0.280 C 
ENDROOT
BRANCH   1   2
HETATM    2  C           1     -21.478  -5.125  -6.799  0.00  0.00     0.249 C 
HETATM    3  N           1     -21.904  -6.218  -6.094  0.00  0.00    -0.345 N 
HETATM    4  H           1     -22.703  -6.748  -6.416  0.00  0.00     0.163 HD
HETATM    5  O           1     -20.524  -4.493  -6.415  0.00  0.00    -0.271 OA
BRANCH   3   6
HETATM    6  C           1     -21.210  -6.616  -4.884  0.00  0.00     0.185 C 
BRANCH   6   7
HETATM    7  C           1     -22.200  -6.684  -3.729  0.00  0.00     0.036 C 
BRANCH   7   8
HETATM    8  C           1     -21.555  -6.114  -2.473  0.00  0.00     0.003 C 
BRANCH   8   9
HETATM    9 Se           1     -22.228  -7.063  -0.908  0.00  0.00     0.000 Se
HETATM   10  C           1     -20.887  -8.474  -0.983  0.00  0.00     0.000 C 
ENDBRANCH   8   9
ENDBRANCH   7   8
ENDBRANCH   6   7
BRANCH   6  11
HETATM   11  C           1     -20.582  -7.973  -5.089  0.00  0.00     0.196 C 
HETATM   12  O           1     -19.530  -8.272  -4.485  0.00  0.00    -0.646 OA
HETATM   13  O           1     -21.114  -8.797  -5.864  0.00  0.00    -0.646 OA
ENDBRANCH   6  11
ENDBRANCH   3   6
ENDBRANCH   1   2
BRANCH   1  14
HETATM   14  C           1     -21.391  -3.641  -8.780  0.00  0.00     0.101 C 
BRANCH  14  15
HETATM   15  C           1     -21.700  -3.685 -10.244  0.00  0.00     0.028 A 
HETATM   16  C           1     -20.789  -3.997 -11.226  0.00  0.00     0.114 A 
HETATM   17  N           1     -21.489  -3.916 -12.397  0.00  0.00    -0.360 N 
HETATM   18  C           1     -22.771  -3.563 -12.086  0.00  0.00     0.180 A 
HETATM   19  H           1     -21.110  -4.092 -13.361  0.00  0.00     0.166 HD
HETATM   20  N           1     -22.929  -3.416 -10.790  0.00  0.00    -0.355 N 
ATOM     21  HN          1     -23.782  -3.157 -10.295  1.00  0.00     0.166 HD
ENDBRANCH  14  15
ENDBRANCH   1  14
BRANCH   1  22
HETATM   22  N           1     -23.549  -4.161  -7.702  0.00  0.00    -0.066 N 
HETATM   23  H           1     -23.443  -3.422  -6.971  0.00  0.00     0.275 HD
HETATM   24  H           1     -23.992  -3.747  -8.553  0.00  0.00     0.275 HD
HETATM   25  H           1     -24.153  -4.932  -7.334  0.00  0.00     0.275 HD
ENDBRANCH   1  22
TORSDOF 9
ENDMDL
MODEL 6
REMARK VINA RESULT:      -5.8      3.797      7.526
REMARK  9 active torsions:
REMARK  status: ('A' for Active; 'I' for Inactive)
REMARK       I    between atoms: C_1  and  N_6 
REMARK    1  A    between atoms: C_1  and  C_3 
REMARK    2  A    between atoms: C_3  and  C_4 
REMARK    3  A    between atoms: C_3  and  N_13 
REMARK    4  A    between atoms: C_4  and  C_9 
REMARK    5  A    between atoms: N_6  and  C_15 
REMARK    6  A    between atoms: C_8  and  C_21 
REMARK    7  A    between atoms: C_8  and  C_15 
REMARK    8  A    between atoms: C_11  and  C_15 
REMARK    9  A    between atoms: Se_20  and  C_21 
ROOT
HETATM    1  C           1     -21.351  -4.662  -6.772  0.00  0.00     0.280 C 
ENDROOT
BRANCH   1   2
HETATM    2  C           1     -21.935  -5.659  -5.801  0.00  0.00     0.249 C 
HETATM    3  N           1     -21.107  -6.452  -5.051  0.00  0.00    -0.345 N 
HETATM    4  H           1     -20.104  -6.370  -5.150  0.00  0.00     0.163 HD
HETATM    5  O           1     -23.133  -5.757  -5.684  0.00  0.00    -0.271 OA
BRANCH   3   6
HETATM    6  C           1     -21.669  -7.409  -4.119  0.00  0.00     0.185 C 
BRANCH   6   7
HETATM    7  C           1     -20.879  -8.710  -4.188  0.00  0.00     0.036 C 
BRANCH   7   8
HETATM    8  C           1     -19.640  -8.506  -5.049  0.00  0.00     0.003 C 
BRANCH   8   9
HETATM    9 Se           1     -18.390  -9.971  -4.749  0.00  0.00     0.000 Se
HETATM   10  C           1     -17.926  -9.423  -2.938  0.00  0.00     0.000 C 
ENDBRANCH   8   9
ENDBRANCH   7   8
ENDBRANCH   6   7
BRANCH   6  11
HETATM   11  C           1     -21.594  -6.850  -2.720  0.00  0.00     0.196 C 
HETATM   12  O           1     -22.355  -5.920  -2.377  0.00  0.00    -0.646 OA
HETATM   13  O           1     -20.770  -7.316  -1.904  0.00  0.00    -0.646 OA
ENDBRANCH   6  11
ENDBRANCH   3   6
ENDBRANCH   1   2
BRANCH   1  14
HETATM   14  C           1     -21.494  -5.193  -8.192  0.00  0.00     0.101 C 
BRANCH  14  15
HETATM   15  C           1     -22.564  -4.427  -8.906  0.00  0.00     0.028 A 
HETATM   16  C           1     -22.489  -4.016 -10.216  0.00  0.00     0.114 A 
HETATM   17  N           1     -23.667  -3.362 -10.449  0.00  0.00    -0.360 N 
HETATM   18  C           1     -24.394  -3.401  -9.294  0.00  0.00     0.180 A 
HETATM   19  H           1     -23.958  -2.911 -11.352  0.00  0.00     0.166 HD
HETATM   20  N           1     -23.752  -4.039  -8.342  0.00  0.00    -0.355 N 
ATOM     21  HN          1     -24.069  -4.209  -7.388  1.00  0.00     0.166 HD
ENDBRANCH  14  15
ENDBRANCH   1  14
BRANCH   1  22
HETATM   22  N           1     -19.899  -4.455  -6.460  0.00  0.00    -0.066 N 
HETATM   23  H           1     -19.367  -4.314  -7.349  0.00  0.00     0.275 HD
HETATM   24  H           1     -19.790  -3.611  -5.853  0.00  0.00     0.275 HD
HETATM   25  H           1     -19.526  -5.295  -5.961  0.00  0.00     0.275 HD
ENDBRANCH   1  22
TORSDOF 9
ENDMDL
MODEL 7
REMARK VINA RESULT:      -5.7      3.419      7.937
REMARK  9 active torsions:
REMARK  status: ('A' for Active; 'I' for Inactive)
REMARK       I    between atoms: C_1  and  N_6 
REMARK    1  A    between atoms: C_1  and  C_3 
REMARK    2  A    between atoms: C_3  and  C_4 
REMARK    3  A    between atoms: C_3  and  N_13 
REMARK    4  A    between atoms: C_4  and  C_9 
REMARK    5  A    between atoms: N_6  and  C_15 
REMARK    6  A    between atoms: C_8  and  C_21 
REMARK    7  A    between atoms: C_8  and  C_15 
REMARK    8  A    between atoms: C_11  and  C_15 
REMARK    9  A    between atoms: Se_20  and  C_21 
ROOT
HETATM    1  C           1     -23.105  -4.395 -10.584  0.00  0.00     0.280 C 
ENDROOT
BRANCH   1   2
HETATM    2  C           1     -22.530  -4.197  -9.202  0.00  0.00     0.249 C 
HETATM    3  N           1     -21.661  -5.119  -8.684  0.00  0.00    -0.345 N 
HETATM    4  H           1     -21.404  -5.933  -9.227  0.00  0.00     0.163 HD
HETATM    5  O           1     -22.836  -3.226  -8.554  0.00  0.00    -0.271 OA
BRANCH   3   6
HETATM    6  C           1     -21.108  -4.930  -7.357  0.00  0.00     0.185 C 
BRANCH   6   7
HETATM    7  C           1     -21.123  -6.255  -6.606  0.00  0.00     0.036 C 
BRANCH   7   8
HETATM    8  C           1     -21.872  -6.085  -5.291  0.00  0.00     0.003 C 
BRANCH   8   9
HETATM    9 Se           1     -21.163  -7.334  -3.973  0.00  0.00     0.000 Se
HETATM   10  C           1     -21.969  -6.434  -2.445  0.00  0.00     0.000 C 
ENDBRANCH   8   9
ENDBRANCH   7   8
ENDBRANCH   6   7
BRANCH   6  11
HETATM   11  C           1     -19.689  -4.432  -7.471  0.00  0.00     0.196 C 
HETATM   12  O           1     -18.818  -4.839  -6.672  0.00  0.00    -0.646 OA
HETATM   13  O           1     -19.384  -3.613  -8.364  0.00  0.00    -0.646 OA
ENDBRANCH   6  11
ENDBRANCH   3   6
ENDBRANCH   1   2
BRANCH   1  14
HETATM   14  C           1     -23.752  -3.099 -11.055  0.00  0.00     0.101 C 
BRANCH  14  15
HETATM   15  C           1     -23.413  -2.866 -12.495  0.00  0.00     0.028 A 
HETATM   16  C           1     -22.418  -3.522 -13.179  0.00  0.00     0.114 A 
HETATM   17  N           1     -22.459  -3.006 -14.445  0.00  0.00    -0.360 N 
HETATM   18  C           1     -23.458  -2.076 -14.476  0.00  0.00     0.180 A 
HETATM   19  H           1     -21.836  -3.276 -15.246  0.00  0.00     0.166 HD
HETATM   20  N           1     -24.054  -1.969 -13.310  0.00  0.00    -0.355 N 
ATOM     21  HN          1     -24.827  -1.351 -13.064  1.00  0.00     0.166 HD
ENDBRANCH  14  15
ENDBRANCH   1  14
BRANCH   1  22
HETATM   22  N           1     -24.137  -5.482 -10.544  0.00  0.00    -0.066 N 
HETATM   23  H           1     -23.853  -6.208  -9.848  0.00  0.00     0.275 HD
HETATM   24  H           1     -25.060  -5.076 -10.266  0.00  0.00     0.275 HD
HETATM   25  H           1     -24.218  -5.920 -11.490  0.00  0.00     0.275 HD
ENDBRANCH   1  22
TORSDOF 9
ENDMDL
MODEL 8
REMARK VINA RESULT:      -5.6     11.016     13.362
REMARK  9 active torsions:
REMARK  status: ('A' for Active; 'I' for Inactive)
REMARK       I    between atoms: C_1  and  N_6 
REMARK    1  A    between atoms: C_1  and  C_3 
REMARK    2  A    between atoms: C_3  and  C_4 
REMARK    3  A    between atoms: C_3  and  N_13 
REMARK    4  A    between atoms: C_4  and  C_9 
REMARK    5  A    between atoms: N_6  and  C_15 
REMARK    6  A    between atoms: C_8  and  C_21 
REMARK    7  A    between atoms: C_8  and  C_15 
REMARK    8  A    between atoms: C_11  and  C_15 
REMARK    9  A    between atoms: Se_20  and  C_21 
ROOT
HETATM    1  C           1     -25.439  -6.785 -19.610  0.00  0.00     0.280 C 
ENDROOT
BRANCH   1   2
HETATM    2  C           1     -26.776  -6.442 -18.999  0.00  0.00     0.249 C 
HETATM    3  N           1     -27.078  -6.863 -17.732  0.00  0.00    -0.345 N 
HETATM    4  H           1     -26.405  -7.404 -17.205  0.00  0.00     0.163 HD
HETATM    5  O           1     -27.578  -5.795 -19.628  0.00  0.00    -0.271 OA
BRANCH   3   6
HETATM    6  C           1     -28.362  -6.534 -17.145  0.00  0.00     0.185 C 
BRANCH   6   7
HETATM    7  C           1     -29.390  -7.584 -17.549  0.00  0.00     0.036 C 
BRANCH   7   8
HETATM    8  C           1     -30.481  -6.930 -18.386  0.00  0.00     0.003 C 
BRANCH   8   9
HETATM    9 Se           1     -32.044  -6.596 -17.270  0.00  0.00     0.000 Se
HETATM   10  C           1     -31.611  -4.726 -16.937  0.00  0.00     0.000 C 
ENDBRANCH   8   9
ENDBRANCH   7   8
ENDBRANCH   6   7
BRANCH   6  11
HETATM   11  C           1     -28.235  -6.507 -15.642  0.00  0.00     0.196 C 
HETATM   12  O           1     -28.606  -5.500 -15.002  0.00  0.00    -0.646 OA
HETATM   13  O           1     -27.758  -7.492 -15.038  0.00  0.00    -0.646 OA
ENDBRANCH   6  11
ENDBRANCH   3   6
ENDBRANCH   1   2
BRANCH   1  14
HETATM   14  C           1     -25.641  -7.766 -20.757  0.00  0.00     0.101 C 
BRANCH  14  15
HETATM   15  C           1     -24.320  -8.068 -21.395  0.00  0.00     0.028 A 
HETATM   16  C           1     -23.992  -7.760 -22.694  0.00  0.00     0.114 A 
HETATM   17  N           1     -22.710  -8.209 -22.851  0.00  0.00    -0.360 N 
HETATM   18  C           1     -22.320  -8.761 -21.664  0.00  0.00     0.180 A 
HETATM   19  H           1     -22.132  -8.141 -23.725  0.00  0.00     0.166 HD
HETATM   20  N           1     -23.274  -8.690 -20.765  0.00  0.00    -0.355 N 
ATOM     21  HN          1     -23.244  -9.027 -19.802  1.00  0.00     0.166 HD
ENDBRANCH  14  15
ENDBRANCH   1  14
BRANCH   1  22
HETATM   22  N           1     -24.559  -7.408 -18.568  0.00  0.00    -0.066 N 
HETATM   23  H           1     -24.156  -8.299 -18.938  0.00  0.00     0.275 HD
HETATM   24  H           1     -23.784  -6.750 -18.327  0.00  0.00     0.275 HD
HETATM   25  H           1     -25.124  -7.611 -17.711  0.00  0.00     0.275 HD
ENDBRANCH   1  22
TORSDOF 9
ENDMDL
MODEL 9
REMARK VINA RESULT:      -5.6     10.946     13.317
REMARK  9 active torsions:
REMARK  status: ('A' for Active; 'I' for Inactive)
REMARK       I    between atoms: C_1  and  N_6 
REMARK    1  A    between atoms: C_1  and  C_3 
REMARK    2  A    between atoms: C_3  and  C_4 
REMARK    3  A    between atoms: C_3  and  N_13 
REMARK    4  A    between atoms: C_4  and  C_9 
REMARK    5  A    between atoms: N_6  and  C_15 
REMARK    6  A    between atoms: C_8  and  C_21 
REMARK    7  A    between atoms: C_8  and  C_15 
REMARK    8  A    between atoms: C_11  and  C_15 
REMARK    9  A    between atoms: Se_20  and  C_21 
ROOT
HETATM    1  C           1     -31.126  -6.167 -17.618  0.00  0.00     0.280 C 
ENDROOT
BRANCH   1   2
HETATM    2  C           1     -29.785  -6.855 -17.692  0.00  0.00     0.249 C 
HETATM    3  N           1     -28.634  -6.132 -17.522  0.00  0.00    -0.345 N 
HETATM    4  H           1     -28.684  -5.137 -17.347  0.00  0.00     0.163 HD
HETATM    5  O           1     -29.726  -8.043 -17.900  0.00  0.00    -0.271 OA
BRANCH   3   6
HETATM    6  C           1     -27.345  -6.792 -17.593  0.00  0.00     0.185 C 
BRANCH   6   7
HETATM    7  C           1     -26.501  -6.144 -18.683  0.00  0.00     0.036 C 
BRANCH   7   8
HETATM    8  C           1     -26.853  -6.760 -20.031  0.00  0.00     0.003 C 
BRANCH   8   9
HETATM    9 Se           1     -25.260  -7.569 -20.812  0.00  0.00     0.000 Se
HETATM   10  C           1     -24.120  -7.203 -19.274  0.00  0.00     0.000 C 
ENDBRANCH   8   9
ENDBRANCH   7   8
ENDBRANCH   6   7
BRANCH   6  11
HETATM   11  C           1     -26.640  -6.660 -16.266  0.00  0.00     0.196 C 
HETATM   12  O           1     -25.746  -5.800 -16.117  0.00  0.00    -0.646 OA
HETATM   13  O           1     -26.949  -7.413 -15.317  0.00  0.00    -0.646 OA
ENDBRANCH   6  11
ENDBRANCH   3   6
ENDBRANCH   1   2
BRANCH   1  14
HETATM   14  C           1     -31.098  -5.117 -16.514  0.00  0.00     0.101 C 
BRANCH  14  15
HETATM   15  C           1     -32.382  -4.348 -16.524  0.00  0.00     0.028 A 
HETATM   16  C           1     -32.765  -3.479 -17.518  0.00  0.00     0.114 A 
HETATM   17  N           1     -33.986  -3.006 -17.125  0.00  0.00    -0.360 N 
HETATM   18  C           1     -34.289  -3.595 -15.930  0.00  0.00     0.180 A 
HETATM   19  H           1     -34.582  -2.316 -17.646  0.00  0.00     0.166 HD
HETATM   20  N           1     -33.337  -4.412 -15.541  0.00  0.00    -0.355 N 
ATOM     21  HN          1     -33.312  -4.974 -14.690  1.00  0.00     0.166 HD
ENDBRANCH  14  15
ENDBRANCH   1  14
BRANCH   1  22
HETATM   22  N           1     -32.190  -7.180 -17.317  0.00  0.00    -0.066 N 
HETATM   23  H           1     -32.315  -7.811 -18.141  0.00  0.00     0.275 HD
HETATM   24  H           1     -31.907  -7.746 -16.485  0.00  0.00     0.275 HD
HETATM   25  H           1     -33.091  -6.689 -17.115  0.00  0.00     0.275 HD
ENDBRANCH   1  22
TORSDOF 9
ENDMDL
