MODEL 1
REMARK VINA RESULT:      -7.1      0.000      0.000
REMARK  8 active torsions:
REMARK  status: ('A' for Active; 'I' for Inactive)
REMARK    1  A    between atoms: C_3  and  C_9 
REMARK    2  A    between atoms: C_3  and  C_21 
REMARK    3  A    between atoms: C_3  and  N_25 
REMARK    4  A    between atoms: C_7  and  C_8 
REMARK    5  A    between atoms: C_8  and  C_23 
REMARK    6  A    between atoms: C_10  and  C_21 
REMARK    7  A    between atoms: N_11  and  C_23 
REMARK    8  A    between atoms: C_23  and  C_24 
REMARK       I    between atoms: C_24  and  N_25 
ROOT
HETATM    1  H           1     -22.736  -5.958 -10.951  0.00  0.00     0.163 HD
HETATM    2  O           1     -24.880  -4.443  -9.893  0.00  0.00    -0.271 OA
HETATM    3  C           1     -23.676  -4.505  -9.817  0.00  0.00     0.249 C 
HETATM    4  N           1     -22.944  -4.971 -10.876  0.00  0.00    -0.344 N 
ENDROOT
BRANCH   4   5
HETATM    5  C           1     -22.469  -4.050 -11.890  0.00  0.00     0.191 C 
BRANCH   5   6
HETATM    6  C           1     -21.105  -3.535 -11.501  0.00  0.00     0.197 C 
HETATM    7  O           1     -20.947  -2.325 -11.230  0.00  0.00    -0.646 OA
HETATM    8  O           1     -20.132  -4.319 -11.448  0.00  0.00    -0.646 OA
ENDBRANCH   5   6
BRANCH   5   9
HETATM    9  C           1     -23.439  -2.881 -12.007  0.00  0.00     0.094 C 
BRANCH   9  10
HETATM   10  C           1     -23.403  -2.341 -13.403  0.00  0.00     0.028 A 
HETATM   11  C           1     -22.672  -2.885 -14.433  0.00  0.00     0.114 A 
HETATM   12  N           1     -22.931  -2.085 -15.511  0.00  0.00    -0.360 N 
HETATM   13  C           1     -23.791  -1.107 -15.099  0.00  0.00     0.180 A 
HETATM   14  H           1     -22.539  -2.201 -16.478  0.00  0.00     0.166 HD
HETATM   15  N           1     -24.094  -1.236 -13.829  0.00  0.00    -0.354 N 
ATOM     16  HN          1     -24.711  -0.641 -13.277  1.00  0.00     0.166 HD
ENDBRANCH   9  10
ENDBRANCH   5   9
ENDBRANCH   4   5
BRANCH   3  17
HETATM   17  C           1     -22.978  -4.067  -8.552  0.00  0.00     0.275 C 
BRANCH  17  18
HETATM   18  C           1     -21.740  -4.926  -8.330  0.00  0.00     0.046 C 
BRANCH  18  19
HETATM   19  C           1     -20.764  -4.186  -7.426  0.00  0.00    -0.020 C 
HETATM   20  C           1     -20.648  -4.918  -6.096  0.00  0.00     0.009 C 
HETATM   21  C           1     -19.396  -4.129  -8.094  0.00  0.00     0.009 C 
ENDBRANCH  18  19
ENDBRANCH  17  18
BRANCH  17  22
HETATM   22  N           1     -23.911  -4.226  -7.388  0.00  0.00    -0.066 N 
HETATM   23  H           1     -24.788  -3.685  -7.568  0.00  0.00     0.275 HD
HETATM   24  H           1     -23.452  -3.865  -6.521  0.00  0.00     0.275 HD
HETATM   25  H           1     -24.144  -5.237  -7.263  0.00  0.00     0.275 HD
ENDBRANCH  17  22
ENDBRANCH   3  17
TORSDOF 8
ENDMDL
MODEL 2
REMARK VINA RESULT:      -6.8      2.140      3.620
REMARK  8 active torsions:
REMARK  status: ('A' for Active; 'I' for Inactive)
REMARK    1  A    between atoms: C_3  and  C_9 
REMARK    2  A    between atoms: C_3  and  C_21 
REMARK    3  A    between atoms: C_3  and  N_25 
REMARK    4  A    between atoms: C_7  and  C_8 
REMARK    5  A    between atoms: C_8  and  C_23 
REMARK    6  A    between atoms: C_10  and  C_21 
REMARK    7  A    between atoms: N_11  and  C_23 
REMARK    8  A    between atoms: C_23  and  C_24 
REMARK       I    between atoms: C_24  and  N_25 
ROOT
HETATM    1  H           1     -23.707  -4.419  -7.293  0.00  0.00     0.163 HD
HETATM    2  O           1     -21.278  -3.035  -6.854  0.00  0.00    -0.271 OA
HETATM    3  C           1     -21.676  -4.037  -7.398  0.00  0.00     0.249 C 
HETATM    4  N           1     -22.954  -4.092  -7.884  0.00  0.00    -0.344 N 
ENDROOT
BRANCH   4   5
HETATM    5  C           1     -23.229  -3.679  -9.247  0.00  0.00     0.191 C 
BRANCH   5   6
HETATM    6  C           1     -24.715  -3.750  -9.503  0.00  0.00     0.197 C 
HETATM    7  O           1     -25.392  -2.701  -9.551  0.00  0.00    -0.646 OA
HETATM    8  O           1     -25.268  -4.859  -9.668  0.00  0.00    -0.646 OA
ENDBRANCH   5   6
BRANCH   5   9
HETATM    9  C           1     -22.503  -4.606 -10.213  0.00  0.00     0.094 C 
BRANCH   9  10
HETATM   10  C           1     -22.696  -4.115 -11.614  0.00  0.00     0.028 A 
HETATM   11  C           1     -21.852  -3.244 -12.261  0.00  0.00     0.114 A 
HETATM   12  N           1     -22.402  -3.072 -13.501  0.00  0.00    -0.360 N 
HETATM   13  C           1     -23.536  -3.830 -13.555  0.00  0.00     0.180 A 
HETATM   14  H           1     -22.022  -2.466 -14.270  0.00  0.00     0.166 HD
HETATM   15  N           1     -23.740  -4.472 -12.428  0.00  0.00    -0.354 N 
ATOM     16  HN          1     -24.511  -5.102 -12.206  1.00  0.00     0.166 HD
ENDBRANCH   9  10
ENDBRANCH   5   9
ENDBRANCH   4   5
BRANCH   3  17
HETATM   17  C           1     -20.763  -5.230  -7.541  0.00  0.00     0.275 C 
BRANCH  17  18
HETATM   18  C           1     -20.324  -5.703  -6.161  0.00  0.00     0.046 C 
BRANCH  18  19
HETATM   19  C           1     -21.065  -6.984  -5.804  0.00  0.00    -0.020 C 
HETATM   20  C           1     -20.121  -7.933  -5.077  0.00  0.00     0.009 C 
HETATM   21  C           1     -22.245  -6.652  -4.899  0.00  0.00     0.009 C 
ENDBRANCH  18  19
ENDBRANCH  17  18
BRANCH  17  22
HETATM   22  N           1     -19.556  -4.841  -8.342  0.00  0.00    -0.066 N 
HETATM   23  H           1     -18.873  -4.345  -7.723  0.00  0.00     0.275 HD
HETATM   24  H           1     -19.843  -4.206  -9.120  0.00  0.00     0.275 HD
HETATM   25  H           1     -19.108  -5.698  -8.738  0.00  0.00     0.275 HD
ENDBRANCH  17  22
ENDBRANCH   3  17
TORSDOF 8
ENDMDL
MODEL 3
REMARK VINA RESULT:      -6.7     11.721     13.489
REMARK  8 active torsions:
REMARK  status: ('A' for Active; 'I' for Inactive)
REMARK    1  A    between atoms: C_3  and  C_9 
REMARK    2  A    between atoms: C_3  and  C_21 
REMARK    3  A    between atoms: C_3  and  N_25 
REMARK    4  A    between atoms: C_7  and  C_8 
REMARK    5  A    between atoms: C_8  and  C_23 
REMARK    6  A    between atoms: C_10  and  C_21 
REMARK    7  A    between atoms: N_11  and  C_23 
REMARK    8  A    between atoms: C_23  and  C_24 
REMARK       I    between atoms: C_24  and  N_25 
ROOT
HETATM    1  H           1     -35.043  -1.507 -13.900  0.00  0.00     0.163 HD
HETATM    2  O           1     -36.121  -2.699 -11.570  0.00  0.00    -0.271 OA
HETATM    3  C           1     -35.080  -2.226 -11.960  0.00  0.00     0.249 C 
HETATM    4  N           1     -35.087  -1.252 -12.922  0.00  0.00    -0.344 N 
ENDROOT
BRANCH   4   5
HETATM    5  C           1     -35.158   0.144 -12.539  0.00  0.00     0.191 C 
BRANCH   5   6
HETATM    6  C           1     -36.385   0.370 -11.690  0.00  0.00     0.197 C 
HETATM    7  O           1     -36.265   0.735 -10.501  0.00  0.00    -0.646 OA
HETATM    8  O           1     -37.523   0.194 -12.178  0.00  0.00    -0.646 OA
ENDBRANCH   5   6
BRANCH   5   9
HETATM    9  C           1     -35.239   1.010 -13.789  0.00  0.00     0.094 C 
BRANCH   9  10
HETATM   10  C           1     -36.051   0.306 -14.831  0.00  0.00     0.028 A 
HETATM   11  C           1     -35.534  -0.520 -15.800  0.00  0.00     0.114 A 
HETATM   12  N           1     -36.616  -0.939 -16.523  0.00  0.00    -0.360 N 
HETATM   13  C           1     -37.725  -0.360 -15.975  0.00  0.00     0.180 A 
HETATM   14  H           1     -36.597  -1.587 -17.350  0.00  0.00     0.166 HD
HETATM   15  N           1     -37.414   0.399 -14.950  0.00  0.00    -0.354 N 
ATOM     16  HN          1     -38.051   0.942 -14.368  1.00  0.00     0.166 HD
ENDBRANCH   9  10
ENDBRANCH   5   9
ENDBRANCH   4   5
BRANCH   3  17
HETATM   17  C           1     -33.772  -2.710 -11.385  0.00  0.00     0.275 C 
BRANCH  17  18
HETATM   18  C           1     -34.004  -3.997 -10.603  0.00  0.00     0.046 C 
BRANCH  18  19
HETATM   19  C           1     -33.655  -5.193 -11.478  0.00  0.00    -0.020 C 
HETATM   20  C           1     -32.197  -5.099 -11.910  0.00  0.00     0.009 C 
HETATM   21  C           1     -33.867  -6.478 -10.689  0.00  0.00     0.009 C 
ENDBRANCH  18  19
ENDBRANCH  17  18
BRANCH  17  22
HETATM   22  N           1     -33.212  -1.663 -10.468  0.00  0.00    -0.066 N 
HETATM   23  H           1     -33.926  -1.418  -9.743  0.00  0.00     0.275 HD
HETATM   24  H           1     -32.970  -0.809 -11.019  0.00  0.00     0.275 HD
HETATM   25  H           1     -32.353  -2.031 -10.001  0.00  0.00     0.275 HD
ENDBRANCH  17  22
ENDBRANCH   3  17
TORSDOF 8
ENDMDL
MODEL 4
REMARK VINA RESULT:      -6.4      2.300      3.565
REMARK  8 active torsions:
REMARK  status: ('A' for Active; 'I' for Inactive)
REMARK    1  A    between atoms: C_3  and  C_9 
REMARK    2  A    between atoms: C_3  and  C_21 
REMARK    3  A    between atoms: C_3  and  N_25 
REMARK    4  A    between atoms: C_7  and  C_8 
REMARK    5  A    between atoms: C_8  and  C_23 
REMARK    6  A    between atoms: C_10  and  C_21 
REMARK    7  A    between atoms: N_11  and  C_23 
REMARK    8  A    between atoms: C_23  and  C_24 
REMARK       I    between atoms: C_24  and  N_25 
ROOT
HETATM    1  H           1     -21.593  -3.068  -7.585  0.00  0.00     0.163 HD
HETATM    2  O           1     -19.068  -4.346  -7.667  0.00  0.00    -0.271 OA
HETATM    3  C           1     -20.231  -4.623  -7.489  0.00  0.00     0.249 C 
HETATM    4  N           1     -21.213  -3.869  -8.073  0.00  0.00    -0.344 N 
ENDROOT
BRANCH   4   5
HETATM    5  C           1     -21.707  -4.217  -9.391  0.00  0.00     0.191 C 
BRANCH   5   6
HETATM    6  C           1     -20.632  -3.953 -10.416  0.00  0.00     0.197 C 
HETATM    7  O           1     -19.943  -4.897 -10.858  0.00  0.00    -0.646 OA
HETATM    8  O           1     -20.431  -2.788 -10.825  0.00  0.00    -0.646 OA
ENDBRANCH   5   6
BRANCH   5   9
HETATM    9  C           1     -22.933  -3.373  -9.711  0.00  0.00     0.094 C 
BRANCH   9  10
HETATM   10  C           1     -23.287  -3.535 -11.157  0.00  0.00     0.028 A 
HETATM   11  C           1     -23.641  -4.726 -11.746  0.00  0.00     0.114 A 
HETATM   12  N           1     -23.876  -4.416 -13.057  0.00  0.00    -0.360 N 
HETATM   13  C           1     -23.657  -3.077 -13.208  0.00  0.00     0.180 A 
HETATM   14  H           1     -24.169  -5.087 -13.810  0.00  0.00     0.166 HD
HETATM   15  N           1     -23.299  -2.517 -12.076  0.00  0.00    -0.354 N 
ATOM     16  HN          1     -23.077  -1.535 -11.914  1.00  0.00     0.166 HD
ENDBRANCH   9  10
ENDBRANCH   5   9
ENDBRANCH   4   5
BRANCH   3  17
HETATM   17  C           1     -20.599  -5.803  -6.623  0.00  0.00     0.275 C 
BRANCH  17  18
HETATM   18  C           1     -20.632  -5.372  -5.163  0.00  0.00     0.046 C 
BRANCH  18  19
HETATM   19  C           1     -21.266  -6.472  -4.323  0.00  0.00    -0.020 C 
HETATM   20  C           1     -21.370  -6.010  -2.875  0.00  0.00     0.009 C 
HETATM   21  C           1     -22.659  -6.780  -4.858  0.00  0.00     0.009 C 
ENDBRANCH  18  19
ENDBRANCH  17  18
BRANCH  17  22
HETATM   22  N           1     -19.580  -6.889  -6.800  0.00  0.00    -0.066 N 
HETATM   23  H           1     -20.017  -7.815  -6.583  0.00  0.00     0.275 HD
HETATM   24  H           1     -18.778  -6.724  -6.153  0.00  0.00     0.275 HD
HETATM   25  H           1     -19.237  -6.889  -7.787  0.00  0.00     0.275 HD
ENDBRANCH  17  22
ENDBRANCH   3  17
TORSDOF 8
ENDMDL
MODEL 5
REMARK VINA RESULT:      -6.4      3.211      4.880
REMARK  8 active torsions:
REMARK  status: ('A' for Active; 'I' for Inactive)
REMARK    1  A    between atoms: C_3  and  C_9 
REMARK    2  A    between atoms: C_3  and  C_21 
REMARK    3  A    between atoms: C_3  and  N_25 
REMARK    4  A    between atoms: C_7  and  C_8 
REMARK    5  A    between atoms: C_8  and  C_23 
REMARK    6  A    between atoms: C_10  and  C_21 
REMARK    7  A    between atoms: N_11  and  C_23 
REMARK    8  A    between atoms: C_23  and  C_24 
REMARK       I    between atoms: C_24  and  N_25 
ROOT
HETATM    1  H           1     -23.027  -4.441  -5.955  0.00  0.00     0.163 HD
HETATM    2  O           1     -20.410  -4.939  -4.997  0.00  0.00    -0.271 OA
HETATM    3  C           1     -21.358  -5.548  -5.433  0.00  0.00     0.249 C 
HETATM    4  N           1     -22.221  -4.942  -6.306  0.00  0.00    -0.344 N 
ENDROOT
BRANCH   4   5
HETATM    5  C           1     -21.978  -5.017  -7.734  0.00  0.00     0.191 C 
BRANCH   5   6
HETATM    6  C           1     -20.495  -4.915  -7.997  0.00  0.00     0.197 C 
HETATM    7  O           1     -19.948  -3.794  -8.064  0.00  0.00    -0.646 OA
HETATM    8  O           1     -19.815  -5.953  -8.147  0.00  0.00    -0.646 OA
ENDBRANCH   5   6
BRANCH   5   9
HETATM    9  C           1     -22.697  -3.870  -8.431  0.00  0.00     0.094 C 
BRANCH   9  10
HETATM   10  C           1     -22.656  -4.082  -9.912  0.00  0.00     0.028 A 
HETATM   11  C           1     -23.525  -4.885 -10.612  0.00  0.00     0.114 A 
HETATM   12  N           1     -23.127  -4.787 -11.916  0.00  0.00    -0.360 N 
HETATM   13  C           1     -22.051  -3.946 -11.954  0.00  0.00     0.180 A 
HETATM   14  H           1     -23.566  -5.270 -12.737  0.00  0.00     0.166 HD
HETATM   15  N           1     -21.743  -3.504 -10.757  0.00  0.00    -0.354 N 
ATOM     16  HN          1     -20.986  -2.868 -10.508  1.00  0.00     0.166 HD
ENDBRANCH   9  10
ENDBRANCH   5   9
ENDBRANCH   4   5
BRANCH   3  17
HETATM   17  C           1     -21.591  -6.979  -5.013  0.00  0.00     0.275 C 
BRANCH  17  18
HETATM   18  C           1     -20.796  -7.275  -3.748  0.00  0.00     0.046 C 
BRANCH  18  19
HETATM   19  C           1     -21.755  -7.502  -2.587  0.00  0.00    -0.020 C 
HETATM   20  C           1     -21.082  -8.374  -1.535  0.00  0.00     0.009 C 
HETATM   21  C           1     -22.130  -6.161  -1.969  0.00  0.00     0.009 C 
ENDBRANCH  18  19
ENDBRANCH  17  18
BRANCH  17  22
HETATM   22  N           1     -21.144  -7.900  -6.110  0.00  0.00    -0.066 N 
HETATM   23  H           1     -20.350  -8.488  -5.768  0.00  0.00     0.275 HD
HETATM   24  H           1     -20.830  -7.337  -6.932  0.00  0.00     0.275 HD
HETATM   25  H           1     -21.938  -8.517  -6.393  0.00  0.00     0.275 HD
ENDBRANCH  17  22
ENDBRANCH   3  17
TORSDOF 8
ENDMDL
MODEL 6
REMARK VINA RESULT:      -6.4      3.120      7.438
REMARK  8 active torsions:
REMARK  status: ('A' for Active; 'I' for Inactive)
REMARK    1  A    between atoms: C_3  and  C_9 
REMARK    2  A    between atoms: C_3  and  C_21 
REMARK    3  A    between atoms: C_3  and  N_25 
REMARK    4  A    between atoms: C_7  and  C_8 
REMARK    5  A    between atoms: C_8  and  C_23 
REMARK    6  A    between atoms: C_10  and  C_21 
REMARK    7  A    between atoms: N_11  and  C_23 
REMARK    8  A    between atoms: C_23  and  C_24 
REMARK       I    between atoms: C_24  and  N_25 
ROOT
HETATM    1  H           1     -21.488  -3.060  -6.467  0.00  0.00     0.163 HD
HETATM    2  O           1     -23.901  -4.536  -6.562  0.00  0.00    -0.271 OA
HETATM    3  C           1     -22.884  -4.399  -7.200  0.00  0.00     0.249 C 
HETATM    4  N           1     -21.723  -4.038  -6.572  0.00  0.00    -0.344 N 
ENDROOT
BRANCH   4   5
HETATM    5  C           1     -20.831  -5.058  -6.055  0.00  0.00     0.191 C 
BRANCH   5   6
HETATM    6  C           1     -19.766  -5.360  -7.081  0.00  0.00     0.197 C 
HETATM    7  O           1     -18.953  -4.474  -7.418  0.00  0.00    -0.646 OA
HETATM    8  O           1     -19.698  -6.499  -7.593  0.00  0.00    -0.646 OA
ENDBRANCH   5   6
BRANCH   5   9
HETATM    9  C           1     -21.625  -6.324  -5.759  0.00  0.00     0.094 C 
BRANCH   9  10
HETATM   10  C           1     -21.510  -6.656  -4.304  0.00  0.00     0.028 A 
HETATM   11  C           1     -20.667  -7.609  -3.784  0.00  0.00     0.114 A 
HETATM   12  N           1     -20.887  -7.578  -2.435  0.00  0.00    -0.360 N 
HETATM   13  C           1     -21.838  -6.626  -2.196  0.00  0.00     0.180 A 
HETATM   14  H           1     -20.413  -8.177  -1.715  0.00  0.00     0.166 HD
HETATM   15  N           1     -22.234  -6.052  -3.308  0.00  0.00    -0.354 N 
ATOM     16  HN          1     -22.931  -5.315  -3.409  1.00  0.00     0.166 HD
ENDBRANCH   9  10
ENDBRANCH   5   9
ENDBRANCH   4   5
BRANCH   3  17
HETATM   17  C           1     -22.895  -4.627  -8.692  0.00  0.00     0.275 C 
BRANCH  17  18
HETATM   18  C           1     -21.929  -3.659  -9.362  0.00  0.00     0.046 C 
BRANCH  18  19
HETATM   19  C           1     -21.552  -4.189 -10.739  0.00  0.00    -0.020 C 
HETATM   20  C           1     -21.855  -3.132 -11.792  0.00  0.00     0.009 C 
HETATM   21  C           1     -20.065  -4.519 -10.766  0.00  0.00     0.009 C 
ENDBRANCH  18  19
ENDBRANCH  17  18
BRANCH  17  22
HETATM   22  N           1     -24.280  -4.397  -9.222  0.00  0.00    -0.066 N 
HETATM   23  H           1     -24.980  -4.646  -8.486  0.00  0.00     0.275 HD
HETATM   24  H           1     -24.435  -4.994 -10.065  0.00  0.00     0.275 HD
HETATM   25  H           1     -24.390  -3.391  -9.482  0.00  0.00     0.275 HD
ENDBRANCH  17  22
ENDBRANCH   3  17
TORSDOF 8
ENDMDL
MODEL 7
REMARK VINA RESULT:      -6.1      5.138      7.526
REMARK  8 active torsions:
REMARK  status: ('A' for Active; 'I' for Inactive)
REMARK    1  A    between atoms: C_3  and  C_9 
REMARK    2  A    between atoms: C_3  and  C_21 
REMARK    3  A    between atoms: C_3  and  N_25 
REMARK    4  A    between atoms: C_7  and  C_8 
REMARK    5  A    between atoms: C_8  and  C_23 
REMARK    6  A    between atoms: C_10  and  C_21 
REMARK    7  A    between atoms: N_11  and  C_23 
REMARK    8  A    between atoms: C_23  and  C_24 
REMARK       I    between atoms: C_24  and  N_25 
ROOT
HETATM    1  H           1     -23.481  -6.136  -4.302  0.00  0.00     0.163 HD
HETATM    2  O           1     -21.249  -5.400  -2.725  0.00  0.00    -0.271 OA
HETATM    3  C           1     -21.761  -6.394  -3.181  0.00  0.00     0.249 C 
HETATM    4  N           1     -22.487  -6.322  -4.339  0.00  0.00    -0.344 N 
ENDROOT
BRANCH   4   5
HETATM    5  C           1     -21.832  -6.512  -5.619  0.00  0.00     0.191 C 
BRANCH   5   6
HETATM    6  C           1     -20.954  -7.739  -5.556  0.00  0.00     0.197 C 
HETATM    7  O           1     -19.711  -7.618  -5.539  0.00  0.00    -0.646 OA
HETATM    8  O           1     -21.473  -8.877  -5.520  0.00  0.00    -0.646 OA
ENDBRANCH   5   6
BRANCH   5   9
HETATM    9  C           1     -20.977  -5.292  -5.936  0.00  0.00     0.094 C 
BRANCH   9  10
HETATM   10  C           1     -21.383  -4.731  -7.263  0.00  0.00     0.028 A 
HETATM   11  C           1     -20.644  -4.839  -8.417  0.00  0.00     0.114 A 
HETATM   12  N           1     -21.380  -4.192  -9.371  0.00  0.00    -0.360 N 
HETATM   13  C           1     -22.513  -3.725  -8.768  0.00  0.00     0.180 A 
HETATM   14  H           1     -21.120  -4.075 -10.382  0.00  0.00     0.166 HD
HETATM   15  N           1     -22.542  -4.036  -7.493  0.00  0.00    -0.354 N 
ATOM     16  HN          1     -23.272  -3.808  -6.818  1.00  0.00     0.166 HD
ENDBRANCH   9  10
ENDBRANCH   5   9
ENDBRANCH   4   5
BRANCH   3  17
HETATM   17  C           1     -21.599  -7.717  -2.473  0.00  0.00     0.275 C 
BRANCH  17  18
HETATM   18  C           1     -22.049  -7.579  -1.025  0.00  0.00     0.046 C 
BRANCH  18  19
HETATM   19  C           1     -21.768  -8.875  -0.279  0.00  0.00    -0.020 C 
HETATM   20  C           1     -21.294  -8.557   1.133  0.00  0.00     0.009 C 
HETATM   21  C           1     -23.041  -9.709  -0.211  0.00  0.00     0.009 C 
ENDBRANCH  18  19
ENDBRANCH  17  18
BRANCH  17  22
HETATM   22  N           1     -20.157  -8.129  -2.510  0.00  0.00    -0.066 N 
HETATM   23  H           1     -19.679  -7.800  -1.640  0.00  0.00     0.275 HD
HETATM   24  H           1     -19.693  -7.703  -3.343  0.00  0.00     0.275 HD
HETATM   25  H           1     -20.093  -9.170  -2.570  0.00  0.00     0.275 HD
ENDBRANCH  17  22
ENDBRANCH   3  17
TORSDOF 8
ENDMDL
MODEL 8
REMARK VINA RESULT:      -5.9      7.555     10.261
REMARK  8 active torsions:
REMARK  status: ('A' for Active; 'I' for Inactive)
REMARK    1  A    between atoms: C_3  and  C_9 
REMARK    2  A    between atoms: C_3  and  C_21 
REMARK    3  A    between atoms: C_3  and  N_25 
REMARK    4  A    between atoms: C_7  and  C_8 
REMARK    5  A    between atoms: C_8  and  C_23 
REMARK    6  A    between atoms: C_10  and  C_21 
REMARK    7  A    between atoms: N_11  and  C_23 
REMARK    8  A    between atoms: C_23  and  C_24 
REMARK       I    between atoms: C_24  and  N_25 
ROOT
HETATM    1  H           1     -22.524  -8.096  -4.086  0.00  0.00     0.163 HD
HETATM    2  O           1     -22.269  -5.885  -2.338  0.00  0.00    -0.271 OA
HETATM    3  C           1     -21.891  -7.029  -2.431  0.00  0.00     0.249 C 
HETATM    4  N           1     -21.747  -7.606  -3.663  0.00  0.00    -0.344 N 
ENDROOT
BRANCH   4   5
HETATM    5  C           1     -20.480  -7.513  -4.363  0.00  0.00     0.191 C 
BRANCH   5   6
HETATM    6  C           1     -20.620  -6.568  -5.532  0.00  0.00     0.197 C 
HETATM    7  O           1     -20.809  -7.019  -6.681  0.00  0.00    -0.646 OA
HETATM    8  O           1     -20.548  -5.333  -5.348  0.00  0.00    -0.646 OA
ENDBRANCH   5   6
BRANCH   5   9
HETATM    9  C           1     -20.079  -8.892  -4.871  0.00  0.00     0.094 C 
BRANCH   9  10
HETATM   10  C           1     -18.751  -9.269  -4.292  0.00  0.00     0.028 A 
HETATM   11  C           1     -17.677  -9.716  -5.025  0.00  0.00     0.114 A 
HETATM   12  N           1     -16.689  -9.940  -4.106  0.00  0.00    -0.360 N 
HETATM   13  C           1     -17.194  -9.626  -2.877  0.00  0.00     0.180 A 
HETATM   14  H           1     -15.720 -10.289  -4.310  0.00  0.00     0.166 HD
HETATM   15  N           1     -18.439  -9.218  -2.958  0.00  0.00    -0.354 N 
ATOM     16  HN          1     -19.045  -8.926  -2.191  1.00  0.00     0.166 HD
ENDBRANCH   9  10
ENDBRANCH   5   9
ENDBRANCH   4   5
BRANCH   3  17
HETATM   17  C           1     -21.578  -7.821  -1.185  0.00  0.00     0.275 C 
BRANCH  17  18
HETATM   18  C           1     -21.958  -9.281  -1.401  0.00  0.00     0.046 C 
BRANCH  18  19
HETATM   19  C           1     -22.450  -9.877  -0.089  0.00  0.00    -0.020 C 
HETATM   20  C           1     -23.717 -10.684  -0.341  0.00  0.00     0.009 C 
HETATM   21  C           1     -21.375 -10.788   0.489  0.00  0.00     0.009 C 
ENDBRANCH  18  19
ENDBRANCH  17  18
BRANCH  17  22
HETATM   22  N           1     -22.360  -7.268  -0.031  0.00  0.00    -0.066 N 
HETATM   23  H           1     -23.278  -6.904  -0.376  0.00  0.00     0.275 HD
HETATM   24  H           1     -21.823  -6.490   0.413  0.00  0.00     0.275 HD
HETATM   25  H           1     -22.527  -8.022   0.672  0.00  0.00     0.275 HD
ENDBRANCH  17  22
ENDBRANCH   3  17
TORSDOF 8
ENDMDL
MODEL 9
REMARK VINA RESULT:      -5.8      8.477     10.871
REMARK  8 active torsions:
REMARK  status: ('A' for Active; 'I' for Inactive)
REMARK    1  A    between atoms: C_3  and  C_9 
REMARK    2  A    between atoms: C_3  and  C_21 
REMARK    3  A    between atoms: C_3  and  N_25 
REMARK    4  A    between atoms: C_7  and  C_8 
REMARK    5  A    between atoms: C_8  and  C_23 
REMARK    6  A    between atoms: C_10  and  C_21 
REMARK    7  A    between atoms: N_11  and  C_23 
REMARK    8  A    between atoms: C_23  and  C_24 
REMARK       I    between atoms: C_24  and  N_25 
ROOT
HETATM    1  H           1     -19.721  -7.443  -4.784  0.00  0.00     0.163 HD
HETATM    2  O           1     -20.883  -9.727  -5.985  0.00  0.00    -0.271 OA
HETATM    3  C           1     -20.241  -9.433  -5.005  0.00  0.00     0.249 C 
HETATM    4  N           1     -20.342  -8.177  -4.470  0.00  0.00    -0.344 N 
ENDROOT
BRANCH   4   5
HETATM    5  C           1     -21.339  -7.900  -3.454  0.00  0.00     0.191 C 
BRANCH   5   6
HETATM    6  C           1     -21.852  -6.491  -3.625  0.00  0.00     0.197 C 
HETATM    7  O           1     -22.360  -6.139  -4.711  0.00  0.00    -0.646 OA
HETATM    8  O           1     -21.769  -5.677  -2.679  0.00  0.00    -0.646 OA
ENDBRANCH   5   6
BRANCH   5   9
HETATM    9  C           1     -20.710  -8.048  -2.074  0.00  0.00     0.094 C 
BRANCH   9  10
HETATM   10  C           1     -21.774  -8.381  -1.075  0.00  0.00     0.028 A 
HETATM   11  C           1     -22.353  -9.619  -0.933  0.00  0.00     0.114 A 
HETATM   12  N           1     -23.259  -9.473   0.081  0.00  0.00    -0.360 N 
HETATM   13  C           1     -23.195  -8.175   0.503  0.00  0.00     0.180 A 
HETATM   14  H           1     -23.889 -10.221   0.463  0.00  0.00     0.166 HD
HETATM   15  N           1     -22.306  -7.491  -0.178  0.00  0.00    -0.354 N 
ATOM     16  HN          1     -22.063  -6.507  -0.064  1.00  0.00     0.166 HD
ENDBRANCH   9  10
ENDBRANCH   5   9
ENDBRANCH   4   5
BRANCH   3  17
HETATM   17  C           1     -19.327 -10.453  -4.370  0.00  0.00     0.275 C 
BRANCH  17  18
HETATM   18  C           1     -17.902  -9.916  -4.348  0.00  0.00     0.046 C 
BRANCH  18  19
HETATM   19  C           1     -17.470  -9.680  -2.908  0.00  0.00    -0.020 C 
HETATM   20  C           1     -17.875 -10.873  -2.053  0.00  0.00     0.009 C 
HETATM   21  C           1     -15.957  -9.508  -2.853  0.00  0.00     0.009 C 
ENDBRANCH  18  19
ENDBRANCH  17  18
BRANCH  17  22
HETATM   22  N           1     -19.369 -11.724  -5.166  0.00  0.00    -0.066 N 
HETATM   23  H           1     -18.713 -11.648  -5.977  0.00  0.00     0.275 HD
HETATM   24  H           1     -20.339 -11.884  -5.517  0.00  0.00     0.275 HD
HETATM   25  H           1     -19.081 -12.525  -4.559  0.00  0.00     0.275 HD
ENDBRANCH  17  22
ENDBRANCH   3  17
TORSDOF 8
ENDMDL
