MODEL 1
REMARK VINA RESULT:      -5.9      0.000      0.000
REMARK  10 active torsions:
REMARK  status: ('A' for Active; 'I' for Inactive)
REMARK    1  A    between atoms: C_6  and  C_21 
REMARK    2  A    between atoms: N_9  and  C_21 
REMARK       I    between atoms: N_9  and  C_10 
REMARK    3  A    between atoms: C_10  and  C_11 
REMARK    4  A    between atoms: C_11  and  C_12 
REMARK    5  A    between atoms: C_11  and  N_20 
REMARK    6  A    between atoms: C_12  and  C_13 
REMARK    7  A    between atoms: C_13  and  C_19 
REMARK    8  A    between atoms: Se_14  and  C_16 
REMARK    9  A    between atoms: C_16  and  C_22 
REMARK   10  A    between atoms: C_21  and  C_22 
ROOT
HETATM    1  H           1     -22.333  -5.874  -9.220  0.00  0.00     0.163 HD
HETATM    2  N           1     -22.229  -4.932  -8.862  0.00  0.00    -0.345 N 
HETATM    3  C           1     -21.646  -4.725  -7.641  0.00  0.00     0.249 C 
HETATM    4  O           1     -21.520  -3.601  -7.214  0.00  0.00    -0.271 OA
ENDROOT
BRANCH   3   5
HETATM    5  C           1     -21.160  -5.900  -6.828  0.00  0.00     0.275 C 
BRANCH   5   6
HETATM    6  C           1     -21.202  -5.544  -5.347  0.00  0.00     0.053 C 
BRANCH   6   7
HETATM    7  C           1     -21.878  -6.668  -4.574  0.00  0.00     0.115 C 
BRANCH   7   8
HETATM    8  C           1     -20.830  -7.513  -3.892  0.00  0.00     0.172 C 
HETATM    9  O           1     -20.826  -7.619  -2.647  0.00  0.00    -0.648 OA
HETATM   10  O           1     -19.966  -8.106  -4.573  0.00  0.00    -0.648 OA
ENDBRANCH   7   8
ENDBRANCH   6   7
ENDBRANCH   5   6
BRANCH   5  11
HETATM   11  N           1     -19.752  -6.231  -7.223  0.00  0.00    -0.066 N 
HETATM   12  H           1     -19.148  -6.262  -6.370  0.00  0.00     0.275 HD
HETATM   13  H           1     -19.733  -7.163  -7.695  0.00  0.00     0.275 HD
HETATM   14  H           1     -19.392  -5.500  -7.877  0.00  0.00     0.275 HD
ENDBRANCH   5  11
ENDBRANCH   3   5
BRANCH   2  15
HETATM   15  C           1     -22.695  -3.803  -9.644  0.00  0.00     0.185 C 
BRANCH  15  16
HETATM   16  C           1     -24.203  -3.814  -9.691  0.00  0.00     0.196 C 
HETATM   17  O           1     -24.811  -4.867  -9.979  0.00  0.00    -0.646 OA
HETATM   18  O           1     -24.844  -2.771  -9.439  0.00  0.00    -0.646 OA
ENDBRANCH  15  16
BRANCH  15  19
HETATM   19  C           1     -22.142  -3.905 -11.060  0.00  0.00     0.036 C 
BRANCH  19  20
HETATM   20  C           1     -22.623  -2.715 -11.880  0.00  0.00     0.003 C 
BRANCH  20  21
HETATM   21 Se           1     -23.883  -3.324 -13.236  0.00  0.00     0.000 Se
HETATM   22  C           1     -22.983  -2.423 -14.711  0.00  0.00     0.000 C 
ENDBRANCH  20  21
ENDBRANCH  19  20
ENDBRANCH  15  19
ENDBRANCH   2  15
TORSDOF 10
ENDMDL
MODEL 2
REMARK VINA RESULT:      -5.7      3.280      7.681
REMARK  10 active torsions:
REMARK  status: ('A' for Active; 'I' for Inactive)
REMARK    1  A    between atoms: C_6  and  C_21 
REMARK    2  A    between atoms: N_9  and  C_21 
REMARK       I    between atoms: N_9  and  C_10 
REMARK    3  A    between atoms: C_10  and  C_11 
REMARK    4  A    between atoms: C_11  and  C_12 
REMARK    5  A    between atoms: C_11  and  N_20 
REMARK    6  A    between atoms: C_12  and  C_13 
REMARK    7  A    between atoms: C_13  and  C_19 
REMARK    8  A    between atoms: Se_14  and  C_16 
REMARK    9  A    between atoms: C_16  and  C_22 
REMARK   10  A    between atoms: C_21  and  C_22 
ROOT
HETATM    1  H           1     -21.185  -5.387  -9.657  0.00  0.00     0.163 HD
HETATM    2  N           1     -21.723  -4.891  -8.956  0.00  0.00    -0.345 N 
HETATM    3  C           1     -22.917  -4.313  -9.294  0.00  0.00     0.249 C 
HETATM    4  O           1     -23.559  -3.721  -8.458  0.00  0.00    -0.271 OA
ENDROOT
BRANCH   3   5
HETATM    5  C           1     -23.432  -4.414 -10.709  0.00  0.00     0.275 C 
BRANCH   5   6
HETATM    6  C           1     -22.370  -3.902 -11.673  0.00  0.00     0.053 C 
BRANCH   6   7
HETATM    7  C           1     -22.919  -2.713 -12.449  0.00  0.00     0.115 C 
BRANCH   7   8
HETATM    8  C           1     -23.348  -3.162 -13.824  0.00  0.00     0.172 C 
HETATM    9  O           1     -24.371  -3.867 -13.960  0.00  0.00    -0.648 OA
HETATM   10  O           1     -22.680  -2.829 -14.827  0.00  0.00    -0.648 OA
ENDBRANCH   7   8
ENDBRANCH   6   7
ENDBRANCH   5   6
BRANCH   5  11
HETATM   11  N           1     -24.674  -3.586 -10.848  0.00  0.00    -0.066 N 
HETATM   12  H           1     -24.515  -2.643 -10.426  0.00  0.00     0.275 HD
HETATM   13  H           1     -24.908  -3.478 -11.861  0.00  0.00     0.275 HD
HETATM   14  H           1     -25.465  -4.059 -10.355  0.00  0.00     0.275 HD
ENDBRANCH   5  11
ENDBRANCH   3   5
BRANCH   2  15
HETATM   15  C           1     -21.229  -4.794  -7.597  0.00  0.00     0.185 C 
BRANCH  15  16
HETATM   16  C           1     -19.800  -4.310  -7.616  0.00  0.00     0.196 C 
HETATM   17  O           1     -18.994  -4.708  -6.748  0.00  0.00    -0.646 OA
HETATM   18  O           1     -19.422  -3.513  -8.501  0.00  0.00    -0.646 OA
ENDBRANCH  15  16
BRANCH  15  19
HETATM   19  C           1     -21.292  -6.166  -6.937  0.00  0.00     0.036 C 
BRANCH  19  20
HETATM   20  C           1     -21.982  -6.048  -5.584  0.00  0.00     0.003 C 
BRANCH  20  21
HETATM   21 Se           1     -21.237  -7.365  -4.356  0.00  0.00     0.000 Se
HETATM   22  C           1     -21.658  -6.345  -2.749  0.00  0.00     0.000 C 
ENDBRANCH  20  21
ENDBRANCH  19  20
ENDBRANCH  15  19
ENDBRANCH   2  15
TORSDOF 10
ENDMDL
MODEL 3
REMARK VINA RESULT:      -5.6      3.237      7.726
REMARK  10 active torsions:
REMARK  status: ('A' for Active; 'I' for Inactive)
REMARK    1  A    between atoms: C_6  and  C_21 
REMARK    2  A    between atoms: N_9  and  C_21 
REMARK       I    between atoms: N_9  and  C_10 
REMARK    3  A    between atoms: C_10  and  C_11 
REMARK    4  A    between atoms: C_11  and  C_12 
REMARK    5  A    between atoms: C_11  and  N_20 
REMARK    6  A    between atoms: C_12  and  C_13 
REMARK    7  A    between atoms: C_13  and  C_19 
REMARK    8  A    between atoms: Se_14  and  C_16 
REMARK    9  A    between atoms: C_16  and  C_22 
REMARK   10  A    between atoms: C_21  and  C_22 
ROOT
HETATM    1  H           1     -22.397  -6.675  -6.654  0.00  0.00     0.163 HD
HETATM    2  N           1     -21.576  -6.082  -6.644  0.00  0.00    -0.345 N 
HETATM    3  C           1     -21.469  -5.049  -7.536  0.00  0.00     0.249 C 
HETATM    4  O           1     -20.490  -4.340  -7.524  0.00  0.00    -0.271 OA
ENDROOT
BRANCH   3   5
HETATM    5  C           1     -22.573  -4.794  -8.533  0.00  0.00     0.275 C 
BRANCH   5   6
HETATM    6  C           1     -22.039  -3.937  -9.674  0.00  0.00     0.053 C 
BRANCH   6   7
HETATM    7  C           1     -22.724  -4.336 -10.973  0.00  0.00     0.115 C 
BRANCH   7   8
HETATM    8  C           1     -23.724  -3.276 -11.363  0.00  0.00     0.172 C 
HETATM    9  O           1     -23.450  -2.460 -12.268  0.00  0.00    -0.648 OA
HETATM   10  O           1     -24.828  -3.215 -10.779  0.00  0.00    -0.648 OA
ENDBRANCH   7   8
ENDBRANCH   6   7
ENDBRANCH   5   6
BRANCH   5  11
HETATM   11  N           1     -23.702  -4.077  -7.856  0.00  0.00    -0.066 N 
HETATM   12  H           1     -23.353  -3.178  -7.454  0.00  0.00     0.275 HD
HETATM   13  H           1     -24.455  -3.877  -8.553  0.00  0.00     0.275 HD
HETATM   14  H           1     -24.085  -4.676  -7.089  0.00  0.00     0.275 HD
ENDBRANCH   5  11
ENDBRANCH   3   5
BRANCH   2  15
HETATM   15  C           1     -20.517  -6.325  -5.686  0.00  0.00     0.185 C 
BRANCH  15  16
HETATM   16  C           1     -20.345  -7.812  -5.495  0.00  0.00     0.196 C 
HETATM   17  O           1     -21.120  -8.609  -6.066  0.00  0.00    -0.646 OA
HETATM   18  O           1     -19.426  -8.247  -4.768  0.00  0.00    -0.646 OA
ENDBRANCH  15  16
BRANCH  15  19
HETATM   19  C           1     -20.881  -5.682  -4.353  0.00  0.00     0.036 C 
BRANCH  19  20
HETATM   20  C           1     -22.126  -6.352  -3.789  0.00  0.00     0.003 C 
BRANCH  20  21
HETATM   21 Se           1     -22.071  -6.294  -1.841  0.00  0.00     0.000 Se
HETATM   22  C           1     -21.567  -8.165  -1.636  0.00  0.00     0.000 C 
ENDBRANCH  20  21
ENDBRANCH  19  20
ENDBRANCH  15  19
ENDBRANCH   2  15
TORSDOF 10
ENDMDL
MODEL 4
REMARK VINA RESULT:      -5.5     19.010     20.472
REMARK  10 active torsions:
REMARK  status: ('A' for Active; 'I' for Inactive)
REMARK    1  A    between atoms: C_6  and  C_21 
REMARK    2  A    between atoms: N_9  and  C_21 
REMARK       I    between atoms: N_9  and  C_10 
REMARK    3  A    between atoms: C_10  and  C_11 
REMARK    4  A    between atoms: C_11  and  C_12 
REMARK    5  A    between atoms: C_11  and  N_20 
REMARK    6  A    between atoms: C_12  and  C_13 
REMARK    7  A    between atoms: C_13  and  C_19 
REMARK    8  A    between atoms: Se_14  and  C_16 
REMARK    9  A    between atoms: C_16  and  C_22 
REMARK   10  A    between atoms: C_21  and  C_22 
ROOT
HETATM    1  H           1     -12.541   7.202 -18.853  0.00  0.00     0.163 HD
HETATM    2  N           1     -12.392   7.596 -19.774  0.00  0.00    -0.345 N 
HETATM    3  C           1     -12.525   6.806 -20.884  0.00  0.00     0.249 C 
HETATM    4  O           1     -12.349   7.276 -21.984  0.00  0.00    -0.271 OA
ENDROOT
BRANCH   3   5
HETATM    5  C           1     -12.892   5.350 -20.736  0.00  0.00     0.275 C 
BRANCH   5   6
HETATM    6  C           1     -12.057   4.728 -19.623  0.00  0.00     0.053 C 
BRANCH   6   7
HETATM    7  C           1     -10.634   4.508 -20.117  0.00  0.00     0.115 C 
BRANCH   7   8
HETATM    8  C           1      -9.708   5.486 -19.438  0.00  0.00     0.172 C 
HETATM    9  O           1      -9.780   5.662 -18.203  0.00  0.00    -0.648 OA
HETATM   10  O           1      -8.867   6.120 -20.112  0.00  0.00    -0.648 OA
ENDBRANCH   7   8
ENDBRANCH   6   7
ENDBRANCH   5   6
BRANCH   5  11
HETATM   11  N           1     -12.621   4.633 -22.024  0.00  0.00    -0.066 N 
HETATM   12  H           1     -12.426   5.331 -22.778  0.00  0.00     0.275 HD
HETATM   13  H           1     -11.792   4.009 -21.907  0.00  0.00     0.275 HD
HETATM   14  H           1     -13.456   4.062 -22.287  0.00  0.00     0.275 HD
ENDBRANCH   5  11
ENDBRANCH   3   5
BRANCH   2  15
HETATM   15  C           1     -12.041   8.995 -19.917  0.00  0.00     0.185 C 
BRANCH  15  16
HETATM   16  C           1     -10.603   9.196 -19.507  0.00  0.00     0.196 C 
HETATM   17  O           1      -9.771   9.623 -20.336  0.00  0.00    -0.646 OA
HETATM   18  O           1     -10.244   8.936 -18.339  0.00  0.00    -0.646 OA
ENDBRANCH  15  16
BRANCH  15  19
HETATM   19  C           1     -12.945   9.838 -19.026  0.00  0.00     0.036 C 
BRANCH  19  20
HETATM   20  C           1     -13.533  10.985 -19.838  0.00  0.00     0.003 C 
BRANCH  20  21
HETATM   21 Se           1     -15.062  11.736 -18.891  0.00  0.00     0.000 Se
HETATM   22  C           1     -14.875  10.578 -17.335  0.00  0.00     0.000 C 
ENDBRANCH  20  21
ENDBRANCH  19  20
ENDBRANCH  15  19
ENDBRANCH   2  15
TORSDOF 10
ENDMDL
MODEL 5
REMARK VINA RESULT:      -5.4      3.685      7.822
REMARK  10 active torsions:
REMARK  status: ('A' for Active; 'I' for Inactive)
REMARK    1  A    between atoms: C_6  and  C_21 
REMARK    2  A    between atoms: N_9  and  C_21 
REMARK       I    between atoms: N_9  and  C_10 
REMARK    3  A    between atoms: C_10  and  C_11 
REMARK    4  A    between atoms: C_11  and  C_12 
REMARK    5  A    between atoms: C_11  and  N_20 
REMARK    6  A    between atoms: C_12  and  C_13 
REMARK    7  A    between atoms: C_13  and  C_19 
REMARK    8  A    between atoms: Se_14  and  C_16 
REMARK    9  A    between atoms: C_16  and  C_22 
REMARK   10  A    between atoms: C_21  and  C_22 
ROOT
HETATM    1  H           1     -21.459  -7.333  -6.957  0.00  0.00     0.163 HD
HETATM    2  N           1     -21.022  -6.667  -6.330  0.00  0.00    -0.345 N 
HETATM    3  C           1     -20.909  -5.354  -6.699  0.00  0.00     0.249 C 
HETATM    4  O           1     -20.389  -4.560  -5.951  0.00  0.00    -0.271 OA
ENDROOT
BRANCH   3   5
HETATM    5  C           1     -21.434  -4.898  -8.037  0.00  0.00     0.275 C 
BRANCH   5   6
HETATM    6  C           1     -20.339  -4.145  -8.783  0.00  0.00     0.053 C 
BRANCH   6   7
HETATM    7  C           1     -20.202  -4.710 -10.190  0.00  0.00     0.115 C 
BRANCH   7   8
HETATM    8  C           1     -21.163  -4.003 -11.113  0.00  0.00     0.172 C 
HETATM    9  O           1     -20.984  -2.801 -11.402  0.00  0.00    -0.648 OA
HETATM   10  O           1     -22.140  -4.622 -11.590  0.00  0.00    -0.648 OA
ENDBRANCH   7   8
ENDBRANCH   6   7
ENDBRANCH   5   6
BRANCH   5  11
HETATM   11  N           1     -22.610  -3.991  -7.830  0.00  0.00    -0.066 N 
HETATM   12  H           1     -23.410  -4.541  -7.442  0.00  0.00     0.275 HD
HETATM   13  H           1     -22.352  -3.234  -7.158  0.00  0.00     0.275 HD
HETATM   14  H           1     -22.890  -3.568  -8.744  0.00  0.00     0.275 HD
ENDBRANCH   5  11
ENDBRANCH   3   5
BRANCH   2  15
HETATM   15  C           1     -20.519  -7.106  -5.043  0.00  0.00     0.185 C 
BRANCH  15  16
HETATM   16  C           1     -19.859  -8.455  -5.196  0.00  0.00     0.196 C 
HETATM   17  O           1     -18.960  -8.618  -6.048  0.00  0.00    -0.646 OA
HETATM   18  O           1     -20.211  -9.408  -4.469  0.00  0.00    -0.646 OA
ENDBRANCH  15  16
BRANCH  15  19
HETATM   19  C           1     -21.675  -7.215  -4.057  0.00  0.00     0.036 C 
BRANCH  19  20
HETATM   20  C           1     -21.512  -6.165  -2.965  0.00  0.00     0.003 C 
BRANCH  20  21
HETATM   21 Se           1     -22.208  -6.862  -1.284  0.00  0.00     0.000 Se
HETATM   22  C           1     -20.875  -8.276  -1.129  0.00  0.00     0.000 C 
ENDBRANCH  20  21
ENDBRANCH  19  20
ENDBRANCH  15  19
ENDBRANCH   2  15
TORSDOF 10
ENDMDL
MODEL 6
REMARK VINA RESULT:      -5.3      3.230      4.704
REMARK  10 active torsions:
REMARK  status: ('A' for Active; 'I' for Inactive)
REMARK    1  A    between atoms: C_6  and  C_21 
REMARK    2  A    between atoms: N_9  and  C_21 
REMARK       I    between atoms: N_9  and  C_10 
REMARK    3  A    between atoms: C_10  and  C_11 
REMARK    4  A    between atoms: C_11  and  C_12 
REMARK    5  A    between atoms: C_11  and  N_20 
REMARK    6  A    between atoms: C_12  and  C_13 
REMARK    7  A    between atoms: C_13  and  C_19 
REMARK    8  A    between atoms: Se_14  and  C_16 
REMARK    9  A    between atoms: C_16  and  C_22 
REMARK   10  A    between atoms: C_21  and  C_22 
ROOT
HETATM    1  H           1     -20.202  -4.860  -4.604  0.00  0.00     0.163 HD
HETATM    2  N           1     -20.865  -5.501  -5.022  0.00  0.00    -0.345 N 
HETATM    3  C           1     -21.530  -6.405  -4.237  0.00  0.00     0.249 C 
HETATM    4  O           1     -22.322  -7.170  -4.735  0.00  0.00    -0.271 OA
ENDROOT
BRANCH   3   5
HETATM    5  C           1     -21.273  -6.446  -2.751  0.00  0.00     0.275 C 
BRANCH   5   6
HETATM    6  C           1     -21.171  -7.896  -2.293  0.00  0.00     0.053 C 
BRANCH   6   7
HETATM    7  C           1     -21.990  -8.087  -1.024  0.00  0.00     0.115 C 
BRANCH   7   8
HETATM    8  C           1     -22.311  -9.551  -0.847  0.00  0.00     0.172 C 
HETATM    9  O           1     -21.501 -10.420  -1.236  0.00  0.00    -0.648 OA
HETATM   10  O           1     -23.386  -9.894  -0.311  0.00  0.00    -0.648 OA
ENDBRANCH   7   8
ENDBRANCH   6   7
ENDBRANCH   5   6
BRANCH   5  11
HETATM   11  N           1     -22.403  -5.773  -2.030  0.00  0.00    -0.066 N 
HETATM   12  H           1     -22.025  -5.221  -1.227  0.00  0.00     0.275 HD
HETATM   13  H           1     -22.903  -5.133  -2.687  0.00  0.00     0.275 HD
HETATM   14  H           1     -23.067  -6.496  -1.672  0.00  0.00     0.275 HD
ENDBRANCH   5  11
ENDBRANCH   3   5
BRANCH   2  15
HETATM   15  C           1     -21.113  -5.460  -6.449  0.00  0.00     0.185 C 
BRANCH  15  16
HETATM   16  C           1     -19.810  -5.639  -7.189  0.00  0.00     0.196 C 
HETATM   17  O           1     -19.287  -6.771  -7.270  0.00  0.00    -0.646 OA
HETATM   18  O           1     -19.253  -4.655  -7.722  0.00  0.00    -0.646 OA
ENDBRANCH  15  16
BRANCH  15  19
HETATM   19  C           1     -21.726  -4.116  -6.820  0.00  0.00     0.036 C 
BRANCH  19  20
HETATM   20  C           1     -23.049  -4.342  -7.540  0.00  0.00     0.003 C 
BRANCH  20  21
HETATM   21 Se           1     -22.812  -4.033  -9.449  0.00  0.00     0.000 Se
HETATM   22  C           1     -24.633  -3.400  -9.739  0.00  0.00     0.000 C 
ENDBRANCH  20  21
ENDBRANCH  19  20
ENDBRANCH  15  19
ENDBRANCH   2  15
TORSDOF 10
ENDMDL
MODEL 7
REMARK VINA RESULT:      -5.3     10.320     13.081
REMARK  10 active torsions:
REMARK  status: ('A' for Active; 'I' for Inactive)
REMARK    1  A    between atoms: C_6  and  C_21 
REMARK    2  A    between atoms: N_9  and  C_21 
REMARK       I    between atoms: N_9  and  C_10 
REMARK    3  A    between atoms: C_10  and  C_11 
REMARK    4  A    between atoms: C_11  and  C_12 
REMARK    5  A    between atoms: C_11  and  N_20 
REMARK    6  A    between atoms: C_12  and  C_13 
REMARK    7  A    between atoms: C_13  and  C_19 
REMARK    8  A    between atoms: Se_14  and  C_16 
REMARK    9  A    between atoms: C_16  and  C_22 
REMARK   10  A    between atoms: C_21  and  C_22 
ROOT
HETATM    1  H           1     -28.731  -5.213 -17.310  0.00  0.00     0.163 HD
HETATM    2  N           1     -28.648  -6.202 -17.513  0.00  0.00    -0.345 N 
HETATM    3  C           1     -29.772  -6.951 -17.732  0.00  0.00     0.249 C 
HETATM    4  O           1     -29.673  -8.131 -17.975  0.00  0.00    -0.271 OA
ENDROOT
BRANCH   3   5
HETATM    5  C           1     -31.134  -6.305 -17.670  0.00  0.00     0.275 C 
BRANCH   5   6
HETATM    6  C           1     -31.148  -5.252 -16.569  0.00  0.00     0.053 C 
BRANCH   6   7
HETATM    7  C           1     -32.521  -4.598 -16.508  0.00  0.00     0.115 C 
BRANCH   7   8
HETATM    8  C           1     -32.522  -3.345 -17.348  0.00  0.00     0.172 C 
HETATM    9  O           1     -33.581  -2.705 -17.516  0.00  0.00    -0.648 OA
HETATM   10  O           1     -31.460  -2.947 -17.875  0.00  0.00    -0.648 OA
ENDBRANCH   7   8
ENDBRANCH   6   7
ENDBRANCH   5   6
BRANCH   5  11
HETATM   11  N           1     -32.169  -7.349 -17.376  0.00  0.00    -0.066 N 
HETATM   12  H           1     -33.118  -6.974 -17.603  0.00  0.00     0.275 HD
HETATM   13  H           1     -31.983  -8.197 -17.957  0.00  0.00     0.275 HD
HETATM   14  H           1     -32.130  -7.603 -16.363  0.00  0.00     0.275 HD
ENDBRANCH   5  11
ENDBRANCH   3   5
BRANCH   2  15
HETATM   15  C           1     -27.339  -6.822 -17.573  0.00  0.00     0.185 C 
BRANCH  15  16
HETATM   16  C           1     -26.651  -6.671 -16.239  0.00  0.00     0.196 C 
HETATM   17  O           1     -26.940  -7.439 -15.296  0.00  0.00    -0.646 OA
HETATM   18  O           1     -25.790  -5.779 -16.076  0.00  0.00    -0.646 OA
ENDBRANCH  15  16
BRANCH  15  19
HETATM   19  C           1     -26.506  -6.144 -18.654  0.00  0.00     0.036 C 
BRANCH  19  20
HETATM   20  C           1     -26.852  -6.741 -20.011  0.00  0.00     0.003 C 
BRANCH  20  21
HETATM   21 Se           1     -25.262  -7.559 -20.787  0.00  0.00     0.000 Se
HETATM   22  C           1     -24.121  -7.185 -19.252  0.00  0.00     0.000 C 
ENDBRANCH  20  21
ENDBRANCH  19  20
ENDBRANCH  15  19
ENDBRANCH   2  15
TORSDOF 10
ENDMDL
MODEL 8
REMARK VINA RESULT:      -5.2     10.965     13.121
REMARK  10 active torsions:
REMARK  status: ('A' for Active; 'I' for Inactive)
REMARK    1  A    between atoms: C_6  and  C_21 
REMARK    2  A    between atoms: N_9  and  C_21 
REMARK       I    between atoms: N_9  and  C_10 
REMARK    3  A    between atoms: C_10  and  C_11 
REMARK    4  A    between atoms: C_11  and  C_12 
REMARK    5  A    between atoms: C_11  and  N_20 
REMARK    6  A    between atoms: C_12  and  C_13 
REMARK    7  A    between atoms: C_13  and  C_19 
REMARK    8  A    between atoms: Se_14  and  C_16 
REMARK    9  A    between atoms: C_16  and  C_22 
REMARK   10  A    between atoms: C_21  and  C_22 
ROOT
HETATM    1  H           1     -27.799  -6.860 -19.401  0.00  0.00     0.163 HD
HETATM    2  N           1     -27.950  -6.863 -18.400  0.00  0.00    -0.345 N 
HETATM    3  C           1     -26.900  -6.645 -17.549  0.00  0.00     0.249 C 
HETATM    4  O           1     -27.081  -6.648 -16.354  0.00  0.00    -0.271 OA
ENDROOT
BRANCH   3   5
HETATM    5  C           1     -25.518  -6.403 -18.102  0.00  0.00     0.275 C 
BRANCH   5   6
HETATM    6  C           1     -25.561  -6.467 -19.624  0.00  0.00     0.053 C 
BRANCH   6   7
HETATM    7  C           1     -24.547  -7.490 -20.118  0.00  0.00     0.115 C 
BRANCH   7   8
HETATM    8  C           1     -25.044  -8.115 -21.399  0.00  0.00     0.172 C 
HETATM    9  O           1     -26.212  -8.551 -21.469  0.00  0.00    -0.648 OA
HETATM   10  O           1     -24.286  -8.195 -22.389  0.00  0.00    -0.648 OA
ENDBRANCH   7   8
ENDBRANCH   6   7
ENDBRANCH   5   6
BRANCH   5  11
HETATM   11  N           1     -24.581  -7.453 -17.584  0.00  0.00    -0.066 N 
HETATM   12  H           1     -23.594  -7.142 -17.729  0.00  0.00     0.275 HD
HETATM   13  H           1     -24.753  -7.599 -16.564  0.00  0.00     0.275 HD
HETATM   14  H           1     -24.742  -8.348 -18.099  0.00  0.00     0.275 HD
ENDBRANCH   5  11
ENDBRANCH   3   5
BRANCH   2  15
HETATM   15  C           1     -29.279  -7.094 -17.868  0.00  0.00     0.185 C 
BRANCH  15  16
HETATM   16  C           1     -30.015  -8.061 -18.762  0.00  0.00     0.196 C 
HETATM   17  O           1     -31.263  -8.042 -18.810  0.00  0.00    -0.646 OA
HETATM   18  O           1     -29.376  -8.881 -19.457  0.00  0.00    -0.646 OA
ENDBRANCH  15  16
BRANCH  15  19
HETATM   19  C           1     -30.039  -5.775 -17.811  0.00  0.00     0.036 C 
BRANCH  19  20
HETATM   20  C           1     -30.649  -5.600 -16.426  0.00  0.00     0.003 C 
BRANCH  20  21
HETATM   21 Se           1     -32.402  -4.763 -16.588  0.00  0.00     0.000 Se
HETATM   22  C           1     -31.786  -3.317 -17.741  0.00  0.00     0.000 C 
ENDBRANCH  20  21
ENDBRANCH  19  20
ENDBRANCH  15  19
ENDBRANCH   2  15
TORSDOF 10
ENDMDL
MODEL 9
REMARK VINA RESULT:      -5.2     18.604     20.658
REMARK  10 active torsions:
REMARK  status: ('A' for Active; 'I' for Inactive)
REMARK    1  A    between atoms: C_6  and  C_21 
REMARK    2  A    between atoms: N_9  and  C_21 
REMARK       I    between atoms: N_9  and  C_10 
REMARK    3  A    between atoms: C_10  and  C_11 
REMARK    4  A    between atoms: C_11  and  C_12 
REMARK    5  A    between atoms: C_11  and  N_20 
REMARK    6  A    between atoms: C_12  and  C_13 
REMARK    7  A    between atoms: C_13  and  C_19 
REMARK    8  A    between atoms: Se_14  and  C_16 
REMARK    9  A    between atoms: C_16  and  C_22 
REMARK   10  A    between atoms: C_21  and  C_22 
ROOT
HETATM    1  H           1     -11.745   7.083 -21.283  0.00  0.00     0.163 HD
HETATM    2  N           1     -10.818   7.173 -20.884  0.00  0.00    -0.345 N 
HETATM    3  C           1     -10.039   6.060 -20.712  0.00  0.00     0.249 C 
HETATM    4  O           1      -8.932   6.166 -20.237  0.00  0.00    -0.271 OA
ENDROOT
BRANCH   3   5
HETATM    5  C           1     -10.560   4.703 -21.114  0.00  0.00     0.275 C 
BRANCH   5   6
HETATM    6  C           1     -11.889   4.865 -21.842  0.00  0.00     0.053 C 
BRANCH   6   7
HETATM    7  C           1     -12.999   4.221 -21.022  0.00  0.00     0.115 C 
BRANCH   7   8
HETATM    8  C           1     -13.974   5.282 -20.573  0.00  0.00     0.172 C 
HETATM    9  O           1     -13.612   6.160 -19.762  0.00  0.00    -0.648 OA
HETATM   10  O           1     -15.144   5.280 -21.012  0.00  0.00    -0.648 OA
ENDBRANCH   7   8
ENDBRANCH   6   7
ENDBRANCH   5   6
BRANCH   5  11
HETATM   11  N           1     -10.761   3.862 -19.889  0.00  0.00    -0.066 N 
HETATM   12  H           1      -9.906   3.910 -19.289  0.00  0.00     0.275 HD
HETATM   13  H           1     -11.582   4.220 -19.352  0.00  0.00     0.275 HD
HETATM   14  H           1     -10.932   2.871 -20.171  0.00  0.00     0.275 HD
ENDBRANCH   5  11
ENDBRANCH   3   5
BRANCH   2  15
HETATM   15  C           1     -10.316   8.477 -20.499  0.00  0.00     0.185 C 
BRANCH  15  16
HETATM   16  C           1     -10.862   8.843 -19.141  0.00  0.00     0.196 C 
HETATM   17  O           1     -12.097   8.922 -18.964  0.00  0.00    -0.646 OA
HETATM   18  O           1     -10.080   9.065 -18.192  0.00  0.00    -0.646 OA
ENDBRANCH  15  16
BRANCH  15  19
HETATM   19  C           1     -10.762   9.514 -21.522  0.00  0.00     0.036 C 
BRANCH  19  20
HETATM   20  C           1     -11.712   8.867 -22.522  0.00  0.00     0.003 C 
BRANCH  20  21
HETATM   21 Se           1     -13.398   9.844 -22.545  0.00  0.00     0.000 Se
HETATM   22  C           1     -12.742  11.326 -21.462  0.00  0.00     0.000 C 
ENDBRANCH  20  21
ENDBRANCH  19  20
ENDBRANCH  15  19
ENDBRANCH   2  15
TORSDOF 10
ENDMDL
