MODEL 1
REMARK VINA RESULT:      -5.7      0.000      0.000
REMARK  5 active torsions:
REMARK  status: ('A' for Active; 'I' for Inactive)
REMARK    1  A    between atoms: C_9  and  C_17 
REMARK    2  A    between atoms: C_10  and  C_14 
REMARK    3  A    between atoms: C_10  and  C_13 
REMARK    4  A    between atoms: C_10  and  N_16 
REMARK    5  A    between atoms: S_11  and  C_14 
REMARK       I    between atoms: N_16  and  C_17 
ROOT
HETATM    1  O           1     -22.197  -3.413  -7.521  0.00  0.00    -0.271 OA
HETATM    2  H           1     -22.199  -5.503  -9.860  0.00  0.00     0.163 HD
HETATM    3  N           1     -22.351  -4.617  -9.395  0.00  0.00    -0.344 N 
HETATM    4  C           1     -22.016  -4.471  -8.076  0.00  0.00     0.251 C 
ENDROOT
BRANCH   3   5
HETATM    5  C           1     -22.923  -3.504 -10.126  0.00  0.00     0.194 C 
BRANCH   5   6
HETATM    6  C           1     -22.147  -3.292 -11.419  0.00  0.00     0.106 C 
BRANCH   6   7
HETATM    7  S           1     -20.452  -3.909 -11.216  0.00  0.00    -0.180 SA
HETATM    8  H           1     -19.863  -2.699 -11.197  0.00  0.00     0.101 HD
ENDBRANCH   6   7
ENDBRANCH   5   6
BRANCH   5   9
HETATM    9  C           1     -24.366  -3.805 -10.450  0.00  0.00     0.197 C 
HETATM   10  O           1     -24.956  -4.740  -9.867  0.00  0.00    -0.646 OA
HETATM   11  O           1     -24.971  -3.119 -11.303  0.00  0.00    -0.646 OA
ENDBRANCH   5   9
ENDBRANCH   3   5
BRANCH   4  12
HETATM   12  C           1     -21.420  -5.630  -7.315  0.00  0.00     0.311 C 
HETATM   13  C           1     -21.277  -5.293  -5.840  0.00  0.00     0.047 C 
HETATM   14  C           1     -19.848  -4.786  -5.686  0.00  0.00     0.033 C 
HETATM   15  C           1     -19.246  -4.867  -7.079  0.00  0.00     0.271 C 
HETATM   16  N           1     -20.050  -5.886  -7.748  0.00  0.00     0.097 N 
HETATM   17  H           1     -19.743  -6.812  -7.449  0.00  0.00     0.317 HD
ENDBRANCH   4  12
TORSDOF 5
ENDMDL
MODEL 2
REMARK VINA RESULT:      -5.5      2.333      2.772
REMARK  5 active torsions:
REMARK  status: ('A' for Active; 'I' for Inactive)
REMARK    1  A    between atoms: C_9  and  C_17 
REMARK    2  A    between atoms: C_10  and  C_14 
REMARK    3  A    between atoms: C_10  and  C_13 
REMARK    4  A    between atoms: C_10  and  N_16 
REMARK    5  A    between atoms: S_11  and  C_14 
REMARK       I    between atoms: N_16  and  C_17 
ROOT
HETATM    1  O           1     -19.924  -5.060  -9.844  0.00  0.00    -0.271 OA
HETATM    2  H           1     -22.421  -3.299  -9.135  0.00  0.00     0.163 HD
HETATM    3  N           1     -21.835  -3.915  -9.683  0.00  0.00    -0.344 N 
HETATM    4  C           1     -20.624  -4.325  -9.190  0.00  0.00     0.251 C 
ENDROOT
BRANCH   3   5
HETATM    5  C           1     -22.276  -4.365 -10.988  0.00  0.00     0.194 C 
BRANCH   5   6
HETATM    6  C           1     -23.742  -4.773 -10.917  0.00  0.00     0.106 C 
BRANCH   6   7
HETATM    7  S           1     -24.645  -3.602  -9.864  0.00  0.00    -0.180 SA
HETATM    8  H           1     -24.413  -2.518 -10.627  0.00  0.00     0.101 HD
ENDBRANCH   6   7
ENDBRANCH   5   6
BRANCH   5   9
HETATM    9  C           1     -22.114  -3.245 -11.986  0.00  0.00     0.197 C 
HETATM   10  O           1     -22.679  -3.313 -13.099  0.00  0.00    -0.646 OA
HETATM   11  O           1     -21.415  -2.249 -11.700  0.00  0.00    -0.646 OA
ENDBRANCH   5   9
ENDBRANCH   3   5
BRANCH   4  12
HETATM   12  C           1     -20.165  -3.856  -7.832  0.00  0.00     0.311 C 
HETATM   13  C           1     -19.228  -4.870  -7.197  0.00  0.00     0.047 C 
HETATM   14  C           1     -20.121  -5.737  -6.316  0.00  0.00     0.033 C 
HETATM   15  C           1     -21.519  -5.168  -6.487  0.00  0.00     0.271 C 
HETATM   16  N           1     -21.287  -3.787  -6.899  0.00  0.00     0.097 N 
HETATM   17  H           1     -21.045  -3.224  -6.084  0.00  0.00     0.317 HD
ENDBRANCH   4  12
TORSDOF 5
ENDMDL
MODEL 3
REMARK VINA RESULT:      -4.9      2.172      2.537
REMARK  5 active torsions:
REMARK  status: ('A' for Active; 'I' for Inactive)
REMARK    1  A    between atoms: C_9  and  C_17 
REMARK    2  A    between atoms: C_10  and  C_14 
REMARK    3  A    between atoms: C_10  and  C_13 
REMARK    4  A    between atoms: C_10  and  N_16 
REMARK    5  A    between atoms: S_11  and  C_14 
REMARK       I    between atoms: N_16  and  C_17 
ROOT
HETATM    1  O           1     -20.564  -2.957 -10.917  0.00  0.00    -0.271 OA
HETATM    2  H           1     -23.070  -4.701 -10.196  0.00  0.00     0.163 HD
HETATM    3  N           1     -22.526  -3.996 -10.678  0.00  0.00    -0.344 N 
HETATM    4  C           1     -21.213  -3.798 -10.342  0.00  0.00     0.251 C 
ENDROOT
BRANCH   3   5
HETATM    5  C           1     -23.136  -3.198 -11.722  0.00  0.00     0.194 C 
BRANCH   5   6
HETATM    6  C           1     -22.870  -3.844 -13.076  0.00  0.00     0.106 C 
BRANCH   6   7
HETATM    7  S           1     -22.965  -2.582 -14.377  0.00  0.00    -0.180 SA
HETATM    8  H           1     -23.950  -3.174 -15.077  0.00  0.00     0.101 HD
ENDBRANCH   6   7
ENDBRANCH   5   6
BRANCH   5   9
HETATM    9  C           1     -24.625  -3.117 -11.488  0.00  0.00     0.197 C 
HETATM   10  O           1     -25.402  -2.980 -12.457  0.00  0.00    -0.646 OA
HETATM   11  O           1     -25.079  -3.187 -10.326  0.00  0.00    -0.646 OA
ENDBRANCH   5   9
ENDBRANCH   3   5
BRANCH   4  12
HETATM   12  C           1     -20.579  -4.629  -9.254  0.00  0.00     0.311 C 
HETATM   13  C           1     -21.629  -5.427  -8.500  0.00  0.00     0.047 C 
HETATM   14  C           1     -21.985  -4.572  -7.290  0.00  0.00     0.033 C 
HETATM   15  C           1     -21.113  -3.332  -7.410  0.00  0.00     0.271 C 
HETATM   16  N           1     -19.987  -3.775  -8.227  0.00  0.00     0.097 N 
HETATM   17  H           1     -19.335  -4.305  -7.649  0.00  0.00     0.317 HD
ENDBRANCH   4  12
TORSDOF 5
ENDMDL
MODEL 4
REMARK VINA RESULT:      -4.9     17.278     18.864
REMARK  5 active torsions:
REMARK  status: ('A' for Active; 'I' for Inactive)
REMARK    1  A    between atoms: C_9  and  C_17 
REMARK    2  A    between atoms: C_10  and  C_14 
REMARK    3  A    between atoms: C_10  and  C_13 
REMARK    4  A    between atoms: C_10  and  N_16 
REMARK    5  A    between atoms: S_11  and  C_14 
REMARK       I    between atoms: N_16  and  C_17 
ROOT
HETATM    1  O           1     -12.948   7.579 -21.234  0.00  0.00    -0.271 OA
HETATM    2  H           1     -11.645   5.214 -19.637  0.00  0.00     0.163 HD
HETATM    3  N           1     -12.266   5.672 -20.292  0.00  0.00    -0.344 N 
HETATM    4  C           1     -12.208   7.031 -20.453  0.00  0.00     0.251 C 
ENDROOT
BRANCH   3   5
HETATM    5  C           1     -13.215   4.892 -21.059  0.00  0.00     0.194 C 
BRANCH   5   6
HETATM    6  C           1     -12.731   3.450 -21.152  0.00  0.00     0.106 C 
BRANCH   6   7
HETATM    7  S           1     -11.151   3.284 -20.274  0.00  0.00    -0.180 SA
HETATM    8  H           1     -10.628   2.359 -21.100  0.00  0.00     0.101 HD
ENDBRANCH   6   7
ENDBRANCH   5   6
BRANCH   5   9
HETATM    9  C           1     -14.561   4.927 -20.378  0.00  0.00     0.197 C 
HETATM   10  O           1     -14.667   4.565 -19.186  0.00  0.00    -0.646 OA
HETATM   11  O           1     -15.570   5.317 -21.006  0.00  0.00    -0.646 OA
ENDBRANCH   5   9
ENDBRANCH   3   5
BRANCH   4  12
HETATM   12  C           1     -11.219   7.844 -19.653  0.00  0.00     0.311 C 
HETATM   13  C           1     -10.850   9.122 -20.387  0.00  0.00     0.047 C 
HETATM   14  C           1      -9.573   8.787 -21.148  0.00  0.00     0.033 C 
HETATM   15  C           1      -9.274   7.337 -20.803  0.00  0.00     0.271 C 
HETATM   16  N           1      -9.949   7.137 -19.524  0.00  0.00     0.097 N 
HETATM   17  H           1      -9.385   7.540 -18.775  0.00  0.00     0.317 HD
ENDBRANCH   4  12
TORSDOF 5
ENDMDL
MODEL 5
REMARK VINA RESULT:      -4.9      4.101      6.355
REMARK  5 active torsions:
REMARK  status: ('A' for Active; 'I' for Inactive)
REMARK    1  A    between atoms: C_9  and  C_17 
REMARK    2  A    between atoms: C_10  and  C_14 
REMARK    3  A    between atoms: C_10  and  C_13 
REMARK    4  A    between atoms: C_10  and  N_16 
REMARK    5  A    between atoms: S_11  and  C_14 
REMARK       I    between atoms: N_16  and  C_17 
ROOT
HETATM    1  O           1     -22.571  -5.605  -5.750  0.00  0.00    -0.271 OA
HETATM    2  H           1     -19.698  -6.079  -4.583  0.00  0.00     0.163 HD
HETATM    3  N           1     -20.688  -6.230  -4.723  0.00  0.00    -0.344 N 
HETATM    4  C           1     -21.388  -5.425  -5.582  0.00  0.00     0.251 C 
ENDROOT
BRANCH   3   5
HETATM    5  C           1     -21.367  -7.298  -4.016  0.00  0.00     0.194 C 
BRANCH   5   6
HETATM    6  C           1     -20.502  -8.552  -4.036  0.00  0.00     0.106 C 
BRANCH   6   7
HETATM    7  S           1     -21.566 -10.020  -4.110  0.00  0.00    -0.180 SA
HETATM    8  H           1     -22.370  -9.663  -3.091  0.00  0.00     0.101 HD
ENDBRANCH   6   7
ENDBRANCH   5   6
BRANCH   5   9
HETATM    9  C           1     -21.609  -6.879  -2.586  0.00  0.00     0.197 C 
HETATM   10  O           1     -22.450  -5.991  -2.330  0.00  0.00    -0.646 OA
HETATM   11  O           1     -20.967  -7.420  -1.659  0.00  0.00    -0.646 OA
ENDBRANCH   5   9
ENDBRANCH   3   5
BRANCH   4  12
HETATM   12  C           1     -20.682  -4.314  -6.318  0.00  0.00     0.311 C 
HETATM   13  C           1     -21.576  -3.724  -7.395  0.00  0.00     0.047 C 
HETATM   14  C           1     -21.201  -4.466  -8.673  0.00  0.00     0.033 C 
HETATM   15  C           1     -20.105  -5.436  -8.261  0.00  0.00     0.271 C 
HETATM   16  N           1     -19.535  -4.829  -7.061  0.00  0.00     0.097 N 
HETATM   17  H           1     -18.908  -4.071  -7.329  0.00  0.00     0.317 HD
ENDBRANCH   4  12
TORSDOF 5
ENDMDL
MODEL 6
REMARK VINA RESULT:      -4.7      6.366      8.060
REMARK  5 active torsions:
REMARK  status: ('A' for Active; 'I' for Inactive)
REMARK    1  A    between atoms: C_9  and  C_17 
REMARK    2  A    between atoms: C_10  and  C_14 
REMARK    3  A    between atoms: C_10  and  C_13 
REMARK    4  A    between atoms: C_10  and  N_16 
REMARK    5  A    between atoms: S_11  and  C_14 
REMARK       I    between atoms: N_16  and  C_17 
ROOT
HETATM    1  O           1     -19.777  -8.175  -1.492  0.00  0.00    -0.271 OA
HETATM    2  H           1     -22.497  -9.050  -2.786  0.00  0.00     0.163 HD
HETATM    3  N           1     -21.602  -8.584  -2.713  0.00  0.00    -0.344 N 
HETATM    4  C           1     -20.845  -8.731  -1.581  0.00  0.00     0.251 C 
ENDROOT
BRANCH   3   5
HETATM    5  C           1     -21.120  -7.763  -3.805  0.00  0.00     0.194 C 
BRANCH   5   6
HETATM    6  C           1     -21.279  -8.517  -5.118  0.00  0.00     0.106 C 
BRANCH   6   7
HETATM    7  S           1     -20.404 -10.105  -5.013  0.00  0.00    -0.180 SA
HETATM    8  H           1     -20.029 -10.144  -6.305  0.00  0.00     0.101 HD
ENDBRANCH   6   7
ENDBRANCH   5   6
BRANCH   5   9
HETATM    9  C           1     -21.919  -6.484  -3.861  0.00  0.00     0.197 C 
HETATM   10  O           1     -22.303  -5.940  -2.804  0.00  0.00    -0.646 OA
HETATM   11  O           1     -22.197  -5.968  -4.966  0.00  0.00    -0.646 OA
ENDBRANCH   5   9
ENDBRANCH   3   5
BRANCH   4  12
HETATM   12  C           1     -21.347  -9.586  -0.443  0.00  0.00     0.311 C 
HETATM   13  C           1     -22.863  -9.689  -0.471  0.00  0.00     0.047 C 
HETATM   14  C           1     -23.351  -8.594   0.471  0.00  0.00     0.033 C 
HETATM   15  C           1     -22.089  -7.929   0.995  0.00  0.00     0.271 C 
HETATM   16  N           1     -21.064  -8.958   0.844  0.00  0.00     0.097 N 
HETATM   17  H           1     -21.147  -9.634   1.602  0.00  0.00     0.317 HD
ENDBRANCH   4  12
TORSDOF 5
ENDMDL
MODEL 7
REMARK VINA RESULT:      -4.6     18.163     19.391
REMARK  5 active torsions:
REMARK  status: ('A' for Active; 'I' for Inactive)
REMARK    1  A    between atoms: C_9  and  C_17 
REMARK    2  A    between atoms: C_10  and  C_14 
REMARK    3  A    between atoms: C_10  and  C_13 
REMARK    4  A    between atoms: C_10  and  N_16 
REMARK    5  A    between atoms: S_11  and  C_14 
REMARK       I    between atoms: N_16  and  C_17 
ROOT
HETATM    1  O           1     -11.939   5.707 -19.148  0.00  0.00    -0.271 OA
HETATM    2  H           1     -12.429   7.715 -21.507  0.00  0.00     0.163 HD
HETATM    3  N           1     -12.149   7.402 -20.587  0.00  0.00    -0.344 N 
HETATM    4  C           1     -12.274   6.081 -20.246  0.00  0.00     0.251 C 
ENDROOT
BRANCH   3   5
HETATM    5  C           1     -11.614   8.349 -19.630  0.00  0.00     0.194 C 
BRANCH   5   6
HETATM    6  C           1     -10.470   9.127 -20.267  0.00  0.00     0.106 C 
BRANCH   6   7
HETATM    7  S           1     -10.503   8.885 -22.066  0.00  0.00    -0.180 SA
HETATM    8  H           1     -11.001   7.635 -22.031  0.00  0.00     0.101 HD
ENDBRANCH   6   7
ENDBRANCH   5   6
BRANCH   5   9
HETATM    9  C           1     -12.702   9.309 -19.213  0.00  0.00     0.197 C 
HETATM   10  O           1     -13.311   9.976 -20.077  0.00  0.00    -0.646 OA
HETATM   11  O           1     -12.993   9.437 -18.004  0.00  0.00    -0.646 OA
ENDBRANCH   5   9
ENDBRANCH   3   5
BRANCH   4  12
HETATM   12  C           1     -12.830   5.094 -21.243  0.00  0.00     0.311 C 
HETATM   13  C           1     -12.718   3.673 -20.718  0.00  0.00     0.047 C 
HETATM   14  C           1     -11.414   3.138 -21.299  0.00  0.00     0.033 C 
HETATM   15  C           1     -10.853   4.278 -22.132  0.00  0.00     0.271 C 
HETATM   16  N           1     -12.028   5.079 -22.463  0.00  0.00     0.097 N 
HETATM   17  H           1     -12.538   4.635 -23.226  0.00  0.00     0.317 HD
ENDBRANCH   4  12
TORSDOF 5
ENDMDL
MODEL 8
REMARK VINA RESULT:      -4.6     11.035     12.215
REMARK  5 active torsions:
REMARK  status: ('A' for Active; 'I' for Inactive)
REMARK    1  A    between atoms: C_9  and  C_17 
REMARK    2  A    between atoms: C_10  and  C_14 
REMARK    3  A    between atoms: C_10  and  C_13 
REMARK    4  A    between atoms: C_10  and  N_16 
REMARK    5  A    between atoms: S_11  and  C_14 
REMARK       I    between atoms: N_16  and  C_17 
ROOT
HETATM    1  O           1     -28.179  -5.350 -19.172  0.00  0.00    -0.271 OA
HETATM    2  H           1     -27.178  -8.313 -18.929  0.00  0.00     0.163 HD
HETATM    3  N           1     -27.143  -7.329 -19.162  0.00  0.00    -0.344 N 
HETATM    4  C           1     -28.219  -6.525 -18.894  0.00  0.00     0.251 C 
ENDROOT
BRANCH   3   5
HETATM    5  C           1     -25.956  -6.770 -19.777  0.00  0.00     0.194 C 
BRANCH   5   6
HETATM    6  C           1     -24.780  -6.894 -18.818  0.00  0.00     0.106 C 
BRANCH   6   7
HETATM    7  S           1     -25.361  -6.664 -17.114  0.00  0.00    -0.180 SA
HETATM    8  H           1     -24.210  -7.032 -16.521  0.00  0.00     0.101 HD
ENDBRANCH   6   7
ENDBRANCH   5   6
BRANCH   5   9
HETATM    9  C           1     -25.648  -7.522 -21.049  0.00  0.00     0.197 C 
HETATM   10  O           1     -24.673  -7.185 -21.753  0.00  0.00    -0.646 OA
HETATM   11  O           1     -26.369  -8.483 -21.397  0.00  0.00    -0.646 OA
ENDBRANCH   5   9
ENDBRANCH   3   5
BRANCH   4  12
HETATM   12  C           1     -29.455  -7.107 -18.254  0.00  0.00     0.311 C 
HETATM   13  C           1     -30.272  -6.024 -17.569  0.00  0.00     0.047 C 
HETATM   14  C           1     -29.816  -6.044 -16.114  0.00  0.00     0.033 C 
HETATM   15  C           1     -28.770  -7.143 -16.042  0.00  0.00     0.271 C 
HETATM   16  N           1     -29.099  -8.014 -17.167  0.00  0.00     0.097 N 
HETATM   17  H           1     -29.890  -8.607 -16.917  0.00  0.00     0.317 HD
ENDBRANCH   4  12
TORSDOF 5
ENDMDL
MODEL 9
REMARK VINA RESULT:      -4.5      6.196      7.794
REMARK  5 active torsions:
REMARK  status: ('A' for Active; 'I' for Inactive)
REMARK    1  A    between atoms: C_9  and  C_17 
REMARK    2  A    between atoms: C_10  and  C_14 
REMARK    3  A    between atoms: C_10  and  C_13 
REMARK    4  A    between atoms: C_10  and  N_16 
REMARK    5  A    between atoms: S_11  and  C_14 
REMARK       I    between atoms: N_16  and  C_17 
ROOT
HETATM    1  O           1     -20.062  -7.821  -1.611  0.00  0.00    -0.271 OA
HETATM    2  H           1     -22.647  -8.486  -3.259  0.00  0.00     0.163 HD
HETATM    3  N           1     -21.683  -8.227  -3.093  0.00  0.00    -0.344 N 
HETATM    4  C           1     -21.213  -8.131  -1.811  0.00  0.00     0.251 C 
ENDROOT
BRANCH   3   5
HETATM    5  C           1     -20.802  -7.957  -4.211  0.00  0.00     0.194 C 
BRANCH   5   6
HETATM    6  C           1     -20.434  -9.266  -4.897  0.00  0.00     0.106 C 
BRANCH   6   7
HETATM    7  S           1     -18.638  -9.512  -4.810  0.00  0.00    -0.180 SA
HETATM    8  H           1     -18.356  -8.305  -4.286  0.00  0.00     0.101 HD
ENDBRANCH   6   7
ENDBRANCH   5   6
BRANCH   5   9
HETATM    9  C           1     -21.502  -7.053  -5.196  0.00  0.00     0.197 C 
HETATM   10  O           1     -21.184  -7.081  -6.404  0.00  0.00    -0.646 OA
HETATM   11  O           1     -22.401  -6.277  -4.803  0.00  0.00    -0.646 OA
ENDBRANCH   5   9
ENDBRANCH   3   5
BRANCH   4  12
HETATM   12  C           1     -22.131  -8.412  -0.647  0.00  0.00     0.311 C 
HETATM   13  C           1     -21.348  -8.500   0.652  0.00  0.00     0.047 C 
HETATM   14  C           1     -21.064  -9.985   0.844  0.00  0.00     0.033 C 
HETATM   15  C           1     -21.708 -10.670  -0.351  0.00  0.00     0.271 C 
HETATM   16  N           1     -22.743  -9.731  -0.775  0.00  0.00     0.097 N 
HETATM   17  H           1     -23.552  -9.816  -0.159  0.00  0.00     0.317 HD
ENDBRANCH   4  12
TORSDOF 5
ENDMDL
