MODEL 1
REMARK VINA RESULT:      -7.1      0.000      0.000
REMARK  9 active torsions:
REMARK  status: ('A' for Active; 'I' for Inactive)
REMARK    1  A    between atoms: N_7  and  C_27 
REMARK       I    between atoms: N_9  and  C_11 
REMARK    2  A    between atoms: C_11  and  C_28 
REMARK    3  A    between atoms: O_12  and  C_19 
REMARK    4  A    between atoms: C_16  and  C_20 
REMARK    5  A    between atoms: C_20  and  C_21 
REMARK    6  A    between atoms: C_21  and  C_22 
REMARK    7  A    between atoms: C_21  and  N_25 
REMARK       I    between atoms: N_25  and  C_26 
REMARK    8  A    between atoms: C_26  and  C_27 
REMARK    9  A    between atoms: C_27  and  C_28 
ROOT
HETATM    1  H           1     -22.442  -5.694  -5.152  0.00  0.00     0.163 HD
HETATM    2  O           1     -20.269  -7.766  -6.062  0.00  0.00    -0.271 OA
HETATM    3  N           1     -21.688  -6.078  -5.708  0.00  0.00    -0.344 N 
HETATM    4  C           1     -21.169  -7.308  -5.400  0.00  0.00     0.249 C 
ENDROOT
BRANCH   3   5
HETATM    5  C           1     -21.157  -5.327  -6.828  0.00  0.00     0.189 C 
BRANCH   5   6
HETATM    6  C           1     -22.123  -4.206  -7.189  0.00  0.00     0.074 C 
BRANCH   6   7
HETATM    7  C           1     -22.450  -4.278  -8.648  0.00  0.00    -0.056 A 
HETATM    8  C           1     -21.422  -4.345  -9.590  0.00  0.00     0.010 A 
HETATM    9  C           1     -21.726  -4.412 -10.949  0.00  0.00     0.037 A 
HETATM   10  C           1     -23.057  -4.413 -11.368  0.00  0.00     0.065 A 
HETATM   11  C           1     -24.084  -4.346 -10.426  0.00  0.00     0.037 A 
HETATM   12  C           1     -23.780  -4.279  -9.066  0.00  0.00     0.010 A 
BRANCH  10  13
HETATM   13  O           1     -23.352  -4.478 -12.688  0.00  0.00    -0.361 OA
HETATM   14  H           1     -22.753  -5.124 -13.099  0.00  0.00     0.217 HD
ENDBRANCH  10  13
ENDBRANCH   6   7
ENDBRANCH   5   6
BRANCH   5  15
HETATM   15  C           1     -19.820  -4.739  -6.450  0.00  0.00     0.197 C 
HETATM   16  O           1     -19.621  -4.337  -5.284  0.00  0.00    -0.646 OA
HETATM   17  O           1     -18.911  -4.653  -7.305  0.00  0.00    -0.646 OA
ENDBRANCH   5  15
ENDBRANCH   3   5
BRANCH   4  18
HETATM   18  C           1     -21.722  -8.090  -4.233  0.00  0.00     0.283 C 
BRANCH  18  19
HETATM   19  N           1     -21.495  -9.554  -4.461  0.00  0.00    -0.066 N 
HETATM   20  H           1     -22.035  -9.862  -5.302  0.00  0.00     0.275 HD
HETATM   21  H           1     -20.477  -9.729  -4.617  0.00  0.00     0.275 HD
HETATM   22  H           1     -21.818 -10.092  -3.626  0.00  0.00     0.275 HD
ENDBRANCH  18  19
BRANCH  18  23
HETATM   23  C           1     -21.015  -7.660  -2.954  0.00  0.00     0.145 C 
BRANCH  23  24
HETATM   24  C           1     -21.953  -6.822  -2.119  0.00  0.00     0.217 C 
HETATM   25  O           1     -22.483  -5.849  -2.598  0.00  0.00    -0.274 OA
HETATM   26  N           1     -22.202  -7.166  -0.818  0.00  0.00    -0.370 N 
HETATM   27  H           1     -22.831  -6.605  -0.257  0.00  0.00     0.159 HD
HETATM   28  H           1     -21.757  -7.982  -0.416  0.00  0.00     0.159 HD
ENDBRANCH  23  24
ENDBRANCH  18  23
ENDBRANCH   4  18
TORSDOF 9
ENDMDL
MODEL 2
REMARK VINA RESULT:      -7.0      2.449      7.265
REMARK  9 active torsions:
REMARK  status: ('A' for Active; 'I' for Inactive)
REMARK    1  A    between atoms: N_7  and  C_27 
REMARK       I    between atoms: N_9  and  C_11 
REMARK    2  A    between atoms: C_11  and  C_28 
REMARK    3  A    between atoms: O_12  and  C_19 
REMARK    4  A    between atoms: C_16  and  C_20 
REMARK    5  A    between atoms: C_20  and  C_21 
REMARK    6  A    between atoms: C_21  and  C_22 
REMARK    7  A    between atoms: C_21  and  N_25 
REMARK       I    between atoms: N_25  and  C_26 
REMARK    8  A    between atoms: C_26  and  C_27 
REMARK    9  A    between atoms: C_27  and  C_28 
ROOT
HETATM    1  H           1     -21.100  -5.322  -8.372  0.00  0.00     0.163 HD
HETATM    2  O           1     -23.682  -4.428  -6.830  0.00  0.00    -0.271 OA
HETATM    3  N           1     -21.702  -5.140  -7.578  0.00  0.00    -0.344 N 
HETATM    4  C           1     -22.964  -4.645  -7.776  0.00  0.00     0.249 C 
ENDROOT
BRANCH   3   5
HETATM    5  C           1     -21.229  -5.401  -6.234  0.00  0.00     0.189 C 
BRANCH   5   6
HETATM    6  C           1     -21.137  -6.906  -6.012  0.00  0.00     0.074 C 
BRANCH   6   7
HETATM    7  C           1     -21.104  -7.194  -4.544  0.00  0.00    -0.056 A 
HETATM    8  C           1     -20.277  -8.204  -4.050  0.00  0.00     0.010 A 
HETATM    9  C           1     -20.245  -8.473  -2.683  0.00  0.00     0.037 A 
HETATM   10  C           1     -21.039  -7.732  -1.807  0.00  0.00     0.065 A 
HETATM   11  C           1     -21.866  -6.723  -2.300  0.00  0.00     0.037 A 
HETATM   12  C           1     -21.898  -6.454  -3.668  0.00  0.00     0.010 A 
BRANCH  10  13
HETATM   13  O           1     -21.008  -7.994  -0.478  0.00  0.00    -0.361 OA
HETATM   14  H           1     -21.642  -8.708  -0.298  0.00  0.00     0.217 HD
ENDBRANCH  10  13
ENDBRANCH   6   7
ENDBRANCH   5   6
BRANCH   5  15
HETATM   15  C           1     -19.865  -4.782  -6.051  0.00  0.00     0.197 C 
HETATM   16  O           1     -19.552  -4.272  -4.955  0.00  0.00    -0.646 OA
HETATM   17  O           1     -19.048  -4.778  -6.999  0.00  0.00    -0.646 OA
ENDBRANCH   5  15
ENDBRANCH   3   5
BRANCH   4  18
HETATM   18  C           1     -23.457  -4.373  -9.176  0.00  0.00     0.283 C 
BRANCH  18  19
HETATM   19  N           1     -24.502  -3.298  -9.138  0.00  0.00    -0.066 N 
HETATM   20  H           1     -25.337  -3.606  -9.687  0.00  0.00     0.275 HD
HETATM   21  H           1     -24.783  -3.121  -8.147  0.00  0.00     0.275 HD
HETATM   22  H           1     -24.117  -2.421  -9.553  0.00  0.00     0.275 HD
ENDBRANCH  18  19
BRANCH  18  23
HETATM   23  C           1     -22.292  -3.916 -10.045  0.00  0.00     0.145 C 
BRANCH  23  24
HETATM   24  C           1     -22.580  -4.247 -11.489  0.00  0.00     0.217 C 
HETATM   25  O           1     -23.553  -4.901 -11.775  0.00  0.00    -0.274 OA
HETATM   26  N           1     -21.738  -3.804 -12.473  0.00  0.00    -0.370 N 
HETATM   27  H           1     -21.932  -4.025 -13.442  0.00  0.00     0.159 HD
HETATM   28  H           1     -20.923  -3.255 -12.232  0.00  0.00     0.159 HD
ENDBRANCH  23  24
ENDBRANCH  18  23
ENDBRANCH   4  18
TORSDOF 9
ENDMDL
MODEL 3
REMARK VINA RESULT:      -6.7      2.312      7.264
REMARK  9 active torsions:
REMARK  status: ('A' for Active; 'I' for Inactive)
REMARK    1  A    between atoms: N_7  and  C_27 
REMARK       I    between atoms: N_9  and  C_11 
REMARK    2  A    between atoms: C_11  and  C_28 
REMARK    3  A    between atoms: O_12  and  C_19 
REMARK    4  A    between atoms: C_16  and  C_20 
REMARK    5  A    between atoms: C_20  and  C_21 
REMARK    6  A    between atoms: C_21  and  C_22 
REMARK    7  A    between atoms: C_21  and  N_25 
REMARK       I    between atoms: N_25  and  C_26 
REMARK    8  A    between atoms: C_26  and  C_27 
REMARK    9  A    between atoms: C_27  and  C_28 
ROOT
HETATM    1  H           1     -20.266  -7.156  -7.031  0.00  0.00     0.163 HD
HETATM    2  O           1     -20.362  -4.829  -4.929  0.00  0.00    -0.271 OA
HETATM    3  N           1     -20.254  -6.714  -6.120  0.00  0.00    -0.344 N 
HETATM    4  C           1     -20.377  -5.355  -6.015  0.00  0.00     0.249 C 
ENDROOT
BRANCH   3   5
HETATM    5  C           1     -20.107  -7.523  -4.926  0.00  0.00     0.189 C 
BRANCH   5   6
HETATM    6  C           1     -21.441  -8.174  -4.586  0.00  0.00     0.074 C 
BRANCH   6   7
HETATM    7  C           1     -21.689  -8.068  -3.113  0.00  0.00    -0.056 A 
HETATM    8  C           1     -21.959  -6.826  -2.539  0.00  0.00     0.010 A 
HETATM    9  C           1     -22.190  -6.727  -1.168  0.00  0.00     0.037 A 
HETATM   10  C           1     -22.153  -7.870  -0.370  0.00  0.00     0.065 A 
HETATM   11  C           1     -21.883  -9.113  -0.944  0.00  0.00     0.037 A 
HETATM   12  C           1     -21.651  -9.212  -2.315  0.00  0.00     0.010 A 
BRANCH  10  13
HETATM   13  O           1     -22.377  -7.774   0.963  0.00  0.00    -0.361 OA
HETATM   14  H           1     -22.816  -6.924   1.133  0.00  0.00     0.217 HD
ENDBRANCH  10  13
ENDBRANCH   6   7
ENDBRANCH   5   6
BRANCH   5  15
HETATM   15  C           1     -19.071  -8.593  -5.168  0.00  0.00     0.197 C 
HETATM   16  O           1     -18.695  -9.323  -4.226  0.00  0.00    -0.646 OA
HETATM   17  O           1     -18.589  -8.749  -6.311  0.00  0.00    -0.646 OA
ENDBRANCH   5  15
ENDBRANCH   3   5
BRANCH   4  18
HETATM   18  C           1     -20.531  -4.513  -7.259  0.00  0.00     0.283 C 
BRANCH  18  19
HETATM   19  N           1     -19.200  -4.376  -7.937  0.00  0.00    -0.066 N 
HETATM   20  H           1     -18.499  -4.006  -7.255  0.00  0.00     0.275 HD
HETATM   21  H           1     -18.888  -5.312  -8.284  0.00  0.00     0.275 HD
HETATM   22  H           1     -19.284  -3.716  -8.742  0.00  0.00     0.275 HD
ENDBRANCH  18  19
BRANCH  18  23
HETATM   23  C           1     -21.516  -5.184  -8.207  0.00  0.00     0.145 C 
BRANCH  23  24
HETATM   24  C           1     -22.548  -4.177  -8.654  0.00  0.00     0.217 C 
HETATM   25  O           1     -22.319  -3.454  -9.592  0.00  0.00    -0.274 OA
HETATM   26  N           1     -23.745  -4.086  -7.995  0.00  0.00    -0.370 N 
HETATM   27  H           1     -24.438  -3.411  -8.294  0.00  0.00     0.159 HD
HETATM   28  H           1     -23.937  -4.692  -7.208  0.00  0.00     0.159 HD
ENDBRANCH  23  24
ENDBRANCH  18  23
ENDBRANCH   4  18
TORSDOF 9
ENDMDL
MODEL 4
REMARK VINA RESULT:      -6.7      2.401      7.130
REMARK  9 active torsions:
REMARK  status: ('A' for Active; 'I' for Inactive)
REMARK    1  A    between atoms: N_7  and  C_27 
REMARK       I    between atoms: N_9  and  C_11 
REMARK    2  A    between atoms: C_11  and  C_28 
REMARK    3  A    between atoms: O_12  and  C_19 
REMARK    4  A    between atoms: C_16  and  C_20 
REMARK    5  A    between atoms: C_20  and  C_21 
REMARK    6  A    between atoms: C_21  and  C_22 
REMARK    7  A    between atoms: C_21  and  N_25 
REMARK       I    between atoms: N_25  and  C_26 
REMARK    8  A    between atoms: C_26  and  C_27 
REMARK    9  A    between atoms: C_27  and  C_28 
ROOT
HETATM    1  H           1     -21.912  -6.116  -8.440  0.00  0.00     0.163 HD
HETATM    2  O           1     -21.514  -3.292  -7.133  0.00  0.00    -0.271 OA
HETATM    3  N           1     -21.648  -5.437  -7.736  0.00  0.00    -0.344 N 
HETATM    4  C           1     -21.828  -4.101  -7.973  0.00  0.00     0.249 C 
ENDROOT
BRANCH   3   5
HETATM    5  C           1     -21.079  -5.881  -6.479  0.00  0.00     0.189 C 
BRANCH   5   6
HETATM    6  C           1     -21.748  -7.181  -6.051  0.00  0.00     0.074 C 
BRANCH   6   7
HETATM    7  C           1     -21.668  -7.318  -4.562  0.00  0.00    -0.056 A 
HETATM    8  C           1     -21.836  -6.197  -3.749  0.00  0.00     0.010 A 
HETATM    9  C           1     -21.761  -6.325  -2.362  0.00  0.00     0.037 A 
HETATM   10  C           1     -21.520  -7.573  -1.788  0.00  0.00     0.065 A 
HETATM   11  C           1     -21.352  -8.694  -2.602  0.00  0.00     0.037 A 
HETATM   12  C           1     -21.426  -8.567  -3.989  0.00  0.00     0.010 A 
BRANCH  10  13
HETATM   13  O           1     -21.447  -7.697  -0.441  0.00  0.00    -0.361 OA
HETATM   14  H           1     -22.188  -7.201  -0.053  0.00  0.00     0.217 HD
ENDBRANCH  10  13
ENDBRANCH   6   7
ENDBRANCH   5   6
BRANCH   5  15
HETATM   15  C           1     -19.597  -6.109  -6.650  0.00  0.00     0.197 C 
HETATM   16  O           1     -19.146  -7.273  -6.696  0.00  0.00    -0.646 OA
HETATM   17  O           1     -18.822  -5.133  -6.746  0.00  0.00    -0.646 OA
ENDBRANCH   5  15
ENDBRANCH   3   5
BRANCH   4  18
HETATM   18  C           1     -22.420  -3.639  -9.282  0.00  0.00     0.283 C 
BRANCH  18  19
HETATM   19  N           1     -21.422  -3.843 -10.381  0.00  0.00    -0.066 N 
HETATM   20  H           1     -20.802  -3.004 -10.449  0.00  0.00     0.275 HD
HETATM   21  H           1     -20.843  -4.688 -10.173  0.00  0.00     0.275 HD
HETATM   22  H           1     -21.923  -3.979 -11.288  0.00  0.00     0.275 HD
ENDBRANCH  18  19
BRANCH  18  23
HETATM   23  C           1     -23.678  -4.444  -9.582  0.00  0.00     0.145 C 
BRANCH  23  24
HETATM   24  C           1     -24.709  -3.546 -10.222  0.00  0.00     0.217 C 
HETATM   25  O           1     -24.434  -2.928 -11.222  0.00  0.00    -0.274 OA
HETATM   26  N           1     -25.956  -3.435  -9.669  0.00  0.00    -0.370 N 
HETATM   27  H           1     -26.648  -2.833 -10.098  0.00  0.00     0.159 HD
HETATM   28  H           1     -26.186  -3.953  -8.831  0.00  0.00     0.159 HD
ENDBRANCH  23  24
ENDBRANCH  18  23
ENDBRANCH   4  18
TORSDOF 9
ENDMDL
MODEL 5
REMARK VINA RESULT:      -6.5      1.546      2.133
REMARK  9 active torsions:
REMARK  status: ('A' for Active; 'I' for Inactive)
REMARK    1  A    between atoms: N_7  and  C_27 
REMARK       I    between atoms: N_9  and  C_11 
REMARK    2  A    between atoms: C_11  and  C_28 
REMARK    3  A    between atoms: O_12  and  C_19 
REMARK    4  A    between atoms: C_16  and  C_20 
REMARK    5  A    between atoms: C_20  and  C_21 
REMARK    6  A    between atoms: C_21  and  C_22 
REMARK    7  A    between atoms: C_21  and  N_25 
REMARK       I    between atoms: N_25  and  C_26 
REMARK    8  A    between atoms: C_26  and  C_27 
REMARK    9  A    between atoms: C_27  and  C_28 
ROOT
HETATM    1  H           1     -22.803  -5.831  -6.614  0.00  0.00     0.163 HD
HETATM    2  O           1     -19.818  -6.615  -7.181  0.00  0.00    -0.271 OA
HETATM    3  N           1     -21.893  -5.799  -7.058  0.00  0.00    -0.344 N 
HETATM    4  C           1     -20.903  -6.654  -6.652  0.00  0.00     0.249 C 
ENDROOT
BRANCH   3   5
HETATM    5  C           1     -21.639  -4.848  -8.122  0.00  0.00     0.189 C 
BRANCH   5   6
HETATM    6  C           1     -22.962  -4.298  -8.637  0.00  0.00     0.074 C 
BRANCH   6   7
HETATM    7  C           1     -22.830  -3.954 -10.088  0.00  0.00    -0.056 A 
HETATM    8  C           1     -23.891  -3.345 -10.759  0.00  0.00     0.010 A 
HETATM    9  C           1     -23.769  -3.024 -12.111  0.00  0.00     0.037 A 
HETATM   10  C           1     -22.586  -3.309 -12.791  0.00  0.00     0.065 A 
HETATM   11  C           1     -21.524  -3.918 -12.120  0.00  0.00     0.037 A 
HETATM   12  C           1     -21.647  -4.239 -10.769  0.00  0.00     0.010 A 
BRANCH  10  13
HETATM   13  O           1     -22.467  -2.997 -14.104  0.00  0.00    -0.361 OA
HETATM   14  H           1     -22.018  -2.137 -14.169  0.00  0.00     0.217 HD
ENDBRANCH  10  13
ENDBRANCH   6   7
ENDBRANCH   5   6
BRANCH   5  15
HETATM   15  C           1     -20.794  -3.715  -7.592  0.00  0.00     0.197 C 
HETATM   16  O           1     -19.620  -3.571  -7.993  0.00  0.00    -0.646 OA
HETATM   17  O           1     -21.270  -2.921  -6.752  0.00  0.00    -0.646 OA
ENDBRANCH   5  15
ENDBRANCH   3   5
BRANCH   4  18
HETATM   18  C           1     -21.168  -7.644  -5.545  0.00  0.00     0.283 C 
BRANCH  18  19
HETATM   19  N           1     -19.906  -7.873  -4.767  0.00  0.00    -0.066 N 
HETATM   20  H           1     -19.566  -8.847  -4.935  0.00  0.00     0.275 HD
HETATM   21  H           1     -19.178  -7.190  -5.076  0.00  0.00     0.275 HD
HETATM   22  H           1     -20.096  -7.743  -3.748  0.00  0.00     0.275 HD
ENDBRANCH  18  19
BRANCH  18  23
HETATM   23  C           1     -22.243  -7.092  -4.617  0.00  0.00     0.145 C 
BRANCH  23  24
HETATM   24  C           1     -21.590  -6.427  -3.430  0.00  0.00     0.217 C 
HETATM   25  O           1     -20.886  -5.460  -3.592  0.00  0.00    -0.274 OA
HETATM   26  N           1     -21.798  -6.920  -2.170  0.00  0.00    -0.370 N 
HETATM   27  H           1     -21.362  -6.474  -1.373  0.00  0.00     0.159 HD
HETATM   28  H           1     -22.389  -7.731  -2.035  0.00  0.00     0.159 HD
ENDBRANCH  23  24
ENDBRANCH  18  23
ENDBRANCH   4  18
TORSDOF 9
ENDMDL
MODEL 6
REMARK VINA RESULT:      -6.4      1.355      1.963
REMARK  9 active torsions:
REMARK  status: ('A' for Active; 'I' for Inactive)
REMARK    1  A    between atoms: N_7  and  C_27 
REMARK       I    between atoms: N_9  and  C_11 
REMARK    2  A    between atoms: C_11  and  C_28 
REMARK    3  A    between atoms: O_12  and  C_19 
REMARK    4  A    between atoms: C_16  and  C_20 
REMARK    5  A    between atoms: C_20  and  C_21 
REMARK    6  A    between atoms: C_21  and  C_22 
REMARK    7  A    between atoms: C_21  and  N_25 
REMARK       I    between atoms: N_25  and  C_26 
REMARK    8  A    between atoms: C_26  and  C_27 
REMARK    9  A    between atoms: C_27  and  C_28 
ROOT
HETATM    1  H           1     -19.843  -4.858  -4.653  0.00  0.00     0.163 HD
HETATM    2  O           1     -22.500  -6.521  -4.786  0.00  0.00    -0.271 OA
HETATM    3  N           1     -20.646  -5.310  -5.073  0.00  0.00    -0.344 N 
HETATM    4  C           1     -21.543  -5.981  -4.285  0.00  0.00     0.249 C 
ENDROOT
BRANCH   3   5
HETATM    5  C           1     -20.844  -5.250  -6.507  0.00  0.00     0.189 C 
BRANCH   5   6
HETATM    6  C           1     -21.378  -3.875  -6.887  0.00  0.00     0.074 C 
BRANCH   6   7
HETATM    7  C           1     -22.061  -3.954  -8.217  0.00  0.00    -0.056 A 
HETATM    8  C           1     -21.318  -3.826  -9.391  0.00  0.00     0.010 A 
HETATM    9  C           1     -21.953  -3.899 -10.630  0.00  0.00     0.037 A 
HETATM   10  C           1     -23.331  -4.101 -10.697  0.00  0.00     0.065 A 
HETATM   11  C           1     -24.075  -4.229  -9.523  0.00  0.00     0.037 A 
HETATM   12  C           1     -23.440  -4.156  -8.284  0.00  0.00     0.010 A 
BRANCH  10  13
HETATM   13  O           1     -23.949  -4.172 -11.900  0.00  0.00    -0.361 OA
HETATM   14  H           1     -24.904  -4.066 -11.755  0.00  0.00     0.217 HD
ENDBRANCH  10  13
ENDBRANCH   6   7
ENDBRANCH   5   6
BRANCH   5  15
HETATM   15  C           1     -19.529  -5.490  -7.207  0.00  0.00     0.197 C 
HETATM   16  O           1     -19.237  -6.636  -7.612  0.00  0.00    -0.646 OA
HETATM   17  O           1     -18.731  -4.543  -7.381  0.00  0.00    -0.646 OA
ENDBRANCH   5  15
ENDBRANCH   3   5
BRANCH   4  18
HETATM   18  C           1     -21.337  -6.044  -2.792  0.00  0.00     0.283 C 
BRANCH  18  19
HETATM   19  N           1     -22.669  -6.060  -2.103  0.00  0.00    -0.066 N 
HETATM   20  H           1     -23.075  -5.097  -2.111  0.00  0.00     0.275 HD
HETATM   21  H           1     -23.312  -6.714  -2.604  0.00  0.00     0.275 HD
HETATM   22  H           1     -22.548  -6.378  -1.116  0.00  0.00     0.275 HD
ENDBRANCH  18  19
BRANCH  18  23
HETATM   23  C           1     -20.568  -7.311  -2.439  0.00  0.00     0.145 C 
BRANCH  23  24
HETATM   24  C           1     -21.535  -8.460  -2.284  0.00  0.00     0.217 C 
HETATM   25  O           1     -22.074  -8.657  -1.223  0.00  0.00    -0.274 OA
HETATM   26  N           1     -21.802  -9.276  -3.350  0.00  0.00    -0.370 N 
HETATM   27  H           1     -22.451 -10.047  -3.248  0.00  0.00     0.159 HD
HETATM   28  H           1     -21.350  -9.111  -4.241  0.00  0.00     0.159 HD
ENDBRANCH  23  24
ENDBRANCH  18  23
ENDBRANCH   4  18
TORSDOF 9
ENDMDL
MODEL 7
REMARK VINA RESULT:      -6.3      2.868      7.566
REMARK  9 active torsions:
REMARK  status: ('A' for Active; 'I' for Inactive)
REMARK    1  A    between atoms: N_7  and  C_27 
REMARK       I    between atoms: N_9  and  C_11 
REMARK    2  A    between atoms: C_11  and  C_28 
REMARK    3  A    between atoms: O_12  and  C_19 
REMARK    4  A    between atoms: C_16  and  C_20 
REMARK    5  A    between atoms: C_20  and  C_21 
REMARK    6  A    between atoms: C_21  and  C_22 
REMARK    7  A    between atoms: C_21  and  N_25 
REMARK       I    between atoms: N_25  and  C_26 
REMARK    8  A    between atoms: C_26  and  C_27 
REMARK    9  A    between atoms: C_27  and  C_28 
ROOT
HETATM    1  H           1     -21.692  -7.910  -3.900  0.00  0.00     0.163 HD
HETATM    2  O           1     -19.529  -7.485  -6.133  0.00  0.00    -0.271 OA
HETATM    3  N           1     -20.842  -8.074  -4.426  0.00  0.00    -0.344 N 
HETATM    4  C           1     -20.542  -7.288  -5.507  0.00  0.00     0.249 C 
ENDROOT
BRANCH   3   5
HETATM    5  C           1     -19.942  -9.141  -4.034  0.00  0.00     0.189 C 
BRANCH   5   6
HETATM    6  C           1     -19.443  -8.889  -2.618  0.00  0.00     0.074 C 
BRANCH   6   7
HETATM    7  C           1     -20.602  -8.554  -1.731  0.00  0.00    -0.056 A 
HETATM    8  C           1     -21.165  -7.278  -1.772  0.00  0.00     0.010 A 
HETATM    9  C           1     -22.244  -6.965  -0.947  0.00  0.00     0.037 A 
HETATM   10  C           1     -22.762  -7.928  -0.081  0.00  0.00     0.065 A 
HETATM   11  C           1     -22.199  -9.204  -0.039  0.00  0.00     0.037 A 
HETATM   12  C           1     -21.120  -9.517  -0.865  0.00  0.00     0.010 A 
BRANCH  10  13
HETATM   13  O           1     -23.810  -7.625   0.721  0.00  0.00    -0.361 OA
HETATM   14  H           1     -24.112  -6.728   0.496  0.00  0.00     0.217 HD
ENDBRANCH  10  13
ENDBRANCH   6   7
ENDBRANCH   5   6
BRANCH   5  15
HETATM   15  C           1     -20.675 -10.460  -4.084  0.00  0.00     0.197 C 
HETATM   16  O           1     -20.102 -11.507  -3.714  0.00  0.00    -0.646 OA
HETATM   17  O           1     -21.855 -10.504  -4.495  0.00  0.00    -0.646 OA
ENDBRANCH   5  15
ENDBRANCH   3   5
BRANCH   4  18
HETATM   18  C           1     -21.479  -6.177  -5.914  0.00  0.00     0.283 C 
BRANCH  18  19
HETATM   19  N           1     -22.661  -6.156  -4.991  0.00  0.00    -0.066 N 
HETATM   20  H           1     -22.329  -6.220  -4.002  0.00  0.00     0.275 HD
HETATM   21  H           1     -23.190  -5.265  -5.125  0.00  0.00     0.275 HD
HETATM   22  H           1     -23.283  -6.967  -5.202  0.00  0.00     0.275 HD
ENDBRANCH  18  19
BRANCH  18  23
HETATM   23  C           1     -20.749  -4.843  -5.835  0.00  0.00     0.145 C 
BRANCH  23  24
HETATM   24  C           1     -20.930  -4.093  -7.133  0.00  0.00     0.217 C 
HETATM   25  O           1     -19.977  -3.868  -7.838  0.00  0.00    -0.274 OA
HETATM   26  N           1     -22.176  -3.669  -7.508  0.00  0.00    -0.370 N 
HETATM   27  H           1     -22.299  -3.167  -8.379  0.00  0.00     0.159 HD
HETATM   28  H           1     -22.976  -3.858  -6.917  0.00  0.00     0.159 HD
ENDBRANCH  23  24
ENDBRANCH  18  23
ENDBRANCH   4  18
TORSDOF 9
ENDMDL
MODEL 8
REMARK VINA RESULT:      -6.2      3.515      7.536
REMARK  9 active torsions:
REMARK  status: ('A' for Active; 'I' for Inactive)
REMARK    1  A    between atoms: N_7  and  C_27 
REMARK       I    between atoms: N_9  and  C_11 
REMARK    2  A    between atoms: C_11  and  C_28 
REMARK    3  A    between atoms: O_12  and  C_19 
REMARK    4  A    between atoms: C_16  and  C_20 
REMARK    5  A    between atoms: C_20  and  C_21 
REMARK    6  A    between atoms: C_21  and  C_22 
REMARK    7  A    between atoms: C_21  and  N_25 
REMARK       I    between atoms: N_25  and  C_26 
REMARK    8  A    between atoms: C_26  and  C_27 
REMARK    9  A    between atoms: C_27  and  C_28 
ROOT
HETATM    1  H           1     -20.697  -6.775  -3.280  0.00  0.00     0.163 HD
HETATM    2  O           1     -21.169  -8.012  -6.124  0.00  0.00    -0.271 OA
HETATM    3  N           1     -20.750  -7.491  -3.993  0.00  0.00    -0.344 N 
HETATM    4  C           1     -21.105  -7.158  -5.273  0.00  0.00     0.249 C 
ENDROOT
BRANCH   3   5
HETATM    5  C           1     -20.452  -8.870  -3.660  0.00  0.00     0.189 C 
BRANCH   5   6
HETATM    6  C           1     -19.250  -8.917  -2.725  0.00  0.00     0.074 C 
BRANCH   6   7
HETATM    7  C           1     -18.069  -9.475  -3.457  0.00  0.00    -0.056 A 
HETATM    8  C           1     -18.153  -9.725  -4.827  0.00  0.00     0.010 A 
HETATM    9  C           1     -17.053 -10.244  -5.509  0.00  0.00     0.037 A 
HETATM   10  C           1     -15.869 -10.512  -4.822  0.00  0.00     0.065 A 
HETATM   11  C           1     -15.786 -10.262  -3.452  0.00  0.00     0.037 A 
HETATM   12  C           1     -16.886  -9.743  -2.770  0.00  0.00     0.010 A 
BRANCH  10  13
HETATM   13  O           1     -14.800 -11.017  -5.484  0.00  0.00    -0.361 OA
HETATM   14  H           1     -15.005 -11.011  -6.435  0.00  0.00     0.217 HD
ENDBRANCH  10  13
ENDBRANCH   6   7
ENDBRANCH   5   6
BRANCH   5  15
HETATM   15  C           1     -21.646  -9.491  -2.977  0.00  0.00     0.197 C 
HETATM   16  O           1     -22.314 -10.370  -3.563  0.00  0.00    -0.646 OA
HETATM   17  O           1     -21.967  -9.126  -1.825  0.00  0.00    -0.646 OA
ENDBRANCH   5  15
ENDBRANCH   3   5
BRANCH   4  18
HETATM   18  C           1     -21.415  -5.722  -5.620  0.00  0.00     0.283 C 
BRANCH  18  19
HETATM   19  N           1     -20.276  -4.847  -5.192  0.00  0.00    -0.066 N 
HETATM   20  H           1     -19.997  -4.225  -5.985  0.00  0.00     0.275 HD
HETATM   21  H           1     -20.573  -4.263  -4.378  0.00  0.00     0.275 HD
HETATM   22  H           1     -19.463  -5.442  -4.916  0.00  0.00     0.275 HD
ENDBRANCH  18  19
BRANCH  18  23
HETATM   23  C           1     -21.614  -5.596  -7.125  0.00  0.00     0.145 C 
BRANCH  23  24
HETATM   24  C           1     -22.236  -4.256  -7.439  0.00  0.00     0.217 C 
HETATM   25  O           1     -21.563  -3.255  -7.404  0.00  0.00    -0.274 OA
HETATM   26  N           1     -23.563  -4.179  -7.765  0.00  0.00    -0.370 N 
HETATM   27  H           1     -23.981  -3.282  -7.977  0.00  0.00     0.159 HD
HETATM   28  H           1     -24.128  -5.019  -7.795  0.00  0.00     0.159 HD
ENDBRANCH  23  24
ENDBRANCH  18  23
ENDBRANCH   4  18
TORSDOF 9
ENDMDL
MODEL 9
REMARK VINA RESULT:      -6.1      4.110      9.029
REMARK  9 active torsions:
REMARK  status: ('A' for Active; 'I' for Inactive)
REMARK    1  A    between atoms: N_7  and  C_27 
REMARK       I    between atoms: N_9  and  C_11 
REMARK    2  A    between atoms: C_11  and  C_28 
REMARK    3  A    between atoms: O_12  and  C_19 
REMARK    4  A    between atoms: C_16  and  C_20 
REMARK    5  A    between atoms: C_20  and  C_21 
REMARK    6  A    between atoms: C_21  and  C_22 
REMARK    7  A    between atoms: C_21  and  N_25 
REMARK       I    between atoms: N_25  and  C_26 
REMARK    8  A    between atoms: C_26  and  C_27 
REMARK    9  A    between atoms: C_27  and  C_28 
ROOT
HETATM    1  H           1     -20.590  -7.395  -2.157  0.00  0.00     0.163 HD
HETATM    2  O           1     -22.036  -9.680  -3.747  0.00  0.00    -0.271 OA
HETATM    3  N           1     -21.215  -8.175  -2.317  0.00  0.00    -0.344 N 
HETATM    4  C           1     -21.290  -8.750  -3.557  0.00  0.00     0.249 C 
ENDROOT
BRANCH   3   5
HETATM    5  C           1     -22.031  -8.683  -1.232  0.00  0.00     0.189 C 
BRANCH   5   6
HETATM    6  C           1     -21.168  -9.521  -0.298  0.00  0.00     0.074 C 
BRANCH   6   7
HETATM    7  C           1     -21.854 -10.821  -0.014  0.00  0.00    -0.056 A 
HETATM    8  C           1     -23.107 -11.083  -0.567  0.00  0.00     0.010 A 
HETATM    9  C           1     -23.747 -12.294  -0.304  0.00  0.00     0.037 A 
HETATM   10  C           1     -23.133 -13.244   0.513  0.00  0.00     0.065 A 
HETATM   11  C           1     -21.879 -12.982   1.067  0.00  0.00     0.037 A 
HETATM   12  C           1     -21.240 -11.771   0.803  0.00  0.00     0.010 A 
BRANCH  10  13
HETATM   13  O           1     -23.754 -14.420   0.770  0.00  0.00    -0.361 OA
HETATM   14  H           1     -23.914 -14.473   1.727  0.00  0.00     0.217 HD
ENDBRANCH  10  13
ENDBRANCH   6   7
ENDBRANCH   5   6
BRANCH   5  15
HETATM   15  C           1     -22.627  -7.527  -0.467  0.00  0.00     0.197 C 
HETATM   16  O           1     -23.261  -7.737   0.589  0.00  0.00    -0.646 OA
HETATM   17  O           1     -22.486  -6.359  -0.890  0.00  0.00    -0.646 OA
ENDBRANCH   5  15
ENDBRANCH   3   5
BRANCH   4  18
HETATM   18  C           1     -20.440  -8.221  -4.687  0.00  0.00     0.283 C 
BRANCH  18  19
HETATM   19  N           1     -20.067  -9.348  -5.602  0.00  0.00    -0.066 N 
HETATM   20  H           1     -20.907  -9.646  -6.148  0.00  0.00     0.275 HD
HETATM   21  H           1     -19.319  -9.030  -6.259  0.00  0.00     0.275 HD
HETATM   22  H           1     -19.717 -10.155  -5.038  0.00  0.00     0.275 HD
ENDBRANCH  18  19
BRANCH  18  23
HETATM   23  C           1     -21.226  -7.174  -5.465  0.00  0.00     0.145 C 
BRANCH  23  24
HETATM   24  C           1     -20.266  -6.221  -6.136  0.00  0.00     0.217 C 
HETATM   25  O           1     -19.586  -6.598  -7.058  0.00  0.00    -0.274 OA
HETATM   26  N           1     -20.170  -4.928  -5.698  0.00  0.00    -0.370 N 
HETATM   27  H           1     -19.528  -4.287  -6.147  0.00  0.00     0.159 HD
HETATM   28  H           1     -20.741  -4.611  -4.924  0.00  0.00     0.159 HD
ENDBRANCH  23  24
ENDBRANCH  18  23
ENDBRANCH   4  18
TORSDOF 9
ENDMDL
