MODEL 1
REMARK VINA RESULT:      -7.7      0.000      0.000
REMARK  7 active torsions:
REMARK  status: ('A' for Active; 'I' for Inactive)
REMARK    1  A    between atoms: C_1  and  C_6 
REMARK    2  A    between atoms: C_1  and  C_13 
REMARK    3  A    between atoms: C_1  and  N_2 
REMARK    4  A    between atoms: N_4  and  C_17 
REMARK       I    between atoms: N_4  and  C_6 
REMARK    5  A    between atoms: C_11  and  C_13 
REMARK    6  A    between atoms: C_15  and  C_17 
REMARK    7  A    between atoms: C_17  and  C_19 
ROOT
HETATM    1  C           1     -21.051  -5.716  -6.861  0.00  0.00     0.278 C 
ENDROOT
BRANCH   1   2
HETATM    2  C           1     -21.620  -4.591  -7.689  0.00  0.00     0.249 C 
HETATM    3  N           1     -22.078  -4.836  -8.955  0.00  0.00    -0.344 N 
HETATM    4  H           1     -22.035  -5.772  -9.336  0.00  0.00     0.163 HD
HETATM    5  O           1     -21.671  -3.472  -7.234  0.00  0.00    -0.271 OA
BRANCH   3   6
HETATM    6  C           1     -22.625  -3.754  -9.751  0.00  0.00     0.189 C 
BRANCH   6   7
HETATM    7  C           1     -24.131  -3.840  -9.751  0.00  0.00     0.197 C 
HETATM    8  O           1     -24.813  -2.844  -9.430  0.00  0.00    -0.646 OA
HETATM    9  O           1     -24.697  -4.907 -10.073  0.00  0.00    -0.646 OA
ENDBRANCH   6   7
BRANCH   6  10
HETATM   10  C           1     -22.110  -3.864 -11.181  0.00  0.00     0.010 C 
HETATM   11  C           1     -20.588  -3.909 -11.172  0.00  0.00     0.012 C 
HETATM   12  C           1     -22.578  -2.657 -11.981  0.00  0.00     0.012 C 
ENDBRANCH   6  10
ENDBRANCH   3   6
ENDBRANCH   1   2
BRANCH   1  13
HETATM   13  C           1     -20.773  -5.219  -5.448  0.00  0.00     0.081 C 
BRANCH  13  14
HETATM   14  C           1     -21.087  -6.303  -4.466  0.00  0.00    -0.056 A 
HETATM   15  C           1     -21.182  -7.627  -4.894  0.00  0.00     0.007 A 
HETATM   16  C           1     -21.475  -8.637  -3.978  0.00  0.00     0.001 A 
HETATM   17  C           1     -21.674  -8.324  -2.634  0.00  0.00     0.000 A 
HETATM   18  C           1     -21.578  -7.000  -2.205  0.00  0.00     0.001 A 
HETATM   19  C           1     -21.285  -5.990  -3.121  0.00  0.00     0.007 A 
ENDBRANCH  13  14
ENDBRANCH   1  13
BRANCH   1  20
HETATM   20  N           1     -19.772  -6.197  -7.482  0.00  0.00    -0.066 N 
HETATM   21  H           1     -19.046  -5.450  -7.407  0.00  0.00     0.275 HD
HETATM   22  H           1     -19.444  -7.054  -6.982  0.00  0.00     0.275 HD
HETATM   23  H           1     -19.938  -6.422  -8.489  0.00  0.00     0.275 HD
ENDBRANCH   1  20
TORSDOF 7
ENDMDL
MODEL 2
REMARK VINA RESULT:      -7.2      2.613      7.313
REMARK  7 active torsions:
REMARK  status: ('A' for Active; 'I' for Inactive)
REMARK    1  A    between atoms: C_1  and  C_6 
REMARK    2  A    between atoms: C_1  and  C_13 
REMARK    3  A    between atoms: C_1  and  N_2 
REMARK    4  A    between atoms: N_4  and  C_17 
REMARK       I    between atoms: N_4  and  C_6 
REMARK    5  A    between atoms: C_11  and  C_13 
REMARK    6  A    between atoms: C_15  and  C_17 
REMARK    7  A    between atoms: C_17  and  C_19 
ROOT
HETATM    1  C           1     -22.264  -5.170  -6.815  0.00  0.00     0.278 C 
ENDROOT
BRANCH   1   2
HETATM    2  C           1     -21.335  -5.693  -5.747  0.00  0.00     0.249 C 
HETATM    3  N           1     -21.700  -6.772  -4.989  0.00  0.00    -0.344 N 
HETATM    4  H           1     -22.594  -7.220  -5.145  0.00  0.00     0.163 HD
HETATM    5  O           1     -20.267  -5.158  -5.560  0.00  0.00    -0.271 OA
BRANCH   3   6
HETATM    6  C           1     -20.808  -7.274  -3.962  0.00  0.00     0.189 C 
BRANCH   6   7
HETATM    7  C           1     -20.237  -8.601  -4.396  0.00  0.00     0.197 C 
HETATM    8  O           1     -21.002  -9.538  -4.711  0.00  0.00    -0.646 OA
HETATM    9  O           1     -18.998  -8.764  -4.442  0.00  0.00    -0.646 OA
ENDBRANCH   6   7
BRANCH   6  10
HETATM   10  C           1     -21.580  -7.455  -2.661  0.00  0.00     0.010 C 
HETATM   11  C           1     -22.135  -6.112  -2.207  0.00  0.00     0.012 C 
HETATM   12  C           1     -20.647  -8.007  -1.592  0.00  0.00     0.012 C 
ENDBRANCH   6  10
ENDBRANCH   3   6
ENDBRANCH   1   2
BRANCH   1  13
HETATM   13  C           1     -21.719  -3.860  -7.367  0.00  0.00     0.081 C 
BRANCH  13  14
HETATM   14  C           1     -21.651  -3.936  -8.859  0.00  0.00    -0.056 A 
HETATM   15  C           1     -22.807  -3.761  -9.621  0.00  0.00     0.007 A 
HETATM   16  C           1     -22.743  -3.831 -11.012  0.00  0.00     0.001 A 
HETATM   17  C           1     -21.524  -4.077 -11.643  0.00  0.00     0.000 A 
HETATM   18  C           1     -20.368  -4.252 -10.883  0.00  0.00     0.001 A 
HETATM   19  C           1     -20.432  -4.181  -9.491  0.00  0.00     0.007 A 
ENDBRANCH  13  14
ENDBRANCH   1  13
BRANCH   1  20
HETATM   20  N           1     -23.623  -4.937  -6.224  0.00  0.00    -0.066 N 
HETATM   21  H           1     -23.695  -3.948  -5.895  0.00  0.00     0.275 HD
HETATM   22  H           1     -24.353  -5.117  -6.950  0.00  0.00     0.275 HD
HETATM   23  H           1     -23.767  -5.585  -5.416  0.00  0.00     0.275 HD
ENDBRANCH   1  20
TORSDOF 7
ENDMDL
MODEL 3
REMARK VINA RESULT:      -7.0      2.551      7.089
REMARK  7 active torsions:
REMARK  status: ('A' for Active; 'I' for Inactive)
REMARK    1  A    between atoms: C_1  and  C_6 
REMARK    2  A    between atoms: C_1  and  C_13 
REMARK    3  A    between atoms: C_1  and  N_2 
REMARK    4  A    between atoms: N_4  and  C_17 
REMARK       I    between atoms: N_4  and  C_6 
REMARK    5  A    between atoms: C_11  and  C_13 
REMARK    6  A    between atoms: C_15  and  C_17 
REMARK    7  A    between atoms: C_17  and  C_19 
ROOT
HETATM    1  C           1     -20.901  -4.906  -6.436  0.00  0.00     0.278 C 
ENDROOT
BRANCH   1   2
HETATM    2  C           1     -21.624  -5.839  -5.497  0.00  0.00     0.249 C 
HETATM    3  N           1     -20.913  -6.638  -4.643  0.00  0.00    -0.344 N 
HETATM    4  H           1     -19.902  -6.602  -4.641  0.00  0.00     0.163 HD
HETATM    5  O           1     -22.832  -5.883  -5.499  0.00  0.00    -0.271 OA
BRANCH   3   6
HETATM    6  C           1     -21.607  -7.536  -3.741  0.00  0.00     0.189 C 
BRANCH   6   7
HETATM    7  C           1     -21.652  -6.928  -2.361  0.00  0.00     0.197 C 
HETATM    8  O           1     -22.351  -5.914  -2.147  0.00  0.00    -0.646 OA
HETATM    9  O           1     -20.991  -7.438  -1.430  0.00  0.00    -0.646 OA
ENDBRANCH   6   7
BRANCH   6  10
HETATM   10  C           1     -20.873  -8.869  -3.684  0.00  0.00     0.010 C 
HETATM   11  C           1     -19.754  -8.879  -4.718  0.00  0.00     0.012 C 
HETATM   12  C           1     -21.850  -9.998  -3.983  0.00  0.00     0.012 C 
ENDBRANCH   6  10
ENDBRANCH   3   6
ENDBRANCH   1   2
BRANCH   1  13
HETATM   13  C           1     -20.587  -5.635  -7.736  0.00  0.00     0.081 C 
BRANCH  13  14
HETATM   14  C           1     -21.061  -4.816  -8.895  0.00  0.00    -0.056 A 
HETATM   15  C           1     -22.377  -4.355  -8.933  0.00  0.00     0.007 A 
HETATM   16  C           1     -22.818  -3.591 -10.013  0.00  0.00     0.001 A 
HETATM   17  C           1     -21.944  -3.288 -11.056  0.00  0.00     0.000 A 
HETATM   18  C           1     -20.627  -3.747 -11.019  0.00  0.00     0.001 A 
HETATM   19  C           1     -20.186  -4.511  -9.938  0.00  0.00     0.007 A 
ENDBRANCH  13  14
ENDBRANCH   1  13
BRANCH   1  20
HETATM   20  N           1     -19.623  -4.447  -5.799  0.00  0.00    -0.066 N 
HETATM   21  H           1     -18.826  -4.618  -6.453  0.00  0.00     0.275 HD
HETATM   22  H           1     -19.687  -3.426  -5.587  0.00  0.00     0.275 HD
HETATM   23  H           1     -19.466  -4.979  -4.912  0.00  0.00     0.275 HD
ENDBRANCH   1  20
TORSDOF 7
ENDMDL
MODEL 4
REMARK VINA RESULT:      -6.8      4.228      7.962
REMARK  7 active torsions:
REMARK  status: ('A' for Active; 'I' for Inactive)
REMARK    1  A    between atoms: C_1  and  C_6 
REMARK    2  A    between atoms: C_1  and  C_13 
REMARK    3  A    between atoms: C_1  and  N_2 
REMARK    4  A    between atoms: N_4  and  C_17 
REMARK       I    between atoms: N_4  and  C_6 
REMARK    5  A    between atoms: C_11  and  C_13 
REMARK    6  A    between atoms: C_15  and  C_17 
REMARK    7  A    between atoms: C_17  and  C_19 
ROOT
HETATM    1  C           1     -20.420  -7.602  -4.901  0.00  0.00     0.278 C 
ENDROOT
BRANCH   1   2
HETATM    2  C           1     -20.406  -8.308  -3.568  0.00  0.00     0.249 C 
HETATM    3  N           1     -21.551  -8.381  -2.820  0.00  0.00    -0.344 N 
HETATM    4  H           1     -22.406  -7.962  -3.162  0.00  0.00     0.163 HD
HETATM    5  O           1     -19.385  -8.809  -3.159  0.00  0.00    -0.271 OA
BRANCH   3   6
HETATM    6  C           1     -21.538  -9.059  -1.539  0.00  0.00     0.189 C 
BRANCH   6   7
HETATM    7  C           1     -22.186 -10.414  -1.679  0.00  0.00     0.197 C 
HETATM    8  O           1     -23.345 -10.600  -1.249  0.00  0.00    -0.646 OA
HETATM    9  O           1     -21.566 -11.351  -2.227  0.00  0.00    -0.646 OA
ENDBRANCH   6   7
BRANCH   6  10
HETATM   10  C           1     -22.309  -8.232  -0.518  0.00  0.00     0.010 C 
HETATM   11  C           1     -22.355  -6.778  -0.970  0.00  0.00     0.012 C 
HETATM   12  C           1     -21.614  -8.321   0.834  0.00  0.00     0.012 C 
ENDBRANCH   6  10
ENDBRANCH   3   6
ENDBRANCH   1   2
BRANCH   1  13
HETATM   13  C           1     -21.107  -6.250  -4.754  0.00  0.00     0.081 C 
BRANCH  13  14
HETATM   14  C           1     -20.915  -5.453  -6.005  0.00  0.00    -0.056 A 
HETATM   15  C           1     -19.628  -5.205  -6.484  0.00  0.00     0.007 A 
HETATM   16  C           1     -19.449  -4.463  -7.651  0.00  0.00     0.001 A 
HETATM   17  C           1     -20.556  -3.967  -8.340  0.00  0.00     0.000 A 
HETATM   18  C           1     -21.843  -4.216  -7.862  0.00  0.00     0.001 A 
HETATM   19  C           1     -22.021  -4.959  -6.695  0.00  0.00     0.007 A 
ENDBRANCH  13  14
ENDBRANCH   1  13
BRANCH   1  20
HETATM   20  N           1     -21.165  -8.435  -5.901  0.00  0.00    -0.066 N 
HETATM   21  H           1     -20.713  -8.343  -6.838  0.00  0.00     0.275 HD
HETATM   22  H           1     -21.147  -9.436  -5.601  0.00  0.00     0.275 HD
HETATM   23  H           1     -22.156  -8.106  -5.958  0.00  0.00     0.275 HD
ENDBRANCH   1  20
TORSDOF 7
ENDMDL
MODEL 5
REMARK VINA RESULT:      -6.6      2.134      3.071
REMARK  7 active torsions:
REMARK  status: ('A' for Active; 'I' for Inactive)
REMARK    1  A    between atoms: C_1  and  C_6 
REMARK    2  A    between atoms: C_1  and  C_13 
REMARK    3  A    between atoms: C_1  and  N_2 
REMARK    4  A    between atoms: N_4  and  C_17 
REMARK       I    between atoms: N_4  and  C_6 
REMARK    5  A    between atoms: C_11  and  C_13 
REMARK    6  A    between atoms: C_15  and  C_17 
REMARK    7  A    between atoms: C_17  and  C_19 
ROOT
HETATM    1  C           1     -21.682  -5.878  -5.187  0.00  0.00     0.278 C 
ENDROOT
BRANCH   1   2
HETATM    2  C           1     -21.427  -5.895  -6.674  0.00  0.00     0.249 C 
HETATM    3  N           1     -21.891  -4.875  -7.460  0.00  0.00    -0.344 N 
HETATM    4  H           1     -22.404  -4.109  -7.043  0.00  0.00     0.163 HD
HETATM    5  O           1     -20.814  -6.810  -7.171  0.00  0.00    -0.271 OA
BRANCH   3   6
HETATM    6  C           1     -21.647  -4.891  -8.889  0.00  0.00     0.189 C 
BRANCH   6   7
HETATM    7  C           1     -20.253  -4.385  -9.167  0.00  0.00     0.197 C 
HETATM    8  O           1     -19.687  -3.631  -8.348  0.00  0.00    -0.646 OA
HETATM    9  O           1     -19.664  -4.721 -10.217  0.00  0.00    -0.646 OA
ENDBRANCH   6   7
BRANCH   6  10
HETATM   10  C           1     -22.661  -3.996  -9.588  0.00  0.00     0.010 C 
HETATM   11  C           1     -23.938  -3.928  -8.761  0.00  0.00     0.012 C 
HETATM   12  C           1     -22.978  -4.568 -10.963  0.00  0.00     0.012 C 
ENDBRANCH   6  10
ENDBRANCH   3   6
ENDBRANCH   1   2
BRANCH   1  13
HETATM   13  C           1     -20.753  -6.871  -4.500  0.00  0.00     0.081 C 
BRANCH  13  14
HETATM   14  C           1     -21.299  -7.214  -3.150  0.00  0.00    -0.056 A 
HETATM   15  C           1     -21.748  -6.203  -2.301  0.00  0.00     0.007 A 
HETATM   16  C           1     -22.258  -6.522  -1.042  0.00  0.00     0.001 A 
HETATM   17  C           1     -22.318  -7.854  -0.632  0.00  0.00     0.000 A 
HETATM   18  C           1     -21.869  -8.866  -1.480  0.00  0.00     0.001 A 
HETATM   19  C           1     -21.360  -8.546  -2.739  0.00  0.00     0.007 A 
ENDBRANCH  13  14
ENDBRANCH   1  13
BRANCH   1  20
HETATM   20  N           1     -23.108  -6.261  -4.919  0.00  0.00    -0.066 N 
HETATM   21  H           1     -23.249  -6.383  -3.891  0.00  0.00     0.275 HD
HETATM   22  H           1     -23.741  -5.508  -5.271  0.00  0.00     0.275 HD
HETATM   23  H           1     -23.325  -7.158  -5.411  0.00  0.00     0.275 HD
ENDBRANCH   1  20
TORSDOF 7
ENDMDL
MODEL 6
REMARK VINA RESULT:      -6.3      4.395      8.510
REMARK  7 active torsions:
REMARK  status: ('A' for Active; 'I' for Inactive)
REMARK    1  A    between atoms: C_1  and  C_6 
REMARK    2  A    between atoms: C_1  and  C_13 
REMARK    3  A    between atoms: C_1  and  N_2 
REMARK    4  A    between atoms: N_4  and  C_17 
REMARK       I    between atoms: N_4  and  C_6 
REMARK    5  A    between atoms: C_11  and  C_13 
REMARK    6  A    between atoms: C_15  and  C_17 
REMARK    7  A    between atoms: C_17  and  C_19 
ROOT
HETATM    1  C           1     -20.761  -7.494  -3.736  0.00  0.00     0.278 C 
ENDROOT
BRANCH   1   2
HETATM    2  C           1     -21.558  -7.776  -2.486  0.00  0.00     0.249 C 
HETATM    3  N           1     -21.582  -9.039  -1.959  0.00  0.00    -0.344 N 
HETATM    4  H           1     -21.064  -9.784  -2.408  0.00  0.00     0.163 HD
HETATM    5  O           1     -22.176  -6.886  -1.950  0.00  0.00    -0.271 OA
BRANCH   3   6
HETATM    6  C           1     -22.348  -9.310  -0.759  0.00  0.00     0.189 C 
BRANCH   6   7
HETATM    7  C           1     -21.461  -9.153   0.452  0.00  0.00     0.197 C 
HETATM    8  O           1     -20.677 -10.071   0.774  0.00  0.00    -0.646 OA
HETATM    9  O           1     -21.509  -8.105   1.132  0.00  0.00    -0.646 OA
ENDBRANCH   6   7
BRANCH   6  10
HETATM   10  C           1     -22.889 -10.733  -0.810  0.00  0.00     0.010 C 
HETATM   11  C           1     -23.125 -11.136  -2.260  0.00  0.00     0.012 C 
HETATM   12  C           1     -24.202 -10.804  -0.044  0.00  0.00     0.012 C 
ENDBRANCH   6  10
ENDBRANCH   3   6
ENDBRANCH   1   2
BRANCH   1  13
HETATM   13  C           1     -21.701  -7.412  -4.931  0.00  0.00     0.081 C 
BRANCH  13  14
HETATM   14  C           1     -21.349  -6.218  -5.762  0.00  0.00    -0.056 A 
HETATM   15  C           1     -22.359  -5.436  -6.324  0.00  0.00     0.007 A 
HETATM   16  C           1     -22.031  -4.323  -7.098  0.00  0.00     0.001 A 
HETATM   17  C           1     -20.693  -3.991  -7.311  0.00  0.00     0.000 A 
HETATM   18  C           1     -19.683  -4.772  -6.748  0.00  0.00     0.001 A 
HETATM   19  C           1     -20.011  -5.885  -5.974  0.00  0.00     0.007 A 
ENDBRANCH  13  14
ENDBRANCH   1  13
BRANCH   1  20
HETATM   20  N           1     -19.769  -8.599  -3.956  0.00  0.00    -0.066 N 
HETATM   21  H           1     -18.903  -8.208  -4.390  0.00  0.00     0.275 HD
HETATM   22  H           1     -19.532  -9.040  -3.039  0.00  0.00     0.275 HD
HETATM   23  H           1     -20.185  -9.317  -4.592  0.00  0.00     0.275 HD
ENDBRANCH   1  20
TORSDOF 7
ENDMDL
MODEL 7
REMARK VINA RESULT:      -6.3     18.474     19.883
REMARK  7 active torsions:
REMARK  status: ('A' for Active; 'I' for Inactive)
REMARK    1  A    between atoms: C_1  and  C_6 
REMARK    2  A    between atoms: C_1  and  C_13 
REMARK    3  A    between atoms: C_1  and  N_2 
REMARK    4  A    between atoms: N_4  and  C_17 
REMARK       I    between atoms: N_4  and  C_6 
REMARK    5  A    between atoms: C_11  and  C_13 
REMARK    6  A    between atoms: C_15  and  C_17 
REMARK    7  A    between atoms: C_17  and  C_19 
ROOT
HETATM    1  C           1     -15.086   9.292   5.604  0.00  0.00     0.278 C 
ENDROOT
BRANCH   1   2
HETATM    2  C           1     -16.334  10.060   5.242  0.00  0.00     0.249 C 
HETATM    3  N           1     -17.517   9.396   5.058  0.00  0.00    -0.344 N 
HETATM    4  H           1     -17.554   8.390   5.164  0.00  0.00     0.163 HD
HETATM    5  O           1     -16.289  11.260   5.115  0.00  0.00    -0.271 OA
BRANCH   3   6
HETATM    6  C           1     -18.715  10.133   4.709  0.00  0.00     0.189 C 
BRANCH   6   7
HETATM    7  C           1     -19.702  10.057   5.847  0.00  0.00     0.197 C 
HETATM    8  O           1     -20.805  10.639   5.758  0.00  0.00    -0.646 OA
HETATM    9  O           1     -19.418   9.411   6.880  0.00  0.00    -0.646 OA
ENDBRANCH   6   7
BRANCH   6  10
HETATM   10  C           1     -19.338   9.529   3.457  0.00  0.00     0.010 C 
HETATM   11  C           1     -19.800   8.108   3.752  0.00  0.00     0.012 C 
HETATM   12  C           1     -18.305   9.505   2.339  0.00  0.00     0.012 C 
ENDBRANCH   6  10
ENDBRANCH   3   6
ENDBRANCH   1   2
BRANCH   1  13
HETATM   13  C           1     -14.950   8.082   4.690  0.00  0.00     0.081 C 
BRANCH  13  14
HETATM   14  C           1     -14.417   8.517   3.361  0.00  0.00    -0.056 A 
HETATM   15  C           1     -14.955   7.990   2.187  0.00  0.00     0.007 A 
HETATM   16  C           1     -14.459   8.395   0.948  0.00  0.00     0.001 A 
HETATM   17  C           1     -13.424   9.328   0.883  0.00  0.00     0.000 A 
HETATM   18  C           1     -12.886   9.856   2.057  0.00  0.00     0.001 A 
HETATM   19  C           1     -13.383   9.450   3.296  0.00  0.00     0.007 A 
ENDBRANCH  13  14
ENDBRANCH   1  13
BRANCH   1  20
HETATM   20  N           1     -15.177   8.833   7.029  0.00  0.00    -0.066 N 
HETATM   21  H           1     -16.114   9.084   7.418  0.00  0.00     0.275 HD
HETATM   22  H           1     -15.049   7.797   7.070  0.00  0.00     0.275 HD
HETATM   23  H           1     -14.430   9.299   7.593  0.00  0.00     0.275 HD
ENDBRANCH   1  20
TORSDOF 7
ENDMDL
MODEL 8
REMARK VINA RESULT:      -6.2     18.616     20.692
REMARK  7 active torsions:
REMARK  status: ('A' for Active; 'I' for Inactive)
REMARK    1  A    between atoms: C_1  and  C_6 
REMARK    2  A    between atoms: C_1  and  C_13 
REMARK    3  A    between atoms: C_1  and  N_2 
REMARK    4  A    between atoms: N_4  and  C_17 
REMARK       I    between atoms: N_4  and  C_6 
REMARK    5  A    between atoms: C_11  and  C_13 
REMARK    6  A    between atoms: C_15  and  C_17 
REMARK    7  A    between atoms: C_17  and  C_19 
ROOT
HETATM    1  C           1     -11.460   8.347 -19.749  0.00  0.00     0.278 C 
ENDROOT
BRANCH   1   2
HETATM    2  C           1     -12.157   7.301 -20.584  0.00  0.00     0.249 C 
HETATM    3  N           1     -12.567   6.128 -20.010  0.00  0.00    -0.344 N 
HETATM    4  H           1     -12.402   5.962 -19.025  0.00  0.00     0.163 HD
HETATM    5  O           1     -12.353   7.498 -21.760  0.00  0.00    -0.271 OA
BRANCH   3   6
HETATM    6  C           1     -13.235   5.122 -20.812  0.00  0.00     0.189 C 
BRANCH   6   7
HETATM    7  C           1     -14.726   5.225 -20.607  0.00  0.00     0.197 C 
HETATM    8  O           1     -15.487   5.325 -21.594  0.00  0.00    -0.646 OA
HETATM    9  O           1     -15.202   5.208 -19.451  0.00  0.00    -0.646 OA
ENDBRANCH   6   7
BRANCH   6  10
HETATM   10  C           1     -12.759   3.737 -20.392  0.00  0.00     0.010 C 
HETATM   11  C           1     -11.238   3.716 -20.337  0.00  0.00     0.012 C 
HETATM   12  C           1     -13.245   2.707 -21.403  0.00  0.00     0.012 C 
ENDBRANCH   6  10
ENDBRANCH   3   6
ENDBRANCH   1   2
BRANCH   1  13
HETATM   13  C           1     -11.780   9.732 -20.297  0.00  0.00     0.081 C 
BRANCH  13  14
HETATM   14  C           1     -12.989  10.277 -19.603  0.00  0.00    -0.056 A 
HETATM   15  C           1     -13.342   9.802 -18.340  0.00  0.00     0.007 A 
HETATM   16  C           1     -14.468  10.310 -17.693  0.00  0.00     0.001 A 
HETATM   17  C           1     -15.241  11.294 -18.308  0.00  0.00     0.000 A 
HETATM   18  C           1     -14.888  11.771 -19.571  0.00  0.00     0.001 A 
HETATM   19  C           1     -13.762  11.262 -20.218  0.00  0.00     0.007 A 
ENDBRANCH  13  14
ENDBRANCH   1  13
BRANCH   1  20
HETATM   20  N           1      -9.978   8.121 -19.798  0.00  0.00    -0.066 N 
HETATM   21  H           1      -9.639   7.822 -18.856  0.00  0.00     0.275 HD
HETATM   22  H           1      -9.764   7.375 -20.498  0.00  0.00     0.275 HD
HETATM   23  H           1      -9.500   9.008 -20.076  0.00  0.00     0.275 HD
ENDBRANCH   1  20
TORSDOF 7
ENDMDL
MODEL 9
REMARK VINA RESULT:      -6.1      5.640      8.693
REMARK  7 active torsions:
REMARK  status: ('A' for Active; 'I' for Inactive)
REMARK    1  A    between atoms: C_1  and  C_6 
REMARK    2  A    between atoms: C_1  and  C_13 
REMARK    3  A    between atoms: C_1  and  N_2 
REMARK    4  A    between atoms: N_4  and  C_17 
REMARK       I    between atoms: N_4  and  C_6 
REMARK    5  A    between atoms: C_11  and  C_13 
REMARK    6  A    between atoms: C_15  and  C_17 
REMARK    7  A    between atoms: C_17  and  C_19 
ROOT
HETATM    1  C           1     -20.500 -10.181  -3.602  0.00  0.00     0.278 C 
ENDROOT
BRANCH   1   2
HETATM    2  C           1     -20.243  -9.428  -2.319  0.00  0.00     0.249 C 
HETATM    3  N           1     -21.217  -9.356  -1.361  0.00  0.00    -0.344 N 
HETATM    4  H           1     -22.110  -9.808  -1.512  0.00  0.00     0.163 HD
HETATM    5  O           1     -19.177  -8.888  -2.139  0.00  0.00    -0.271 OA
BRANCH   3   6
HETATM    6  C           1     -20.971  -8.632  -0.129  0.00  0.00     0.189 C 
BRANCH   6   7
HETATM    7  C           1     -20.863  -9.609   1.016  0.00  0.00     0.197 C 
HETATM    8  O           1     -20.542  -9.204   2.154  0.00  0.00    -0.646 OA
HETATM    9  O           1     -21.094 -10.822   0.827  0.00  0.00    -0.646 OA
ENDBRANCH   6   7
BRANCH   6  10
HETATM   10  C           1     -22.122  -7.668   0.134  0.00  0.00     0.010 C 
HETATM   11  C           1     -23.403  -8.457   0.369  0.00  0.00     0.012 C 
HETATM   12  C           1     -22.302  -6.755  -1.071  0.00  0.00     0.012 C 
ENDBRANCH   6  10
ENDBRANCH   3   6
ENDBRANCH   1   2
BRANCH   1  13
HETATM   13  C           1     -21.712  -9.586  -4.307  0.00  0.00     0.081 C 
BRANCH  13  14
HETATM   14  C           1     -21.353  -8.249  -4.874  0.00  0.00    -0.056 A 
HETATM   15  C           1     -22.245  -7.181  -4.764  0.00  0.00     0.007 A 
HETATM   16  C           1     -21.910  -5.935  -5.293  0.00  0.00     0.001 A 
HETATM   17  C           1     -20.684  -5.755  -5.932  0.00  0.00     0.000 A 
HETATM   18  C           1     -19.791  -6.821  -6.041  0.00  0.00     0.001 A 
HETATM   19  C           1     -20.126  -8.068  -5.513  0.00  0.00     0.007 A 
ENDBRANCH  13  14
ENDBRANCH   1  13
BRANCH   1  20
HETATM   20  N           1     -20.763 -11.624  -3.290  0.00  0.00    -0.066 N 
HETATM   21  H           1     -21.685 -11.715  -2.806  0.00  0.00     0.275 HD
HETATM   22  H           1     -20.780 -12.174  -4.178  0.00  0.00     0.275 HD
HETATM   23  H           1     -20.005 -11.989  -2.668  0.00  0.00     0.275 HD
ENDBRANCH   1  20
TORSDOF 7
ENDMDL
