MODEL 1
REMARK VINA RESULT:      -6.5      0.000      0.000
REMARK  6 active torsions:
REMARK  status: ('A' for Active; 'I' for Inactive)
REMARK    1  A    between atoms: C_1  and  C_15 
REMARK    2  A    between atoms: N_6  and  C_13 
REMARK    3  A    between atoms: N_7  and  C_15 
REMARK       I    between atoms: N_7  and  C_17 
REMARK    4  A    between atoms: C_13  and  C_17 
REMARK    5  A    between atoms: C_13  and  C_14 
REMARK    6  A    between atoms: C_14  and  C_16 
ROOT
HETATM    1  C           1     -23.279  -3.596  -9.229  0.00  0.00     0.275 C 
ENDROOT
BRANCH   1   2
HETATM    2  N           1     -24.096  -4.043  -8.053  0.00  0.00    -0.066 N 
HETATM    3  H           1     -25.081  -4.216  -8.359  0.00  0.00     0.275 HD
HETATM    4  H           1     -23.694  -4.925  -7.664  0.00  0.00     0.275 HD
HETATM    5  H           1     -24.085  -3.300  -7.319  0.00  0.00     0.275 HD
ENDBRANCH   1   2
BRANCH   1   6
HETATM    6  C           1     -24.191  -3.328 -10.401  0.00  0.00     0.248 C 
HETATM    7  O           1     -25.386  -3.266 -10.235  0.00  0.00    -0.271 OA
HETATM    8  N           1     -23.664  -3.155 -11.653  0.00  0.00    -0.349 N 
HETATM    9  H           1     -22.663  -3.207 -11.793  0.00  0.00     0.163 HD
BRANCH   8  10
HETATM   10  C           1     -24.541  -2.898 -12.779  0.00  0.00     0.235 C 
BRANCH  10  11
HETATM   11  C           1     -23.729  -2.377 -13.940  0.00  0.00     0.191 C 
HETATM   12  O           1     -22.612  -2.876 -14.196  0.00  0.00    -0.647 OA
HETATM   13  O           1     -24.174  -1.446 -14.645  0.00  0.00    -0.647 OA
ENDBRANCH  10  11
ENDBRANCH   8  10
ENDBRANCH   1   6
BRANCH   1  14
HETATM   14  C           1     -22.282  -4.685  -9.598  0.00  0.00     0.046 C 
BRANCH  14  15
HETATM   15  C           1     -20.870  -4.114  -9.567  0.00  0.00    -0.020 C 
HETATM   16  C           1     -20.207  -4.327 -10.922  0.00  0.00     0.009 C 
HETATM   17  C           1     -20.059  -4.821  -8.489  0.00  0.00     0.009 C 
ENDBRANCH  14  15
ENDBRANCH   1  14
TORSDOF 6
ENDMDL
MODEL 2
REMARK VINA RESULT:      -6.5     11.004     12.412
REMARK  6 active torsions:
REMARK  status: ('A' for Active; 'I' for Inactive)
REMARK    1  A    between atoms: C_1  and  C_15 
REMARK    2  A    between atoms: N_6  and  C_13 
REMARK    3  A    between atoms: N_7  and  C_15 
REMARK       I    between atoms: N_7  and  C_17 
REMARK    4  A    between atoms: C_13  and  C_17 
REMARK    5  A    between atoms: C_13  and  C_14 
REMARK    6  A    between atoms: C_14  and  C_16 
ROOT
HETATM    1  C           1     -34.657  -1.642 -11.986  0.00  0.00     0.275 C 
ENDROOT
BRANCH   1   2
HETATM    2  N           1     -35.206  -1.246 -10.647  0.00  0.00    -0.066 N 
HETATM    3  H           1     -35.993  -1.884 -10.390  0.00  0.00     0.275 HD
HETATM    4  H           1     -34.452  -1.317  -9.927  0.00  0.00     0.275 HD
HETATM    5  H           1     -35.556  -0.262 -10.692  0.00  0.00     0.275 HD
ENDBRANCH   1   2
BRANCH   1   6
HETATM    6  C           1     -35.504  -1.031 -13.076  0.00  0.00     0.248 C 
HETATM    7  O           1     -36.709  -1.056 -12.990  0.00  0.00    -0.271 OA
HETATM    8  N           1     -34.908  -0.449 -14.161  0.00  0.00    -0.349 N 
HETATM    9  H           1     -33.898  -0.428 -14.234  0.00  0.00     0.163 HD
BRANCH   8  10
HETATM   10  C           1     -35.722   0.138 -15.208  0.00  0.00     0.235 C 
BRANCH  10  11
HETATM   11  C           1     -35.834  -0.830 -16.361  0.00  0.00     0.191 C 
HETATM   12  O           1     -34.911  -1.642 -16.588  0.00  0.00    -0.647 OA
HETATM   13  O           1     -36.850  -0.820 -17.089  0.00  0.00    -0.647 OA
ENDBRANCH  10  11
ENDBRANCH   8  10
ENDBRANCH   1   6
BRANCH   1  14
HETATM   14  C           1     -34.678  -3.159 -12.115  0.00  0.00     0.046 C 
BRANCH  14  15
HETATM   15  C           1     -33.615  -3.761 -11.206  0.00  0.00    -0.020 C 
HETATM   16  C           1     -32.443  -4.246 -12.050  0.00  0.00     0.009 C 
HETATM   17  C           1     -34.206  -4.936 -10.439  0.00  0.00     0.009 C 
ENDBRANCH  14  15
ENDBRANCH   1  14
TORSDOF 6
ENDMDL
MODEL 3
REMARK VINA RESULT:      -6.1      1.894      2.265
REMARK  6 active torsions:
REMARK  status: ('A' for Active; 'I' for Inactive)
REMARK    1  A    between atoms: C_1  and  C_15 
REMARK    2  A    between atoms: N_6  and  C_13 
REMARK    3  A    between atoms: N_7  and  C_15 
REMARK       I    between atoms: N_7  and  C_17 
REMARK    4  A    between atoms: C_13  and  C_17 
REMARK    5  A    between atoms: C_13  and  C_14 
REMARK    6  A    between atoms: C_14  and  C_16 
ROOT
HETATM    1  C           1     -22.482  -3.695  -8.814  0.00  0.00     0.275 C 
ENDROOT
BRANCH   1   2
HETATM    2  N           1     -23.962  -3.855  -8.628  0.00  0.00    -0.066 N 
HETATM    3  H           1     -24.463  -3.440  -9.446  0.00  0.00     0.275 HD
HETATM    4  H           1     -24.197  -4.870  -8.555  0.00  0.00     0.275 HD
HETATM    5  H           1     -24.258  -3.363  -7.754  0.00  0.00     0.275 HD
ENDBRANCH   1   2
BRANCH   1   6
HETATM    6  C           1     -22.146  -3.800 -10.281  0.00  0.00     0.248 C 
HETATM    7  O           1     -21.302  -4.580 -10.653  0.00  0.00    -0.271 OA
HETATM    8  N           1     -22.799  -3.013 -11.191  0.00  0.00    -0.349 N 
HETATM    9  H           1     -23.506  -2.360 -10.881  0.00  0.00     0.163 HD
BRANCH   8  10
HETATM   10  C           1     -22.476  -3.115 -12.602  0.00  0.00     0.235 C 
BRANCH  10  11
HETATM   11  C           1     -23.746  -3.050 -13.415  0.00  0.00     0.191 C 
HETATM   12  O           1     -24.845  -2.880 -12.845  0.00  0.00    -0.647 OA
HETATM   13  O           1     -23.697  -3.166 -14.658  0.00  0.00    -0.647 OA
ENDBRANCH  10  11
ENDBRANCH   8  10
ENDBRANCH   1   6
BRANCH   1  14
HETATM   14  C           1     -21.753  -4.788  -8.044  0.00  0.00     0.046 C 
BRANCH  14  15
HETATM   15  C           1     -20.692  -4.159  -7.151  0.00  0.00    -0.020 C 
HETATM   16  C           1     -19.331  -4.270  -7.825  0.00  0.00     0.009 C 
HETATM   17  C           1     -20.656  -4.887  -5.814  0.00  0.00     0.009 C 
ENDBRANCH  14  15
ENDBRANCH   1  14
TORSDOF 6
ENDMDL
MODEL 4
REMARK VINA RESULT:      -6.1      1.864      2.337
REMARK  6 active torsions:
REMARK  status: ('A' for Active; 'I' for Inactive)
REMARK    1  A    between atoms: C_1  and  C_15 
REMARK    2  A    between atoms: N_6  and  C_13 
REMARK    3  A    between atoms: N_7  and  C_15 
REMARK       I    between atoms: N_7  and  C_17 
REMARK    4  A    between atoms: C_13  and  C_17 
REMARK    5  A    between atoms: C_13  and  C_14 
REMARK    6  A    between atoms: C_14  and  C_16 
ROOT
HETATM    1  C           1     -21.362  -4.352 -10.838  0.00  0.00     0.275 C 
ENDROOT
BRANCH   1   2
HETATM    2  N           1     -20.204  -3.639 -11.471  0.00  0.00    -0.066 N 
HETATM    3  H           1     -19.753  -4.265 -12.176  0.00  0.00     0.275 HD
HETATM    4  H           1     -20.544  -2.771 -11.942  0.00  0.00     0.275 HD
HETATM    5  H           1     -19.507  -3.386 -10.734  0.00  0.00     0.275 HD
ENDBRANCH   1   2
BRANCH   1   6
HETATM    6  C           1     -22.610  -4.101 -11.650  0.00  0.00     0.248 C 
HETATM    7  O           1     -23.497  -4.921 -11.662  0.00  0.00    -0.271 OA
HETATM    8  N           1     -22.736  -2.946 -12.372  0.00  0.00    -0.349 N 
HETATM    9  H           1     -21.993  -2.259 -12.363  0.00  0.00     0.163 HD
BRANCH   8  10
HETATM   10  C           1     -23.935  -2.705 -13.152  0.00  0.00     0.235 C 
BRANCH  10  11
HETATM   11  C           1     -23.553  -2.161 -14.507  0.00  0.00     0.191 C 
HETATM   12  O           1     -22.666  -2.728 -15.182  0.00  0.00    -0.647 OA
HETATM   13  O           1     -24.124  -1.144 -14.955  0.00  0.00    -0.647 OA
ENDBRANCH  10  11
ENDBRANCH   8  10
ENDBRANCH   1   6
BRANCH   1  14
HETATM   14  C           1     -21.565  -3.834  -9.421  0.00  0.00     0.046 C 
BRANCH  14  15
HETATM   15  C           1     -20.949  -4.813  -8.429  0.00  0.00    -0.020 C 
HETATM   16  C           1     -21.833  -4.903  -7.192  0.00  0.00     0.009 C 
HETATM   17  C           1     -19.563  -4.326  -8.028  0.00  0.00     0.009 C 
ENDBRANCH  14  15
ENDBRANCH   1  14
TORSDOF 6
ENDMDL
MODEL 5
REMARK VINA RESULT:      -5.6      3.316      5.809
REMARK  6 active torsions:
REMARK  status: ('A' for Active; 'I' for Inactive)
REMARK    1  A    between atoms: C_1  and  C_15 
REMARK    2  A    between atoms: N_6  and  C_13 
REMARK    3  A    between atoms: N_7  and  C_15 
REMARK       I    between atoms: N_7  and  C_17 
REMARK    4  A    between atoms: C_13  and  C_17 
REMARK    5  A    between atoms: C_13  and  C_14 
REMARK    6  A    between atoms: C_14  and  C_16 
ROOT
HETATM    1  C           1     -23.992  -4.420  -9.503  0.00  0.00     0.275 C 
ENDROOT
BRANCH   1   2
HETATM    2  N           1     -24.678  -3.129  -9.164  0.00  0.00    -0.066 N 
HETATM    3  H           1     -23.983  -2.349  -9.185  0.00  0.00     0.275 HD
HETATM    4  H           1     -25.432  -2.942  -9.862  0.00  0.00     0.275 HD
HETATM    5  H           1     -25.094  -3.198  -8.208  0.00  0.00     0.275 HD
ENDBRANCH   1   2
BRANCH   1   6
HETATM    6  C           1     -22.699  -4.519  -8.729  0.00  0.00     0.248 C 
HETATM    7  O           1     -21.678  -4.825  -9.297  0.00  0.00    -0.271 OA
HETATM    8  N           1     -22.685  -4.263  -7.385  0.00  0.00    -0.349 N 
HETATM    9  H           1     -23.541  -4.007  -6.909  0.00  0.00     0.163 HD
BRANCH   8  10
HETATM   10  C           1     -21.443  -4.359  -6.642  0.00  0.00     0.235 C 
BRANCH  10  11
HETATM   11  C           1     -21.375  -5.696  -5.945  0.00  0.00     0.191 C 
HETATM   12  O           1     -20.936  -6.696  -6.552  0.00  0.00    -0.647 OA
HETATM   13  O           1     -21.758  -5.803  -4.760  0.00  0.00    -0.647 OA
ENDBRANCH  10  11
ENDBRANCH   8  10
ENDBRANCH   1   6
BRANCH   1  14
HETATM   14  C           1     -23.695  -4.461 -10.996  0.00  0.00     0.046 C 
BRANCH  14  15
HETATM   15  C           1     -23.663  -3.041 -11.546  0.00  0.00    -0.020 C 
HETATM   16  C           1     -24.595  -2.941 -12.747  0.00  0.00     0.009 C 
HETATM   17  C           1     -22.243  -2.695 -11.977  0.00  0.00     0.009 C 
ENDBRANCH  14  15
ENDBRANCH   1  14
TORSDOF 6
ENDMDL
MODEL 6
REMARK VINA RESULT:      -5.6      2.414      3.351
REMARK  6 active torsions:
REMARK  status: ('A' for Active; 'I' for Inactive)
REMARK    1  A    between atoms: C_1  and  C_15 
REMARK    2  A    between atoms: N_6  and  C_13 
REMARK    3  A    between atoms: N_7  and  C_15 
REMARK       I    between atoms: N_7  and  C_17 
REMARK    4  A    between atoms: C_13  and  C_17 
REMARK    5  A    between atoms: C_13  and  C_14 
REMARK    6  A    between atoms: C_14  and  C_16 
ROOT
HETATM    1  C           1     -22.053  -4.562  -7.608  0.00  0.00     0.275 C 
ENDROOT
BRANCH   1   2
HETATM    2  N           1     -23.465  -4.429  -7.118  0.00  0.00    -0.066 N 
HETATM    3  H           1     -24.094  -5.027  -7.702  0.00  0.00     0.275 HD
HETATM    4  H           1     -23.518  -4.737  -6.122  0.00  0.00     0.275 HD
HETATM    5  H           1     -23.766  -3.431  -7.193  0.00  0.00     0.275 HD
ENDBRANCH   1   2
BRANCH   1   6
HETATM    6  C           1     -22.012  -4.307  -9.095  0.00  0.00     0.248 C 
HETATM    7  O           1     -21.020  -3.838  -9.601  0.00  0.00    -0.271 OA
HETATM    8  N           1     -23.098  -4.607  -9.871  0.00  0.00    -0.349 N 
HETATM    9  H           1     -23.930  -5.000  -9.449  0.00  0.00     0.163 HD
BRANCH   8  10
HETATM   10  C           1     -23.059  -4.363 -11.301  0.00  0.00     0.235 C 
BRANCH  10  11
HETATM   11  C           1     -24.135  -3.372 -11.672  0.00  0.00     0.191 C 
HETATM   12  O           1     -25.096  -3.174 -10.898  0.00  0.00    -0.647 OA
HETATM   13  O           1     -24.065  -2.751 -12.754  0.00  0.00    -0.647 OA
ENDBRANCH  10  11
ENDBRANCH   8  10
ENDBRANCH   1   6
BRANCH   1  14
HETATM   14  C           1     -21.545  -5.968  -7.318  0.00  0.00     0.046 C 
BRANCH  14  15
HETATM   15  C           1     -20.620  -5.934  -6.109  0.00  0.00    -0.020 C 
HETATM   16  C           1     -21.403  -6.318  -4.860  0.00  0.00     0.009 C 
HETATM   17  C           1     -20.055  -4.530  -5.940  0.00  0.00     0.009 C 
ENDBRANCH  14  15
ENDBRANCH   1  14
TORSDOF 6
ENDMDL
MODEL 7
REMARK VINA RESULT:      -5.6     11.742     13.653
REMARK  6 active torsions:
REMARK  status: ('A' for Active; 'I' for Inactive)
REMARK    1  A    between atoms: C_1  and  C_15 
REMARK    2  A    between atoms: N_6  and  C_13 
REMARK    3  A    between atoms: N_7  and  C_15 
REMARK       I    between atoms: N_7  and  C_17 
REMARK    4  A    between atoms: C_13  and  C_17 
REMARK    5  A    between atoms: C_13  and  C_14 
REMARK    6  A    between atoms: C_14  and  C_16 
ROOT
HETATM    1  C           1     -35.445  -1.171 -12.521  0.00  0.00     0.275 C 
ENDROOT
BRANCH   1   2
HETATM    2  N           1     -34.821  -0.119 -13.390  0.00  0.00    -0.066 N 
HETATM    3  H           1     -33.807  -0.029 -13.155  0.00  0.00     0.275 HD
HETATM    4  H           1     -34.923  -0.390 -14.393  0.00  0.00     0.275 HD
HETATM    5  H           1     -35.299   0.796 -13.225  0.00  0.00     0.275 HD
ENDBRANCH   1   2
BRANCH   1   6
HETATM    6  C           1     -36.534  -0.548 -11.682  0.00  0.00     0.248 C 
HETATM    7  O           1     -37.694  -0.731 -11.966  0.00  0.00    -0.271 OA
HETATM    8  N           1     -36.208   0.224 -10.600  0.00  0.00    -0.349 N 
HETATM    9  H           1     -35.237   0.377 -10.361  0.00  0.00     0.163 HD
BRANCH   8  10
HETATM   10  C           1     -37.256   0.822  -9.794  0.00  0.00     0.235 C 
BRANCH  10  11
HETATM   11  C           1     -36.774   0.969  -8.371  0.00  0.00     0.191 C 
HETATM   12  O           1     -37.372   1.735  -7.585  0.00  0.00    -0.647 OA
HETATM   13  O           1     -35.778   0.324  -7.980  0.00  0.00    -0.647 OA
ENDBRANCH  10  11
ENDBRANCH   8  10
ENDBRANCH   1   6
BRANCH   1  14
HETATM   14  C           1     -34.382  -1.772 -11.611  0.00  0.00     0.046 C 
BRANCH  14  15
HETATM   15  C           1     -34.270  -3.267 -11.879  0.00  0.00    -0.020 C 
HETATM   16  C           1     -35.247  -4.018 -10.984  0.00  0.00     0.009 C 
HETATM   17  C           1     -32.850  -3.731 -11.582  0.00  0.00     0.009 C 
ENDBRANCH  14  15
ENDBRANCH   1  14
TORSDOF 6
ENDMDL
MODEL 8
REMARK VINA RESULT:      -5.5      3.512      5.116
REMARK  6 active torsions:
REMARK  status: ('A' for Active; 'I' for Inactive)
REMARK    1  A    between atoms: C_1  and  C_15 
REMARK    2  A    between atoms: N_6  and  C_13 
REMARK    3  A    between atoms: N_7  and  C_15 
REMARK       I    between atoms: N_7  and  C_17 
REMARK    4  A    between atoms: C_13  and  C_17 
REMARK    5  A    between atoms: C_13  and  C_14 
REMARK    6  A    between atoms: C_14  and  C_16 
ROOT
HETATM    1  C           1     -21.104  -5.824  -6.755  0.00  0.00     0.275 C 
ENDROOT
BRANCH   1   2
HETATM    2  N           1     -19.797  -6.235  -7.367  0.00  0.00    -0.066 N 
HETATM    3  H           1     -19.979  -6.819  -8.215  0.00  0.00     0.275 HD
HETATM    4  H           1     -19.257  -5.384  -7.640  0.00  0.00     0.275 HD
HETATM    5  H           1     -19.247  -6.791  -6.673  0.00  0.00     0.275 HD
ENDBRANCH   1   2
BRANCH   1   6
HETATM    6  C           1     -21.627  -4.599  -7.464  0.00  0.00     0.248 C 
HETATM    7  O           1     -21.434  -3.502  -6.996  0.00  0.00    -0.271 OA
HETATM    8  N           1     -22.321  -4.730  -8.636  0.00  0.00    -0.349 N 
HETATM    9  H           1     -22.483  -5.649  -9.028  0.00  0.00     0.163 HD
BRANCH   8  10
HETATM   10  C           1     -22.824  -3.553  -9.317  0.00  0.00     0.235 C 
BRANCH  10  11
HETATM   11  C           1     -24.286  -3.744  -9.640  0.00  0.00     0.191 C 
HETATM   12  O           1     -25.082  -2.788  -9.521  0.00  0.00    -0.647 OA
HETATM   13  O           1     -24.699  -4.858 -10.027  0.00  0.00    -0.647 OA
ENDBRANCH  10  11
ENDBRANCH   8  10
ENDBRANCH   1   6
BRANCH   1  14
HETATM   14  C           1     -20.895  -5.509  -5.279  0.00  0.00     0.046 C 
BRANCH  14  15
HETATM   15  C           1     -21.823  -6.376  -4.439  0.00  0.00    -0.020 C 
HETATM   16  C           1     -21.492  -6.191  -2.964  0.00  0.00     0.009 C 
HETATM   17  C           1     -21.637  -7.839  -4.820  0.00  0.00     0.009 C 
ENDBRANCH  14  15
ENDBRANCH   1  14
TORSDOF 6
ENDMDL
MODEL 9
REMARK VINA RESULT:      -5.1      4.739      7.317
REMARK  6 active torsions:
REMARK  status: ('A' for Active; 'I' for Inactive)
REMARK    1  A    between atoms: C_1  and  C_15 
REMARK    2  A    between atoms: N_6  and  C_13 
REMARK    3  A    between atoms: N_7  and  C_15 
REMARK       I    between atoms: N_7  and  C_17 
REMARK    4  A    between atoms: C_13  and  C_17 
REMARK    5  A    between atoms: C_13  and  C_14 
REMARK    6  A    between atoms: C_14  and  C_16 
ROOT
HETATM    1  C           1     -21.952  -4.608  -7.779  0.00  0.00     0.275 C 
ENDROOT
BRANCH   1   2
HETATM    2  N           1     -21.716  -3.261  -7.162  0.00  0.00    -0.066 N 
HETATM    3  H           1     -22.490  -2.613  -7.432  0.00  0.00     0.275 HD
HETATM    4  H           1     -21.688  -3.355  -6.122  0.00  0.00     0.275 HD
HETATM    5  H           1     -20.805  -2.877  -7.503  0.00  0.00     0.275 HD
ENDBRANCH   1   2
BRANCH   1   6
HETATM    6  C           1     -21.253  -5.665  -6.960  0.00  0.00     0.248 C 
HETATM    7  O           1     -20.310  -6.263  -7.423  0.00  0.00    -0.271 OA
HETATM    8  N           1     -21.687  -5.948  -5.693  0.00  0.00    -0.349 N 
HETATM    9  H           1     -22.477  -5.448  -5.305  0.00  0.00     0.163 HD
BRANCH   8  10
HETATM   10  C           1     -21.015  -6.964  -4.906  0.00  0.00     0.235 C 
BRANCH  10  11
HETATM   11  C           1     -21.591  -6.984  -3.511  0.00  0.00     0.191 C 
HETATM   12  O           1     -21.409  -7.976  -2.773  0.00  0.00    -0.647 OA
HETATM   13  O           1     -22.250  -6.008  -3.094  0.00  0.00    -0.647 OA
ENDBRANCH  10  11
ENDBRANCH   8  10
ENDBRANCH   1   6
BRANCH   1  14
HETATM   14  C           1     -21.404  -4.618  -9.199  0.00  0.00     0.046 C 
BRANCH  14  15
HETATM   15  C           1     -22.348  -3.850 -10.114  0.00  0.00    -0.020 C 
HETATM   16  C           1     -23.443  -4.784 -10.612  0.00  0.00     0.009 C 
HETATM   17  C           1     -21.570  -3.303 -11.304  0.00  0.00     0.009 C 
ENDBRANCH  14  15
ENDBRANCH   1  14
TORSDOF 6
ENDMDL
