MODEL 1
REMARK VINA RESULT:      -8.3      0.000      0.000
REMARK  5 active torsions:
REMARK  status: ('A' for Active; 'I' for Inactive)
REMARK    1  A    between atoms: C_1  and  C_2 
REMARK       I    between atoms: C_9  and  N_19 
REMARK    2  A    between atoms: C_9  and  C_11 
REMARK    3  A    between atoms: C_11  and  C_13 
REMARK    4  A    between atoms: C_11  and  N_21 
REMARK    5  A    between atoms: C_13  and  C_18 
ROOT
HETATM    1  C           1     -21.008  -5.334  -5.916  0.00  0.00     0.279 C 
ENDROOT
BRANCH   1   2
HETATM    2  C           1     -21.044  -6.787  -5.510  0.00  0.00     0.251 C 
HETATM    3  N           1     -21.390  -7.131  -4.231  0.00  0.00    -0.336 N 
HETATM    4  C           1     -20.732  -8.103  -3.363  0.00  0.00     0.188 C 
HETATM    5  C           1     -22.497  -6.606  -3.437  0.00  0.00     0.127 C 
HETATM    6  C           1     -20.742  -7.436  -1.999  0.00  0.00     0.038 C 
HETATM    7  C           1     -21.907  -6.454  -2.046  0.00  0.00     0.022 C 
HETATM    8  O           1     -20.770  -7.645  -6.313  0.00  0.00    -0.271 OA
BRANCH   4   9
HETATM    9  C           1     -21.500  -9.401  -3.332  0.00  0.00     0.196 C 
HETATM   10  O           1     -21.912  -9.858  -2.243  0.00  0.00    -0.646 OA
HETATM   11  O           1     -21.727 -10.020  -4.395  0.00  0.00    -0.646 OA
ENDBRANCH   4   9
ENDBRANCH   1   2
BRANCH   1  12
HETATM   12  C           1     -20.747  -5.230  -7.413  0.00  0.00     0.083 C 
BRANCH  12  13
HETATM   13  C           1     -21.942  -4.633  -8.088  0.00  0.00    -0.028 A 
HETATM   14  C           1     -23.170  -4.402  -7.511  0.00  0.00     0.096 A 
HETATM   15  N           1     -23.983  -3.848  -8.463  0.00  0.00    -0.365 N 
HETATM   16  C           1     -23.302  -3.715  -9.652  0.00  0.00     0.042 A 
HETATM   17  H           1     -24.982  -3.565  -8.309  0.00  0.00     0.165 HD
HETATM   18  C           1     -23.726  -3.205 -10.886  0.00  0.00     0.030 A 
HETATM   19  C           1     -22.013  -4.203  -9.443  0.00  0.00    -0.002 A 
HETATM   20  C           1     -22.799  -3.195 -11.934  0.00  0.00     0.002 A 
HETATM   21  C           1     -21.504  -3.676 -11.753  0.00  0.00     0.001 A 
HETATM   22  C           1     -21.097  -4.182 -10.513  0.00  0.00     0.014 A 
ENDBRANCH  12  13
ENDBRANCH   1  12
BRANCH   1  23
HETATM   23  N           1     -19.913  -4.634  -5.168  0.00  0.00    -0.066 N 
HETATM   24  H           1     -19.307  -4.113  -5.843  0.00  0.00     0.275 HD
HETATM   25  H           1     -20.332  -3.961  -4.488  0.00  0.00     0.275 HD
HETATM   26  H           1     -19.337  -5.338  -4.654  0.00  0.00     0.275 HD
ENDBRANCH   1  23
TORSDOF 5
ENDMDL
MODEL 2
REMARK VINA RESULT:      -8.1      1.752      2.119
REMARK  5 active torsions:
REMARK  status: ('A' for Active; 'I' for Inactive)
REMARK    1  A    between atoms: C_1  and  C_2 
REMARK       I    between atoms: C_9  and  N_19 
REMARK    2  A    between atoms: C_9  and  C_11 
REMARK    3  A    between atoms: C_11  and  C_13 
REMARK    4  A    between atoms: C_11  and  N_21 
REMARK    5  A    between atoms: C_13  and  C_18 
ROOT
HETATM    1  C           1     -21.258  -6.038  -5.535  0.00  0.00     0.279 C 
ENDROOT
BRANCH   1   2
HETATM    2  C           1     -20.271  -7.152  -5.778  0.00  0.00     0.251 C 
HETATM    3  N           1     -20.259  -8.247  -4.955  0.00  0.00    -0.336 N 
HETATM    4  C           1     -19.096  -8.907  -4.369  0.00  0.00     0.188 C 
HETATM    5  C           1     -21.406  -9.010  -4.473  0.00  0.00     0.127 C 
HETATM    6  C           1     -19.540  -9.237  -2.955  0.00  0.00     0.038 C 
HETATM    7  C           1     -21.061  -9.309  -3.025  0.00  0.00     0.022 C 
HETATM    8  O           1     -19.492  -7.080  -6.698  0.00  0.00    -0.271 OA
BRANCH   4   9
HETATM    9  C           1     -18.750 -10.162  -5.132  0.00  0.00     0.196 C 
HETATM   10  O           1     -18.550 -10.110  -6.365  0.00  0.00    -0.646 OA
HETATM   11  O           1     -18.662 -11.255  -4.531  0.00  0.00    -0.646 OA
ENDBRANCH   4   9
ENDBRANCH   1   2
BRANCH   1  12
HETATM   12  C           1     -20.821  -4.794  -6.298  0.00  0.00     0.083 C 
BRANCH  12  13
HETATM   13  C           1     -21.834  -4.474  -7.352  0.00  0.00    -0.028 A 
HETATM   14  C           1     -23.194  -4.379  -7.168  0.00  0.00     0.096 A 
HETATM   15  N           1     -23.761  -4.069  -8.376  0.00  0.00    -0.365 N 
HETATM   16  C           1     -22.787  -3.961  -9.344  0.00  0.00     0.042 A 
HETATM   17  H           1     -24.788  -3.934  -8.541  0.00  0.00     0.165 HD
HETATM   18  C           1     -22.896  -3.664 -10.708  0.00  0.00     0.030 A 
HETATM   19  C           1     -21.563  -4.212  -8.724  0.00  0.00    -0.002 A 
HETATM   20  C           1     -21.715  -3.622 -11.457  0.00  0.00     0.002 A 
HETATM   21  C           1     -20.479  -3.868 -10.863  0.00  0.00     0.001 A 
HETATM   22  C           1     -20.388  -4.164  -9.498  0.00  0.00     0.014 A 
ENDBRANCH  12  13
ENDBRANCH   1  12
BRANCH   1  23
HETATM   23  N           1     -21.312  -5.730  -4.068  0.00  0.00    -0.066 N 
HETATM   24  H           1     -21.189  -4.702  -3.922  0.00  0.00     0.275 HD
HETATM   25  H           1     -22.238  -6.026  -3.684  0.00  0.00     0.275 HD
HETATM   26  H           1     -20.548  -6.246  -3.575  0.00  0.00     0.275 HD
ENDBRANCH   1  23
TORSDOF 5
ENDMDL
MODEL 3
REMARK VINA RESULT:      -7.8      2.564      7.589
REMARK  5 active torsions:
REMARK  status: ('A' for Active; 'I' for Inactive)
REMARK    1  A    between atoms: C_1  and  C_2 
REMARK       I    between atoms: C_9  and  N_19 
REMARK    2  A    between atoms: C_9  and  C_11 
REMARK    3  A    between atoms: C_11  and  C_13 
REMARK    4  A    between atoms: C_11  and  N_21 
REMARK    5  A    between atoms: C_13  and  C_18 
ROOT
HETATM    1  C           1     -20.793  -4.868  -7.306  0.00  0.00     0.279 C 
ENDROOT
BRANCH   1   2
HETATM    2  C           1     -22.144  -4.523  -7.883  0.00  0.00     0.251 C 
HETATM    3  N           1     -22.278  -4.306  -9.228  0.00  0.00    -0.336 N 
HETATM    4  C           1     -23.010  -3.228  -9.886  0.00  0.00     0.188 C 
HETATM    5  C           1     -21.720  -5.102 -10.318  0.00  0.00     0.127 C 
HETATM    6  C           1     -22.108  -2.829 -11.041  0.00  0.00     0.038 C 
HETATM    7  C           1     -21.262  -4.065 -11.328  0.00  0.00     0.022 C 
HETATM    8  O           1     -23.106  -4.440  -7.159  0.00  0.00    -0.271 OA
BRANCH   4   9
HETATM    9  C           1     -24.346  -3.717 -10.391  0.00  0.00     0.196 C 
HETATM   10  O           1     -24.908  -4.685  -9.834  0.00  0.00    -0.646 OA
HETATM   11  O           1     -24.891  -3.154 -11.365  0.00  0.00    -0.646 OA
ENDBRANCH   4   9
ENDBRANCH   1   2
BRANCH   1  12
HETATM   12  C           1     -20.852  -4.790  -5.786  0.00  0.00     0.083 C 
BRANCH  12  13
HETATM   13  C           1     -20.695  -6.161  -5.209  0.00  0.00    -0.028 A 
HETATM   14  C           1     -20.114  -7.242  -5.830  0.00  0.00     0.096 A 
HETATM   15  N           1     -20.170  -8.303  -4.966  0.00  0.00    -0.365 N 
HETATM   16  C           1     -20.781  -7.928  -3.790  0.00  0.00     0.042 A 
HETATM   17  H           1     -19.801  -9.265  -5.170  0.00  0.00     0.165 HD
HETATM   18  C           1     -21.054  -8.671  -2.635  0.00  0.00     0.030 A 
HETATM   19  C           1     -21.122  -6.581  -3.918  0.00  0.00    -0.002 A 
HETATM   20  C           1     -21.696  -8.013  -1.581  0.00  0.00     0.002 A 
HETATM   21  C           1     -22.048  -6.668  -1.681  0.00  0.00     0.001 A 
HETATM   22  C           1     -21.767  -5.940  -2.843  0.00  0.00     0.014 A 
ENDBRANCH  12  13
ENDBRANCH   1  12
BRANCH   1  23
HETATM   23  N           1     -19.769  -3.898  -7.817  0.00  0.00    -0.066 N 
HETATM   24  H           1     -20.165  -3.366  -8.624  0.00  0.00     0.275 HD
HETATM   25  H           1     -19.511  -3.231  -7.055  0.00  0.00     0.275 HD
HETATM   26  H           1     -18.919  -4.421  -8.128  0.00  0.00     0.275 HD
ENDBRANCH   1  23
TORSDOF 5
ENDMDL
MODEL 4
REMARK VINA RESULT:      -7.7      1.520      2.187
REMARK  5 active torsions:
REMARK  status: ('A' for Active; 'I' for Inactive)
REMARK    1  A    between atoms: C_1  and  C_2 
REMARK       I    between atoms: C_9  and  N_19 
REMARK    2  A    between atoms: C_9  and  C_11 
REMARK    3  A    between atoms: C_11  and  C_13 
REMARK    4  A    between atoms: C_11  and  N_21 
REMARK    5  A    between atoms: C_13  and  C_18 
ROOT
HETATM    1  C           1     -21.926  -4.656  -7.530  0.00  0.00     0.279 C 
ENDROOT
BRANCH   1   2
HETATM    2  C           1     -21.061  -5.788  -7.032  0.00  0.00     0.251 C 
HETATM    3  N           1     -21.307  -6.348  -5.806  0.00  0.00    -0.336 N 
HETATM    4  C           1     -20.334  -6.687  -4.773  0.00  0.00     0.188 C 
HETATM    5  C           1     -22.599  -6.737  -5.249  0.00  0.00     0.127 C 
HETATM    6  C           1     -21.018  -6.275  -3.481  0.00  0.00     0.038 C 
HETATM    7  C           1     -22.510  -6.312  -3.794  0.00  0.00     0.022 C 
HETATM    8  O           1     -20.154  -6.200  -7.713  0.00  0.00    -0.271 OA
BRANCH   4   9
HETATM    9  C           1     -20.040  -8.167  -4.777  0.00  0.00     0.196 C 
HETATM   10  O           1     -19.723  -8.738  -5.843  0.00  0.00    -0.646 OA
HETATM   11  O           1     -20.112  -8.823  -3.715  0.00  0.00    -0.646 OA
ENDBRANCH   4   9
ENDBRANCH   1   2
BRANCH   1  12
HETATM   12  C           1     -21.607  -4.377  -8.993  0.00  0.00     0.083 C 
BRANCH  12  13
HETATM   13  C           1     -22.864  -4.008  -9.717  0.00  0.00    -0.028 A 
HETATM   14  C           1     -24.134  -4.007  -9.189  0.00  0.00     0.096 A 
HETATM   15  N           1     -24.998  -3.609 -10.174  0.00  0.00    -0.365 N 
HETATM   16  C           1     -24.307  -3.351 -11.337  0.00  0.00     0.042 A 
HETATM   17  H           1     -26.037  -3.514 -10.060  0.00  0.00     0.165 HD
HETATM   18  C           1     -24.769  -2.925 -12.588  0.00  0.00     0.030 A 
HETATM   19  C           1     -22.959  -3.596 -11.075  0.00  0.00    -0.002 A 
HETATM   20  C           1     -23.819  -2.744 -13.600  0.00  0.00     0.002 A 
HETATM   21  C           1     -22.466  -2.980 -13.366  0.00  0.00     0.001 A 
HETATM   22  C           1     -22.022  -3.406 -12.109  0.00  0.00     0.014 A 
ENDBRANCH  12  13
ENDBRANCH   1  12
BRANCH   1  23
HETATM   23  N           1     -21.656  -3.426  -6.717  0.00  0.00    -0.066 N 
HETATM   24  H           1     -22.207  -2.625  -7.101  0.00  0.00     0.275 HD
HETATM   25  H           1     -21.938  -3.596  -5.725  0.00  0.00     0.275 HD
HETATM   26  H           1     -20.637  -3.198  -6.757  0.00  0.00     0.275 HD
ENDBRANCH   1  23
TORSDOF 5
ENDMDL
MODEL 5
REMARK VINA RESULT:      -7.6      1.544      2.151
REMARK  5 active torsions:
REMARK  status: ('A' for Active; 'I' for Inactive)
REMARK    1  A    between atoms: C_1  and  C_2 
REMARK       I    between atoms: C_9  and  N_19 
REMARK    2  A    between atoms: C_9  and  C_11 
REMARK    3  A    between atoms: C_11  and  C_13 
REMARK    4  A    between atoms: C_11  and  N_21 
REMARK    5  A    between atoms: C_13  and  C_18 
ROOT
HETATM    1  C           1     -20.299  -6.000  -6.003  0.00  0.00     0.279 C 
ENDROOT
BRANCH   1   2
HETATM    2  C           1     -20.826  -6.465  -4.668  0.00  0.00     0.251 C 
HETATM    3  N           1     -20.668  -7.772  -4.288  0.00  0.00    -0.336 N 
HETATM    4  C           1     -21.667  -8.648  -3.684  0.00  0.00     0.188 C 
HETATM    5  C           1     -19.465  -8.591  -4.398  0.00  0.00     0.127 C 
HETATM    6  C           1     -21.439  -9.984  -4.370  0.00  0.00     0.038 C 
HETATM    7  C           1     -19.988  -9.947  -4.836  0.00  0.00     0.022 C 
HETATM    8  O           1     -21.385  -5.686  -3.935  0.00  0.00    -0.271 OA
BRANCH   4   9
HETATM    9  C           1     -21.449  -8.764  -2.195  0.00  0.00     0.196 C 
HETATM   10  O           1     -21.392  -9.892  -1.658  0.00  0.00    -0.646 OA
HETATM   11  O           1     -21.323  -7.734  -1.499  0.00  0.00    -0.646 OA
ENDBRANCH   4   9
ENDBRANCH   1   2
BRANCH   1  12
HETATM   12  C           1     -20.609  -4.521  -6.186  0.00  0.00     0.083 C 
BRANCH  12  13
HETATM   13  C           1     -21.671  -4.358  -7.229  0.00  0.00    -0.028 A 
HETATM   14  C           1     -23.030  -4.371  -7.012  0.00  0.00     0.096 A 
HETATM   15  N           1     -23.649  -4.191  -8.221  0.00  0.00    -0.365 N 
HETATM   16  C           1     -22.712  -4.062  -9.221  0.00  0.00     0.042 A 
HETATM   17  H           1     -24.688  -4.156  -8.364  0.00  0.00     0.165 HD
HETATM   18  C           1     -22.878  -3.865 -10.597  0.00  0.00     0.030 A 
HETATM   19  C           1     -21.456  -4.164  -8.621  0.00  0.00    -0.002 A 
HETATM   20  C           1     -21.724  -3.770 -11.381  0.00  0.00     0.002 A 
HETATM   21  C           1     -20.457  -3.868 -10.809  0.00  0.00     0.001 A 
HETATM   22  C           1     -20.308  -4.065  -9.431  0.00  0.00     0.014 A 
ENDBRANCH  12  13
ENDBRANCH   1  12
BRANCH   1  23
HETATM   23  N           1     -20.952  -6.787  -7.100  0.00  0.00    -0.066 N 
HETATM   24  H           1     -20.291  -6.883  -7.903  0.00  0.00     0.275 HD
HETATM   25  H           1     -21.205  -7.737  -6.744  0.00  0.00     0.275 HD
HETATM   26  H           1     -21.816  -6.291  -7.417  0.00  0.00     0.275 HD
ENDBRANCH   1  23
TORSDOF 5
ENDMDL
MODEL 6
REMARK VINA RESULT:      -7.5      2.095      3.014
REMARK  5 active torsions:
REMARK  status: ('A' for Active; 'I' for Inactive)
REMARK    1  A    between atoms: C_1  and  C_2 
REMARK       I    between atoms: C_9  and  N_19 
REMARK    2  A    between atoms: C_9  and  C_11 
REMARK    3  A    between atoms: C_11  and  C_13 
REMARK    4  A    between atoms: C_11  and  N_21 
REMARK    5  A    between atoms: C_13  and  C_18 
ROOT
HETATM    1  C           1     -21.021  -6.792  -5.111  0.00  0.00     0.279 C 
ENDROOT
BRANCH   1   2
HETATM    2  C           1     -21.522  -6.912  -3.693  0.00  0.00     0.251 C 
HETATM    3  N           1     -21.079  -7.932  -2.895  0.00  0.00    -0.336 N 
HETATM    4  C           1     -21.876  -8.789  -2.022  0.00  0.00     0.188 C 
HETATM    5  C           1     -19.706  -8.402  -2.732  0.00  0.00     0.127 C 
HETATM    6  C           1     -21.272 -10.168  -2.218  0.00  0.00     0.038 C 
HETATM    7  C           1     -19.843  -9.913  -2.681  0.00  0.00     0.022 C 
HETATM    8  O           1     -22.312  -6.108  -3.262  0.00  0.00    -0.271 OA
BRANCH   4   9
HETATM    9  C           1     -21.755  -8.348  -0.584  0.00  0.00     0.196 C 
HETATM   10  O           1     -22.087  -7.188  -0.255  0.00  0.00    -0.646 OA
HETATM   11  O           1     -21.325  -9.143   0.280  0.00  0.00    -0.646 OA
ENDBRANCH   4   9
ENDBRANCH   1   2
BRANCH   1  12
HETATM   12  C           1     -21.785  -5.688  -5.830  0.00  0.00     0.083 C 
BRANCH  12  13
HETATM   13  C           1     -20.933  -5.120  -6.922  0.00  0.00    -0.028 A 
HETATM   14  C           1     -19.588  -4.843  -6.842  0.00  0.00     0.096 A 
HETATM   15  N           1     -19.190  -4.338  -8.051  0.00  0.00    -0.365 N 
HETATM   16  C           1     -20.259  -4.282  -8.918  0.00  0.00     0.042 A 
HETATM   17  H           1     -18.212  -4.036  -8.284  0.00  0.00     0.165 HD
HETATM   18  C           1     -20.325  -3.842 -10.245  0.00  0.00     0.030 A 
HETATM   19  C           1     -21.370  -4.770  -8.230  0.00  0.00    -0.002 A 
HETATM   20  C           1     -21.567  -3.904 -10.885  0.00  0.00     0.002 A 
HETATM   21  C           1     -22.694  -4.386 -10.223  0.00  0.00     0.001 A 
HETATM   22  C           1     -22.610  -4.823  -8.896  0.00  0.00     0.014 A 
ENDBRANCH  12  13
ENDBRANCH   1  12
BRANCH   1  23
HETATM   23  N           1     -21.232  -8.093  -5.827  0.00  0.00    -0.066 N 
HETATM   24  H           1     -22.133  -8.520  -5.516  0.00  0.00     0.275 HD
HETATM   25  H           1     -21.267  -7.922  -6.857  0.00  0.00     0.275 HD
HETATM   26  H           1     -20.443  -8.743  -5.607  0.00  0.00     0.275 HD
ENDBRANCH   1  23
TORSDOF 5
ENDMDL
MODEL 7
REMARK VINA RESULT:      -7.3      2.502      7.683
REMARK  5 active torsions:
REMARK  status: ('A' for Active; 'I' for Inactive)
REMARK    1  A    between atoms: C_1  and  C_2 
REMARK       I    between atoms: C_9  and  N_19 
REMARK    2  A    between atoms: C_9  and  C_11 
REMARK    3  A    between atoms: C_11  and  C_13 
REMARK    4  A    between atoms: C_11  and  N_21 
REMARK    5  A    between atoms: C_13  and  C_18 
ROOT
HETATM    1  C           1     -21.129  -7.351  -5.573  0.00  0.00     0.279 C 
ENDROOT
BRANCH   1   2
HETATM    2  C           1     -20.444  -6.552  -6.654  0.00  0.00     0.251 C 
HETATM    3  N           1     -21.108  -5.525  -7.270  0.00  0.00    -0.336 N 
HETATM    4  C           1     -21.164  -5.232  -8.699  0.00  0.00     0.188 C 
HETATM    5  C           1     -21.915  -4.483  -6.641  0.00  0.00     0.127 C 
HETATM    6  C           1     -22.609  -4.826  -8.930  0.00  0.00     0.038 C 
HETATM    7  C           1     -23.102  -4.329  -7.576  0.00  0.00     0.022 C 
HETATM    8  O           1     -19.311  -6.816  -6.975  0.00  0.00    -0.271 OA
BRANCH   4   9
HETATM    9  C           1     -20.225  -4.105  -9.053  0.00  0.00     0.196 C 
HETATM   10  O           1     -20.306  -3.552 -10.171  0.00  0.00    -0.646 OA
HETATM   11  O           1     -19.367  -3.723  -8.229  0.00  0.00    -0.646 OA
ENDBRANCH   4   9
ENDBRANCH   1   2
BRANCH   1  12
HETATM   12  C           1     -20.245  -7.393  -4.333  0.00  0.00     0.083 C 
BRANCH  12  13
HETATM   13  C           1     -21.059  -7.036  -3.128  0.00  0.00    -0.028 A 
HETATM   14  C           1     -21.813  -5.897  -2.966  0.00  0.00     0.096 A 
HETATM   15  N           1     -22.398  -5.954  -1.729  0.00  0.00    -0.365 N 
HETATM   16  C           1     -22.034  -7.115  -1.084  0.00  0.00     0.042 A 
HETATM   17  H           1     -23.032  -5.219  -1.330  0.00  0.00     0.165 HD
HETATM   18  C           1     -22.386  -7.593   0.185  0.00  0.00     0.030 A 
HETATM   19  C           1     -21.190  -7.815  -1.945  0.00  0.00    -0.002 A 
HETATM   20  C           1     -21.855  -8.825   0.580  0.00  0.00     0.002 A 
HETATM   21  C           1     -21.009  -9.546  -0.259  0.00  0.00     0.001 A 
HETATM   22  C           1     -20.668  -9.054  -1.525  0.00  0.00     0.014 A 
ENDBRANCH  12  13
ENDBRANCH   1  12
BRANCH   1  23
HETATM   23  N           1     -21.370  -8.748  -6.062  0.00  0.00    -0.066 N 
HETATM   24  H           1     -22.301  -9.081  -5.723  0.00  0.00     0.275 HD
HETATM   25  H           1     -21.357  -8.759  -7.106  0.00  0.00     0.275 HD
HETATM   26  H           1     -20.620  -9.379  -5.696  0.00  0.00     0.275 HD
ENDBRANCH   1  23
TORSDOF 5
ENDMDL
MODEL 8
REMARK VINA RESULT:      -7.2      2.542      3.945
REMARK  5 active torsions:
REMARK  status: ('A' for Active; 'I' for Inactive)
REMARK    1  A    between atoms: C_1  and  C_2 
REMARK       I    between atoms: C_9  and  N_19 
REMARK    2  A    between atoms: C_9  and  C_11 
REMARK    3  A    between atoms: C_11  and  C_13 
REMARK    4  A    between atoms: C_11  and  N_21 
REMARK    5  A    between atoms: C_13  and  C_18 
ROOT
HETATM    1  C           1     -19.977  -8.543  -3.489  0.00  0.00     0.279 C 
ENDROOT
BRANCH   1   2
HETATM    2  C           1     -21.063  -9.485  -3.031  0.00  0.00     0.251 C 
HETATM    3  N           1     -21.603  -9.349  -1.780  0.00  0.00    -0.336 N 
HETATM    4  C           1     -21.881 -10.405  -0.812  0.00  0.00     0.188 C 
HETATM    5  C           1     -22.027  -8.116  -1.124  0.00  0.00     0.127 C 
HETATM    6  C           1     -21.465  -9.798   0.517  0.00  0.00     0.038 C 
HETATM    7  C           1     -21.566  -8.290   0.312  0.00  0.00     0.022 C 
HETATM    8  O           1     -21.456 -10.358  -3.767  0.00  0.00    -0.271 OA
BRANCH   4   9
HETATM    9  C           1     -23.348 -10.756  -0.806  0.00  0.00     0.196 C 
HETATM   10  O           1     -23.887 -11.208  -1.841  0.00  0.00    -0.646 OA
HETATM   11  O           1     -24.027 -10.596   0.232  0.00  0.00    -0.646 OA
ENDBRANCH   4   9
ENDBRANCH   1   2
BRANCH   1  12
HETATM   12  C           1     -20.046  -8.384  -5.002  0.00  0.00     0.083 C 
BRANCH  12  13
HETATM   13  C           1     -20.936  -7.229  -5.343  0.00  0.00    -0.028 A 
HETATM   14  C           1     -22.201  -7.008  -4.852  0.00  0.00     0.096 A 
HETATM   15  N           1     -22.671  -5.848  -5.410  0.00  0.00    -0.365 N 
HETATM   16  C           1     -21.728  -5.313  -6.258  0.00  0.00     0.042 A 
HETATM   17  H           1     -23.614  -5.429  -5.219  0.00  0.00     0.165 HD
HETATM   18  C           1     -21.768  -4.150  -7.038  0.00  0.00     0.030 A 
HETATM   19  C           1     -20.624  -6.165  -6.234  0.00  0.00    -0.002 A 
HETATM   20  C           1     -20.643  -3.853  -7.814  0.00  0.00     0.002 A 
HETATM   21  C           1     -19.526  -4.687  -7.809  0.00  0.00     0.001 A 
HETATM   22  C           1     -19.502  -5.845  -7.024  0.00  0.00     0.014 A 
ENDBRANCH  12  13
ENDBRANCH   1  12
BRANCH   1  23
HETATM   23  N           1     -18.638  -9.100  -3.106  0.00  0.00    -0.066 N 
HETATM   24  H           1     -17.916  -8.773  -3.788  0.00  0.00     0.275 HD
HETATM   25  H           1     -18.385  -8.769  -2.148  0.00  0.00     0.275 HD
HETATM   26  H           1     -18.679 -10.144  -3.117  0.00  0.00     0.275 HD
ENDBRANCH   1  23
TORSDOF 5
ENDMDL
MODEL 9
REMARK VINA RESULT:      -7.1      4.899      7.289
REMARK  5 active torsions:
REMARK  status: ('A' for Active; 'I' for Inactive)
REMARK    1  A    between atoms: C_1  and  C_2 
REMARK       I    between atoms: C_9  and  N_19 
REMARK    2  A    between atoms: C_9  and  C_11 
REMARK    3  A    between atoms: C_11  and  C_13 
REMARK    4  A    between atoms: C_11  and  N_21 
REMARK    5  A    between atoms: C_13  and  C_18 
ROOT
HETATM    1  C           1     -19.762  -8.261  -4.917  0.00  0.00     0.279 C 
ENDROOT
BRANCH   1   2
HETATM    2  C           1     -19.107  -9.590  -5.203  0.00  0.00     0.251 C 
HETATM    3  N           1     -18.004  -9.976  -4.489  0.00  0.00    -0.336 N 
HETATM    4  C           1     -16.774 -10.569  -5.005  0.00  0.00     0.188 C 
HETATM    5  C           1     -17.802  -9.886  -3.046  0.00  0.00     0.127 C 
HETATM    6  C           1     -15.680  -9.891  -4.200  0.00  0.00     0.038 C 
HETATM    7  C           1     -16.356  -9.446  -2.908  0.00  0.00     0.022 C 
HETATM    8  O           1     -19.555 -10.312  -6.060  0.00  0.00    -0.271 OA
BRANCH   4   9
HETATM    9  C           1     -16.761 -12.061  -4.780  0.00  0.00     0.196 C 
HETATM   10  O           1     -15.801 -12.595  -4.183  0.00  0.00    -0.646 OA
HETATM   11  O           1     -17.711 -12.764  -5.189  0.00  0.00    -0.646 OA
ENDBRANCH   4   9
ENDBRANCH   1   2
BRANCH   1  12
HETATM   12  C           1     -21.240  -8.475  -4.619  0.00  0.00     0.083 C 
BRANCH  12  13
HETATM   13  C           1     -21.635  -7.650  -3.433  0.00  0.00    -0.028 A 
HETATM   14  C           1     -21.922  -6.305  -3.440  0.00  0.00     0.096 A 
HETATM   15  N           1     -22.237  -5.937  -2.159  0.00  0.00    -0.365 N 
HETATM   16  C           1     -22.158  -7.025  -1.318  0.00  0.00     0.042 A 
HETATM   17  H           1     -22.500  -4.966  -1.860  0.00  0.00     0.165 HD
HETATM   18  C           1     -22.389  -7.123   0.059  0.00  0.00     0.030 A 
HETATM   19  C           1     -21.779  -8.118  -2.098  0.00  0.00    -0.002 A 
HETATM   20  C           1     -22.229  -8.378   0.654  0.00  0.00     0.002 A 
HETATM   21  C           1     -21.852  -9.488  -0.100  0.00  0.00     0.001 A 
HETATM   22  C           1     -21.625  -9.373  -1.477  0.00  0.00     0.014 A 
ENDBRANCH  12  13
ENDBRANCH   1  12
BRANCH   1  23
HETATM   23  N           1     -19.619  -7.366  -6.112  0.00  0.00    -0.066 N 
HETATM   24  H           1     -20.163  -7.761  -6.912  0.00  0.00     0.275 HD
HETATM   25  H           1     -19.984  -6.415  -5.881  0.00  0.00     0.275 HD
HETATM   26  H           1     -18.609  -7.298  -6.377  0.00  0.00     0.275 HD
ENDBRANCH   1  23
TORSDOF 5
ENDMDL
