MODEL 1
REMARK VINA RESULT:      -6.0      0.000      0.000
REMARK  11 active torsions:
REMARK  status: ('A' for Active; 'I' for Inactive)
REMARK    1  A    between atoms: Se_2  and  C_3 
REMARK    2  A    between atoms: C_3  and  C_4 
REMARK    3  A    between atoms: C_4  and  C_5 
REMARK    4  A    between atoms: C_5  and  C_6 
REMARK    5  A    between atoms: C_5  and  N_9 
REMARK       I    between atoms: N_9  and  C_10 
REMARK    6  A    between atoms: C_10  and  C_11 
REMARK    7  A    between atoms: C_11  and  C_12 
REMARK    8  A    between atoms: C_11  and  N_18 
REMARK    9  A    between atoms: C_12  and  O_13 
REMARK   10  A    between atoms: O_13  and  P_14 
REMARK   11  A    between atoms: P_14  and  O_15 
ROOT
HETATM    1  N           1     -35.410  -2.792 -11.709  0.00  0.00    -0.345 N 
HETATM    2  C           1     -35.410  -1.603 -11.031  0.00  0.00     0.251 C 
HETATM    3  O           1     -34.608  -1.410 -10.149  0.00  0.00    -0.271 OA
HETATM    4  H           1     -36.082  -2.954 -12.448  0.00  0.00     0.163 HD
ENDROOT
BRANCH   2   5
HETATM    5  C           1     -36.413  -0.533 -11.387  0.00  0.00     0.298 C 
BRANCH   5   6
HETATM    6  C           1     -36.015   0.121 -12.704  0.00  0.00     0.224 C 
BRANCH   6   7
HETATM    7  O           1     -36.426  -0.691 -13.772  0.00  0.00    -0.287 OA
BRANCH   7   8
HETATM    8  P           1     -35.612  -0.507 -15.154  0.00  0.00     0.406 P 
HETATM    9  O           1     -34.457   0.392 -14.931  0.00  0.00    -0.624 OA
HETATM   10  O           1     -36.505   0.081 -16.177  0.00  0.00    -0.624 OA
BRANCH   8  11
HETATM   11  O           1     -35.083  -1.946 -15.664  0.00  0.00    -0.300 OA
HETATM   12  H           1     -35.755  -2.555 -15.413  0.00  0.00     0.223 HD
ENDBRANCH   8  11
ENDBRANCH   7   8
ENDBRANCH   6   7
ENDBRANCH   5   6
BRANCH   5  13
HETATM   13  N           1     -36.441   0.505 -10.304  0.00  0.00    -0.064 N 
HETATM   14  H           1     -36.669   1.437 -10.719  0.00  0.00     0.275 HD
HETATM   15  H           1     -37.169   0.251  -9.598  0.00  0.00     0.275 HD
HETATM   16  H           1     -35.506   0.550  -9.840  0.00  0.00     0.275 HD
ENDBRANCH   5  13
ENDBRANCH   2   5
BRANCH   1  17
HETATM   17  C           1     -34.446  -3.820 -11.367  0.00  0.00     0.185 C 
BRANCH  17  18
HETATM   18  C           1     -35.155  -5.163 -11.256  0.00  0.00     0.036 C 
BRANCH  18  19
HETATM   19  C           1     -34.152  -6.235 -10.849  0.00  0.00     0.003 C 
BRANCH  19  20
HETATM   20 Se           1     -34.999  -7.479  -9.609  0.00  0.00     0.000 Se
HETATM   21  C           1     -33.753  -8.936  -9.962  0.00  0.00     0.000 C 
ENDBRANCH  19  20
ENDBRANCH  18  19
ENDBRANCH  17  18
BRANCH  17  22
HETATM   22  C           1     -33.389  -3.895 -12.441  0.00  0.00     0.196 C 
HETATM   23  O           1     -32.192  -4.079 -12.128  0.00  0.00    -0.646 OA
HETATM   24  O           1     -33.709  -3.772 -13.643  0.00  0.00    -0.646 OA
ENDBRANCH  17  22
ENDBRANCH   1  17
TORSDOF 11
ENDMDL
MODEL 2
REMARK VINA RESULT:      -5.7     12.790     15.152
REMARK  11 active torsions:
REMARK  status: ('A' for Active; 'I' for Inactive)
REMARK    1  A    between atoms: Se_2  and  C_3 
REMARK    2  A    between atoms: C_3  and  C_4 
REMARK    3  A    between atoms: C_4  and  C_5 
REMARK    4  A    between atoms: C_5  and  C_6 
REMARK    5  A    between atoms: C_5  and  N_9 
REMARK       I    between atoms: N_9  and  C_10 
REMARK    6  A    between atoms: C_10  and  C_11 
REMARK    7  A    between atoms: C_11  and  C_12 
REMARK    8  A    between atoms: C_11  and  N_18 
REMARK    9  A    between atoms: C_12  and  O_13 
REMARK   10  A    between atoms: O_13  and  P_14 
REMARK   11  A    between atoms: P_14  and  O_15 
ROOT
HETATM    1  N           1     -22.172  -4.804  -8.914  0.00  0.00    -0.345 N 
HETATM    2  C           1     -21.565  -4.499  -7.725  0.00  0.00     0.251 C 
HETATM    3  O           1     -21.492  -3.350  -7.361  0.00  0.00    -0.271 OA
HETATM    4  H           1     -22.233  -5.767  -9.218  0.00  0.00     0.163 HD
ENDROOT
BRANCH   2   5
HETATM    5  C           1     -20.987  -5.600  -6.869  0.00  0.00     0.298 C 
BRANCH   5   6
HETATM    6  C           1     -20.624  -5.042  -5.499  0.00  0.00     0.224 C 
BRANCH   6   7
HETATM    7  O           1     -20.456  -6.099  -4.592  0.00  0.00    -0.287 OA
BRANCH   7   8
HETATM    8  P           1     -21.791  -6.600  -3.834  0.00  0.00     0.406 P 
HETATM    9  O           1     -21.699  -8.055  -3.583  0.00  0.00    -0.624 OA
HETATM   10  O           1     -22.973  -6.318  -4.679  0.00  0.00    -0.624 OA
BRANCH   8  11
HETATM   11  O           1     -21.937  -5.819  -2.427  0.00  0.00    -0.300 OA
HETATM   12  H           1     -21.622  -4.948  -2.599  0.00  0.00     0.223 HD
ENDBRANCH   8  11
ENDBRANCH   7   8
ENDBRANCH   6   7
ENDBRANCH   5   6
BRANCH   5  13
HETATM   13  N           1     -19.755  -6.149  -7.526  0.00  0.00    -0.064 N 
HETATM   14  H           1     -19.067  -5.377  -7.677  0.00  0.00     0.275 HD
HETATM   15  H           1     -19.330  -6.879  -6.911  0.00  0.00     0.275 HD
HETATM   16  H           1     -20.010  -6.573  -8.446  0.00  0.00     0.275 HD
ENDBRANCH   5  13
ENDBRANCH   2   5
BRANCH   1  17
HETATM   17  C           1     -22.727  -3.747  -9.735  0.00  0.00     0.185 C 
BRANCH  17  18
HETATM   18  C           1     -22.243  -3.913 -11.170  0.00  0.00     0.036 C 
BRANCH  18  19
HETATM   19  C           1     -22.468  -2.615 -11.935  0.00  0.00     0.003 C 
BRANCH  19  20
HETATM   20 Se           1     -23.970  -2.833 -13.158  0.00  0.00     0.000 Se
HETATM   21  C           1     -22.901  -2.612 -14.772  0.00  0.00     0.000 C 
ENDBRANCH  19  20
ENDBRANCH  18  19
ENDBRANCH  17  18
BRANCH  17  22
HETATM   22  C           1     -24.234  -3.821  -9.700  0.00  0.00     0.196 C 
HETATM   23  O           1     -24.905  -2.791  -9.470  0.00  0.00    -0.646 OA
HETATM   24  O           1     -24.811  -4.912  -9.899  0.00  0.00    -0.646 OA
ENDBRANCH  17  22
ENDBRANCH   1  17
TORSDOF 11
ENDMDL
MODEL 3
REMARK VINA RESULT:      -5.7      3.352      5.543
REMARK  11 active torsions:
REMARK  status: ('A' for Active; 'I' for Inactive)
REMARK    1  A    between atoms: Se_2  and  C_3 
REMARK    2  A    between atoms: C_3  and  C_4 
REMARK    3  A    between atoms: C_4  and  C_5 
REMARK    4  A    between atoms: C_5  and  C_6 
REMARK    5  A    between atoms: C_5  and  N_9 
REMARK       I    between atoms: N_9  and  C_10 
REMARK    6  A    between atoms: C_10  and  C_11 
REMARK    7  A    between atoms: C_11  and  C_12 
REMARK    8  A    between atoms: C_11  and  N_18 
REMARK    9  A    between atoms: C_12  and  O_13 
REMARK   10  A    between atoms: O_13  and  P_14 
REMARK   11  A    between atoms: P_14  and  O_15 
ROOT
HETATM    1  N           1     -35.308  -2.035 -11.931  0.00  0.00    -0.345 N 
HETATM    2  C           1     -34.169  -2.495 -11.328  0.00  0.00     0.251 C 
HETATM    3  O           1     -33.572  -1.794 -10.547  0.00  0.00    -0.271 OA
HETATM    4  H           1     -35.808  -2.623 -12.585  0.00  0.00     0.163 HD
ENDROOT
BRANCH   2   5
HETATM    5  C           1     -33.658  -3.881 -11.640  0.00  0.00     0.298 C 
BRANCH   5   6
HETATM    6  C           1     -34.241  -4.353 -12.966  0.00  0.00     0.224 C 
BRANCH   6   7
HETATM    7  O           1     -33.659  -3.629 -14.017  0.00  0.00    -0.287 OA
BRANCH   7   8
HETATM    8  P           1     -34.134  -4.037 -15.505  0.00  0.00     0.406 P 
HETATM    9  O           1     -32.945  -4.265 -16.357  0.00  0.00    -0.624 OA
HETATM   10  O           1     -34.950  -2.945 -16.079  0.00  0.00    -0.624 OA
BRANCH   8  11
HETATM   11  O           1     -35.014  -5.390 -15.439  0.00  0.00    -0.300 OA
HETATM   12  H           1     -34.641  -5.888 -14.732  0.00  0.00     0.223 HD
ENDBRANCH   8  11
ENDBRANCH   7   8
ENDBRANCH   6   7
ENDBRANCH   5   6
BRANCH   5  13
HETATM   13  N           1     -34.074  -4.823 -10.550  0.00  0.00    -0.064 N 
HETATM   14  H           1     -34.656  -5.591 -10.955  0.00  0.00     0.275 HD
HETATM   15  H           1     -33.222  -5.232 -10.100  0.00  0.00     0.275 HD
HETATM   16  H           1     -34.630  -4.305  -9.834  0.00  0.00     0.275 HD
ENDBRANCH   5  13
ENDBRANCH   2   5
BRANCH   1  17
HETATM   17  C           1     -35.799  -0.704 -11.630  0.00  0.00     0.185 C 
BRANCH  17  18
HETATM   18  C           1     -36.365  -0.074 -12.896  0.00  0.00     0.036 C 
BRANCH  18  19
HETATM   19  C           1     -35.233   0.542 -13.707  0.00  0.00     0.003 C 
BRANCH  19  20
HETATM   20 Se           1     -35.743   0.610 -15.588  0.00  0.00     0.000 Se
HETATM   21  C           1     -37.614   0.170 -15.266  0.00  0.00     0.000 C 
ENDBRANCH  19  20
ENDBRANCH  18  19
ENDBRANCH  17  18
BRANCH  17  22
HETATM   22  C           1     -36.882  -0.791 -10.583  0.00  0.00     0.196 C 
HETATM   23  O           1     -36.586  -0.721  -9.371  0.00  0.00    -0.646 OA
HETATM   24  O           1     -38.075  -0.935 -10.928  0.00  0.00    -0.646 OA
ENDBRANCH  17  22
ENDBRANCH   1  17
TORSDOF 11
ENDMDL
MODEL 4
REMARK VINA RESULT:      -5.3     10.516     12.378
REMARK  11 active torsions:
REMARK  status: ('A' for Active; 'I' for Inactive)
REMARK    1  A    between atoms: Se_2  and  C_3 
REMARK    2  A    between atoms: C_3  and  C_4 
REMARK    3  A    between atoms: C_4  and  C_5 
REMARK    4  A    between atoms: C_5  and  C_6 
REMARK    5  A    between atoms: C_5  and  N_9 
REMARK       I    between atoms: N_9  and  C_10 
REMARK    6  A    between atoms: C_10  and  C_11 
REMARK    7  A    between atoms: C_11  and  C_12 
REMARK    8  A    between atoms: C_11  and  N_18 
REMARK    9  A    between atoms: C_12  and  O_13 
REMARK   10  A    between atoms: O_13  and  P_14 
REMARK   11  A    between atoms: P_14  and  O_15 
ROOT
HETATM    1  N           1     -27.731  -7.244 -18.984  0.00  0.00    -0.345 N 
HETATM    2  C           1     -28.540  -6.236 -18.533  0.00  0.00     0.251 C 
HETATM    3  O           1     -28.776  -5.287 -19.242  0.00  0.00    -0.271 OA
HETATM    4  H           1     -27.533  -8.039 -18.390  0.00  0.00     0.163 HD
ENDROOT
BRANCH   2   5
HETATM    5  C           1     -29.138  -6.312 -17.149  0.00  0.00     0.298 C 
BRANCH   5   6
HETATM    6  C           1     -28.023  -6.421 -16.117  0.00  0.00     0.224 C 
BRANCH   6   7
HETATM    7  O           1     -26.858  -5.824 -16.622  0.00  0.00    -0.287 OA
BRANCH   7   8
HETATM    8  P           1     -25.462  -6.426 -16.079  0.00  0.00     0.406 P 
HETATM    9  O           1     -24.642  -6.880 -17.224  0.00  0.00    -0.624 OA
HETATM   10  O           1     -25.735  -7.571 -15.182  0.00  0.00    -0.624 OA
BRANCH   8  11
HETATM   11  O           1     -24.663  -5.283 -15.264  0.00  0.00    -0.300 OA
HETATM   12  H           1     -23.756  -5.421 -15.478  0.00  0.00     0.223 HD
ENDBRANCH   8  11
ENDBRANCH   7   8
ENDBRANCH   6   7
ENDBRANCH   5   6
BRANCH   5  13
HETATM   13  N           1     -30.025  -7.517 -17.054  0.00  0.00    -0.064 N 
HETATM   14  H           1     -29.516  -8.355 -17.417  0.00  0.00     0.275 HD
HETATM   15  H           1     -30.289  -7.677 -16.054  0.00  0.00     0.275 HD
HETATM   16  H           1     -30.888  -7.361 -17.621  0.00  0.00     0.275 HD
ENDBRANCH   5  13
ENDBRANCH   2   5
BRANCH   1  17
HETATM   17  C           1     -27.157  -7.172 -20.313  0.00  0.00     0.185 C 
BRANCH  17  18
HETATM   18  C           1     -25.645  -7.023 -20.206  0.00  0.00     0.036 C 
BRANCH  18  19
HETATM   19  C           1     -25.133  -6.180 -21.365  0.00  0.00     0.003 C 
BRANCH  19  20
HETATM   20 Se           1     -23.952  -7.257 -22.482  0.00  0.00     0.000 Se
HETATM   21  C           1     -23.253  -8.318 -21.004  0.00  0.00     0.000 C 
ENDBRANCH  19  20
ENDBRANCH  18  19
ENDBRANCH  17  18
BRANCH  17  22
HETATM   22  C           1     -27.487  -8.432 -21.073  0.00  0.00     0.196 C 
HETATM   23  O           1     -28.619  -8.951 -20.963  0.00  0.00    -0.646 OA
HETATM   24  O           1     -26.627  -8.960 -21.812  0.00  0.00    -0.646 OA
ENDBRANCH  17  22
ENDBRANCH   1  17
TORSDOF 11
ENDMDL
MODEL 5
REMARK VINA RESULT:      -5.2      4.099      7.003
REMARK  11 active torsions:
REMARK  status: ('A' for Active; 'I' for Inactive)
REMARK    1  A    between atoms: Se_2  and  C_3 
REMARK    2  A    between atoms: C_3  and  C_4 
REMARK    3  A    between atoms: C_4  and  C_5 
REMARK    4  A    between atoms: C_5  and  C_6 
REMARK    5  A    between atoms: C_5  and  N_9 
REMARK       I    between atoms: N_9  and  C_10 
REMARK    6  A    between atoms: C_10  and  C_11 
REMARK    7  A    between atoms: C_11  and  C_12 
REMARK    8  A    between atoms: C_11  and  N_18 
REMARK    9  A    between atoms: C_12  and  O_13 
REMARK   10  A    between atoms: O_13  and  P_14 
REMARK   11  A    between atoms: P_14  and  O_15 
ROOT
HETATM    1  N           1     -34.954  -2.132 -12.331  0.00  0.00    -0.345 N 
HETATM    2  C           1     -33.943  -2.853 -11.755  0.00  0.00     0.251 C 
HETATM    3  O           1     -33.180  -2.316 -10.988  0.00  0.00    -0.271 OA
HETATM    4  H           1     -35.594  -2.582 -12.973  0.00  0.00     0.163 HD
ENDROOT
BRANCH   2   5
HETATM    5  C           1     -33.782  -4.318 -12.078  0.00  0.00     0.298 C 
BRANCH   5   6
HETATM    6  C           1     -34.339  -5.156 -10.934  0.00  0.00     0.224 C 
BRANCH   6   7
HETATM    7  O           1     -33.576  -6.325 -10.796  0.00  0.00    -0.287 OA
BRANCH   7   8
HETATM    8  P           1     -34.379  -7.642 -10.318  0.00  0.00     0.406 P 
HETATM    9  O           1     -35.353  -7.271  -9.267  0.00  0.00    -0.624 OA
HETATM   10  O           1     -33.423  -8.634  -9.778  0.00  0.00    -0.624 OA
BRANCH   8  11
HETATM   11  O           1     -35.164  -8.281 -11.577  0.00  0.00    -0.300 OA
HETATM   12  H           1     -35.650  -7.566 -11.950  0.00  0.00     0.223 HD
ENDBRANCH   8  11
ENDBRANCH   7   8
ENDBRANCH   6   7
ENDBRANCH   5   6
BRANCH   5  13
HETATM   13  N           1     -32.327  -4.631 -12.263  0.00  0.00    -0.064 N 
HETATM   14  H           1     -31.870  -4.733 -11.328  0.00  0.00     0.275 HD
HETATM   15  H           1     -32.229  -5.525 -12.797  0.00  0.00     0.275 HD
HETATM   16  H           1     -31.868  -3.857 -12.792  0.00  0.00     0.275 HD
ENDBRANCH   5  13
ENDBRANCH   2   5
BRANCH   1  17
HETATM   17  C           1     -35.109  -0.725 -12.020  0.00  0.00     0.185 C 
BRANCH  17  18
HETATM   18  C           1     -35.474   0.037 -13.287  0.00  0.00     0.036 C 
BRANCH  18  19
HETATM   19  C           1     -36.895  -0.318 -13.702  0.00  0.00     0.003 C 
BRANCH  19  20
HETATM   20 Se           1     -37.114   0.004 -15.612  0.00  0.00     0.000 Se
HETATM   21  C           1     -35.816   1.456 -15.683  0.00  0.00     0.000 C 
ENDBRANCH  19  20
ENDBRANCH  18  19
ENDBRANCH  17  18
BRANCH  17  22
HETATM   22  C           1     -36.203  -0.553 -10.995  0.00  0.00     0.196 C 
HETATM   23  O           1     -36.359   0.549 -10.426  0.00  0.00    -0.646 OA
HETATM   24  O           1     -36.953  -1.514 -10.714  0.00  0.00    -0.646 OA
ENDBRANCH  17  22
ENDBRANCH   1  17
TORSDOF 11
ENDMDL
MODEL 6
REMARK VINA RESULT:      -5.2     13.853     15.587
REMARK  11 active torsions:
REMARK  status: ('A' for Active; 'I' for Inactive)
REMARK    1  A    between atoms: Se_2  and  C_3 
REMARK    2  A    between atoms: C_3  and  C_4 
REMARK    3  A    between atoms: C_4  and  C_5 
REMARK    4  A    between atoms: C_5  and  C_6 
REMARK    5  A    between atoms: C_5  and  N_9 
REMARK       I    between atoms: N_9  and  C_10 
REMARK    6  A    between atoms: C_10  and  C_11 
REMARK    7  A    between atoms: C_11  and  C_12 
REMARK    8  A    between atoms: C_11  and  N_18 
REMARK    9  A    between atoms: C_12  and  O_13 
REMARK   10  A    between atoms: O_13  and  P_14 
REMARK   11  A    between atoms: P_14  and  O_15 
ROOT
HETATM    1  N           1     -21.016  -6.723  -4.897  0.00  0.00    -0.345 N 
HETATM    2  C           1     -21.658  -5.836  -5.718  0.00  0.00     0.251 C 
HETATM    3  O           1     -22.856  -5.698  -5.641  0.00  0.00    -0.271 OA
HETATM    4  H           1     -20.013  -6.838  -4.962  0.00  0.00     0.163 HD
ENDROOT
BRANCH   2   5
HETATM    5  C           1     -20.869  -5.029  -6.720  0.00  0.00     0.298 C 
BRANCH   5   6
HETATM    6  C           1     -21.822  -4.186  -7.558  0.00  0.00     0.224 C 
BRANCH   6   7
HETATM    7  O           1     -22.065  -4.830  -8.780  0.00  0.00    -0.287 OA
BRANCH   7   8
HETATM    8  P           1     -23.257  -4.216  -9.679  0.00  0.00     0.406 P 
HETATM    9  O           1     -23.911  -5.304 -10.440  0.00  0.00    -0.624 OA
HETATM   10  O           1     -22.701  -3.220 -10.622  0.00  0.00    -0.624 OA
BRANCH   8  11
HETATM   11  O           1     -24.343  -3.502  -8.720  0.00  0.00    -0.300 OA
HETATM   12  H           1     -23.867  -2.818  -8.280  0.00  0.00     0.223 HD
ENDBRANCH   8  11
ENDBRANCH   7   8
ENDBRANCH   6   7
ENDBRANCH   5   6
BRANCH   5  13
HETATM   13  N           1     -20.104  -5.956  -7.617  0.00  0.00    -0.064 N 
HETATM   14  H           1     -20.714  -6.257  -8.411  0.00  0.00     0.275 HD
HETATM   15  H           1     -19.263  -5.462  -7.992  0.00  0.00     0.275 HD
HETATM   16  H           1     -19.801  -6.796  -7.074  0.00  0.00     0.275 HD
ENDBRANCH   5  13
ENDBRANCH   2   5
BRANCH   1  17
HETATM   17  C           1     -21.774  -7.498  -3.934  0.00  0.00     0.185 C 
BRANCH  17  18
HETATM   18  C           1     -21.259  -8.931  -3.918  0.00  0.00     0.036 C 
BRANCH  18  19
HETATM   19  C           1     -20.038  -9.042  -4.820  0.00  0.00     0.003 C 
BRANCH  19  20
HETATM   20 Se           1     -18.464  -9.435  -3.738  0.00  0.00     0.000 Se
HETATM   21  C           1     -18.115 -11.159  -4.576  0.00  0.00     0.000 C 
ENDBRANCH  19  20
ENDBRANCH  18  19
ENDBRANCH  17  18
BRANCH  17  22
HETATM   22  C           1     -21.616  -6.890  -2.562  0.00  0.00     0.196 C 
HETATM   23  O           1     -20.811  -7.389  -1.747  0.00  0.00    -0.646 OA
HETATM   24  O           1     -22.292  -5.888  -2.241  0.00  0.00    -0.646 OA
ENDBRANCH  17  22
ENDBRANCH   1  17
TORSDOF 11
ENDMDL
MODEL 7
REMARK VINA RESULT:      -5.1     25.715     27.043
REMARK  11 active torsions:
REMARK  status: ('A' for Active; 'I' for Inactive)
REMARK    1  A    between atoms: Se_2  and  C_3 
REMARK    2  A    between atoms: C_3  and  C_4 
REMARK    3  A    between atoms: C_4  and  C_5 
REMARK    4  A    between atoms: C_5  and  C_6 
REMARK    5  A    between atoms: C_5  and  N_9 
REMARK       I    between atoms: N_9  and  C_10 
REMARK    6  A    between atoms: C_10  and  C_11 
REMARK    7  A    between atoms: C_11  and  C_12 
REMARK    8  A    between atoms: C_11  and  N_18 
REMARK    9  A    between atoms: C_12  and  O_13 
REMARK   10  A    between atoms: O_13  and  P_14 
REMARK   11  A    between atoms: P_14  and  O_15 
ROOT
HETATM    1  N           1     -10.854   7.262 -20.823  0.00  0.00    -0.345 N 
HETATM    2  C           1     -10.060   6.150 -20.757  0.00  0.00     0.251 C 
HETATM    3  O           1      -8.915   6.246 -20.385  0.00  0.00    -0.271 OA
HETATM    4  H           1     -11.814   7.181 -21.134  0.00  0.00     0.163 HD
ENDROOT
BRANCH   2   5
HETATM    5  C           1     -10.615   4.802 -21.147  0.00  0.00     0.298 C 
BRANCH   5   6
HETATM    6  C           1     -11.987   4.981 -21.784  0.00  0.00     0.224 C 
BRANCH   6   7
HETATM    7  O           1     -12.951   4.313 -21.014  0.00  0.00    -0.287 OA
BRANCH   7   8
HETATM    8  P           1     -14.137   5.230 -20.414  0.00  0.00     0.406 P 
HETATM    9  O           1     -13.566   6.489 -19.884  0.00  0.00    -0.624 OA
HETATM   10  O           1     -14.821   4.500 -19.324  0.00  0.00    -0.624 OA
BRANCH   8  11
HETATM   11  O           1     -15.199   5.571 -21.582  0.00  0.00    -0.300 OA
HETATM   12  H           1     -14.681   5.663 -22.364  0.00  0.00     0.223 HD
ENDBRANCH   8  11
ENDBRANCH   7   8
ENDBRANCH   6   7
ENDBRANCH   5   6
BRANCH   5  13
HETATM   13  N           1     -10.742   3.941 -19.925  0.00  0.00    -0.064 N 
HETATM   14  H           1     -11.746   3.690 -19.778  0.00  0.00     0.275 HD
HETATM   15  H           1     -10.180   3.069 -20.054  0.00  0.00     0.275 HD
HETATM   16  H           1     -10.388   4.463 -19.092  0.00  0.00     0.275 HD
ENDBRANCH   5  13
ENDBRANCH   2   5
BRANCH   1  17
HETATM   17  C           1     -10.321   8.557 -20.447  0.00  0.00     0.185 C 
BRANCH  17  18
HETATM   18  C           1     -10.778   9.605 -21.453  0.00  0.00     0.036 C 
BRANCH  18  19
HETATM   19  C           1     -11.693   8.957 -22.482  0.00  0.00     0.003 C 
BRANCH  19  20
HETATM   20 Se           1     -13.405   9.889 -22.508  0.00  0.00     0.000 Se
HETATM   21  C           1     -12.779  11.411 -21.465  0.00  0.00     0.000 C 
ENDBRANCH  19  20
ENDBRANCH  18  19
ENDBRANCH  17  18
BRANCH  17  22
HETATM   22  C           1     -10.819   8.927 -19.072  0.00  0.00     0.196 C 
HETATM   23  O           1     -12.041   9.106 -18.877  0.00  0.00    -0.646 OA
HETATM   24  O           1     -10.009   9.056 -18.128  0.00  0.00    -0.646 OA
ENDBRANCH  17  22
ENDBRANCH   1  17
TORSDOF 11
ENDMDL
MODEL 8
REMARK VINA RESULT:      -5.0      1.793      2.407
REMARK  11 active torsions:
REMARK  status: ('A' for Active; 'I' for Inactive)
REMARK    1  A    between atoms: Se_2  and  C_3 
REMARK    2  A    between atoms: C_3  and  C_4 
REMARK    3  A    between atoms: C_4  and  C_5 
REMARK    4  A    between atoms: C_5  and  C_6 
REMARK    5  A    between atoms: C_5  and  N_9 
REMARK       I    between atoms: N_9  and  C_10 
REMARK    6  A    between atoms: C_10  and  C_11 
REMARK    7  A    between atoms: C_11  and  C_12 
REMARK    8  A    between atoms: C_11  and  N_18 
REMARK    9  A    between atoms: C_12  and  O_13 
REMARK   10  A    between atoms: O_13  and  P_14 
REMARK   11  A    between atoms: P_14  and  O_15 
ROOT
HETATM    1  N           1     -34.859  -1.491 -12.654  0.00  0.00    -0.345 N 
HETATM    2  C           1     -35.371  -0.248 -12.400  0.00  0.00     0.251 C 
HETATM    3  O           1     -35.784   0.022 -11.298  0.00  0.00    -0.271 OA
HETATM    4  H           1     -34.512  -1.717 -13.578  0.00  0.00     0.163 HD
ENDROOT
BRANCH   2   5
HETATM    5  C           1     -35.418   0.787 -13.498  0.00  0.00     0.298 C 
BRANCH   5   6
HETATM    6  C           1     -36.690   0.605 -14.315  0.00  0.00     0.224 C 
BRANCH   6   7
HETATM    7  O           1     -36.364   0.525 -15.677  0.00  0.00    -0.287 OA
BRANCH   7   8
HETATM    8  P           1     -36.498  -0.935 -16.353  0.00  0.00     0.406 P 
HETATM    9  O           1     -36.199  -0.839 -17.799  0.00  0.00    -0.624 OA
HETATM   10  O           1     -37.877  -1.439 -16.166  0.00  0.00    -0.624 OA
BRANCH   8  11
HETATM   11  O           1     -35.455  -1.951 -15.654  0.00  0.00    -0.300 OA
HETATM   12  H           1     -34.671  -1.445 -15.525  0.00  0.00     0.223 HD
ENDBRANCH   8  11
ENDBRANCH   7   8
ENDBRANCH   6   7
ENDBRANCH   5   6
BRANCH   5  13
HETATM   13  N           1     -34.224   0.623 -14.390  0.00  0.00    -0.064 N 
HETATM   14  H           1     -34.430  -0.097 -15.120  0.00  0.00     0.275 HD
HETATM   15  H           1     -34.008   1.536 -14.853  0.00  0.00     0.275 HD
HETATM   16  H           1     -33.403   0.318 -13.822  0.00  0.00     0.275 HD
ENDBRANCH   5  13
ENDBRANCH   2   5
BRANCH   1  17
HETATM   17  C           1     -34.813  -2.485 -11.599  0.00  0.00     0.185 C 
BRANCH  17  18
HETATM   18  C           1     -34.918  -3.877 -12.209  0.00  0.00     0.036 C 
BRANCH  18  19
HETATM   19  C           1     -35.323  -4.874 -11.132  0.00  0.00     0.003 C 
BRANCH  19  20
HETATM   20 Se           1     -33.908  -6.197 -10.906  0.00  0.00     0.000 Se
HETATM   21  C           1     -34.951  -7.353  -9.734  0.00  0.00     0.000 C 
ENDBRANCH  19  20
ENDBRANCH  18  19
ENDBRANCH  17  18
BRANCH  17  22
HETATM   22  C           1     -33.511  -2.361 -10.847  0.00  0.00     0.196 C 
HETATM   23  O           1     -33.444  -1.640  -9.828  0.00  0.00    -0.646 OA
HETATM   24  O           1     -32.498  -2.978 -11.244  0.00  0.00    -0.646 OA
ENDBRANCH  17  22
ENDBRANCH   1  17
TORSDOF 11
ENDMDL
MODEL 9
REMARK VINA RESULT:      -4.9     25.123     26.441
REMARK  11 active torsions:
REMARK  status: ('A' for Active; 'I' for Inactive)
REMARK    1  A    between atoms: Se_2  and  C_3 
REMARK    2  A    between atoms: C_3  and  C_4 
REMARK    3  A    between atoms: C_4  and  C_5 
REMARK    4  A    between atoms: C_5  and  C_6 
REMARK    5  A    between atoms: C_5  and  N_9 
REMARK       I    between atoms: N_9  and  C_10 
REMARK    6  A    between atoms: C_10  and  C_11 
REMARK    7  A    between atoms: C_11  and  C_12 
REMARK    8  A    between atoms: C_11  and  N_18 
REMARK    9  A    between atoms: C_12  and  O_13 
REMARK   10  A    between atoms: O_13  and  P_14 
REMARK   11  A    between atoms: P_14  and  O_15 
ROOT
HETATM    1  N           1     -11.919   8.661 -20.007  0.00  0.00    -0.345 N 
HETATM    2  C           1     -10.800   8.060 -19.497  0.00  0.00     0.251 C 
HETATM    3  O           1     -10.185   8.589 -18.602  0.00  0.00    -0.271 OA
HETATM    4  H           1     -12.434   8.218 -20.757  0.00  0.00     0.163 HD
ENDROOT
BRANCH   2   5
HETATM    5  C           1     -10.334   6.737 -20.054  0.00  0.00     0.298 C 
BRANCH   5   6
HETATM    6  C           1     -11.499   6.033 -20.738  0.00  0.00     0.224 C 
BRANCH   6   7
HETATM    7  O           1     -12.533   5.831 -19.811  0.00  0.00    -0.287 OA
BRANCH   7   8
HETATM    8  P           1     -13.908   5.229 -20.405  0.00  0.00     0.406 P 
HETATM    9  O           1     -14.280   5.968 -21.633  0.00  0.00    -0.624 OA
HETATM   10  O           1     -14.983   5.370 -19.399  0.00  0.00    -0.624 OA
BRANCH   8  11
HETATM   11  O           1     -13.704   3.666 -20.760  0.00  0.00    -0.300 OA
HETATM   12  H           1     -14.538   3.381 -21.092  0.00  0.00     0.223 HD
ENDBRANCH   8  11
ENDBRANCH   7   8
ENDBRANCH   6   7
ENDBRANCH   5   6
BRANCH   5  13
HETATM   13  N           1      -9.820   5.878 -18.936  0.00  0.00    -0.064 N 
HETATM   14  H           1     -10.013   6.344 -18.021  0.00  0.00     0.275 HD
HETATM   15  H           1     -10.300   4.950 -18.962  0.00  0.00     0.275 HD
HETATM   16  H           1      -8.790   5.742 -19.046  0.00  0.00     0.275 HD
ENDBRANCH   5  13
ENDBRANCH   2   5
BRANCH   1  17
HETATM   17  C           1     -12.367   9.931 -19.471  0.00  0.00     0.185 C 
BRANCH  17  18
HETATM   18  C           1     -12.798  10.840 -20.615  0.00  0.00     0.036 C 
BRANCH  18  19
HETATM   19  C           1     -13.115   9.997 -21.842  0.00  0.00     0.003 C 
BRANCH  19  20
HETATM   20 Se           1     -14.606  10.795 -22.812  0.00  0.00     0.000 Se
HETATM   21  C           1     -15.329  11.729 -21.261  0.00  0.00     0.000 C 
ENDBRANCH  19  20
ENDBRANCH  18  19
ENDBRANCH  17  18
BRANCH  17  22
HETATM   22  C           1     -13.534   9.703 -18.543  0.00  0.00     0.196 C 
HETATM   23  O           1     -14.079  10.674 -17.973  0.00  0.00    -0.646 OA
HETATM   24  O           1     -13.954   8.543 -18.340  0.00  0.00    -0.646 OA
ENDBRANCH  17  22
ENDBRANCH   1  17
TORSDOF 11
ENDMDL
