MODEL 1
REMARK VINA RESULT:      -6.5      0.000      0.000
REMARK  13 active torsions:
REMARK  status: ('A' for Active; 'I' for Inactive)
REMARK    1  A    between atoms: C_1  and  N_23 
REMARK    2  A    between atoms: C_1  and  C_28 
REMARK    3  A    between atoms: C_2  and  C_20 
REMARK    4  A    between atoms: C_2  and  C_3 
REMARK    5  A    between atoms: C_3  and  C_26 
REMARK    6  A    between atoms: C_3  and  N_12 
REMARK    7  A    between atoms: C_6  and  C_15 
REMARK    8  A    between atoms: C_6  and  C_22 
REMARK    9  A    between atoms: C_6  and  N_17 
REMARK       I    between atoms: N_12  and  C_15 
REMARK   10  A    between atoms: C_13  and  C_24 
REMARK   11  A    between atoms: C_13  and  N_16 
REMARK   12  A    between atoms: C_20  and  C_28 
REMARK   13  A    between atoms: C_22  and  C_24 
ROOT
HETATM    1  H           1     -36.086  -2.399 -13.047  0.00  0.00     0.163 HD
HETATM    2  N           1     -35.406  -1.994 -12.417  0.00  0.00    -0.345 N 
HETATM    3  C           1     -34.331  -2.735 -12.003  0.00  0.00     0.249 C 
HETATM    4  O           1     -33.519  -2.252 -11.250  0.00  0.00    -0.271 OA
ENDROOT
BRANCH   2   5
HETATM    5  C           1     -35.569  -0.631 -11.951  0.00  0.00     0.185 C 
BRANCH   5   6
HETATM    6  C           1     -36.104   0.232 -13.086  0.00  0.00     0.036 C 
BRANCH   6   7
HETATM    7  C           1     -34.944   0.729 -13.937  0.00  0.00     0.004 C 
BRANCH   7   8
HETATM    8  C           1     -35.421   0.951 -15.367  0.00  0.00     0.027 C 
BRANCH   8   9
HETATM    9  C           1     -36.515  -0.056 -15.700  0.00  0.00     0.229 C 
BRANCH   9  10
HETATM   10  N           1     -36.275  -0.620 -17.069  0.00  0.00    -0.079 N 
HETATM   11  H           1     -37.177  -0.654 -17.596  0.00  0.00     0.274 HD
HETATM   12  H           1     -35.596  -0.012 -17.582  0.00  0.00     0.274 HD
HETATM   13  H           1     -35.884  -1.585 -16.986  0.00  0.00     0.274 HD
ENDBRANCH   9  10
ENDBRANCH   8   9
ENDBRANCH   7   8
ENDBRANCH   6   7
ENDBRANCH   5   6
BRANCH   5  14
HETATM   14  C           1     -36.542  -0.607 -10.798  0.00  0.00     0.196 C 
HETATM   15  O           1     -37.597  -1.274 -10.855  0.00  0.00    -0.646 OA
HETATM   16  O           1     -36.291   0.081  -9.784  0.00  0.00    -0.646 OA
ENDBRANCH   5  14
ENDBRANCH   2   5
BRANCH   3  17
HETATM   17  C           1     -34.162  -4.154 -12.487  0.00  0.00     0.274 C 
BRANCH  17  18
HETATM   18  C           1     -33.342  -4.943 -11.474  0.00  0.00     0.044 C 
BRANCH  18  19
HETATM   19  C           1     -34.269  -5.538 -10.423  0.00  0.00     0.030 C 
BRANCH  19  20
HETATM   20  C           1     -34.347  -7.047 -10.610  0.00  0.00     0.230 C 
BRANCH  20  21
HETATM   21  N           1     -35.080  -7.659  -9.453  0.00  0.00    -0.079 N 
HETATM   22  H           1     -34.503  -8.428  -9.043  0.00  0.00     0.274 HD
HETATM   23  H           1     -35.992  -8.045  -9.784  0.00  0.00     0.274 HD
HETATM   24  H           1     -35.253  -6.930  -8.725  0.00  0.00     0.274 HD
ENDBRANCH  20  21
ENDBRANCH  19  20
ENDBRANCH  18  19
ENDBRANCH  17  18
BRANCH  17  25
HETATM   25  N           1     -33.452  -4.150 -13.808  0.00  0.00    -0.067 N 
HETATM   26  H           1     -33.726  -4.997 -14.355  0.00  0.00     0.275 HD
HETATM   27  H           1     -33.715  -3.291 -14.341  0.00  0.00     0.275 HD
HETATM   28  H           1     -32.419  -4.157 -13.648  0.00  0.00     0.275 HD
ENDBRANCH  17  25
ENDBRANCH   3  17
TORSDOF 13
ENDMDL
MODEL 2
REMARK VINA RESULT:      -6.3     11.955     13.561
REMARK  13 active torsions:
REMARK  status: ('A' for Active; 'I' for Inactive)
REMARK    1  A    between atoms: C_1  and  N_23 
REMARK    2  A    between atoms: C_1  and  C_28 
REMARK    3  A    between atoms: C_2  and  C_20 
REMARK    4  A    between atoms: C_2  and  C_3 
REMARK    5  A    between atoms: C_3  and  C_26 
REMARK    6  A    between atoms: C_3  and  N_12 
REMARK    7  A    between atoms: C_6  and  C_15 
REMARK    8  A    between atoms: C_6  and  C_22 
REMARK    9  A    between atoms: C_6  and  N_17 
REMARK       I    between atoms: N_12  and  C_15 
REMARK   10  A    between atoms: C_13  and  C_24 
REMARK   11  A    between atoms: C_13  and  N_16 
REMARK   12  A    between atoms: C_20  and  C_28 
REMARK   13  A    between atoms: C_22  and  C_24 
ROOT
HETATM    1  H           1     -22.377  -5.881  -9.295  0.00  0.00     0.163 HD
HETATM    2  N           1     -22.291  -4.927  -8.969  0.00  0.00    -0.345 N 
HETATM    3  C           1     -21.701  -4.666  -7.762  0.00  0.00     0.249 C 
HETATM    4  O           1     -21.598  -3.527  -7.373  0.00  0.00    -0.271 OA
ENDROOT
BRANCH   2   5
HETATM    5  C           1     -22.792  -3.836  -9.782  0.00  0.00     0.185 C 
BRANCH   5   6
HETATM    6  C           1     -22.348  -4.034 -11.226  0.00  0.00     0.036 C 
BRANCH   6   7
HETATM    7  C           1     -22.461  -2.714 -11.977  0.00  0.00     0.004 C 
BRANCH   7   8
HETATM    8  C           1     -23.681  -2.752 -12.889  0.00  0.00     0.027 C 
BRANCH   8   9
HETATM    9  C           1     -23.332  -2.123 -14.232  0.00  0.00     0.229 C 
BRANCH   9  10
HETATM   10  N           1     -24.182  -0.906 -14.451  0.00  0.00    -0.079 N 
HETATM   11  H           1     -23.648  -0.203 -15.009  0.00  0.00     0.274 HD
HETATM   12  H           1     -25.049  -1.176 -14.969  0.00  0.00     0.274 HD
HETATM   13  H           1     -24.443  -0.492 -13.527  0.00  0.00     0.274 HD
ENDBRANCH   9  10
ENDBRANCH   8   9
ENDBRANCH   7   8
ENDBRANCH   6   7
ENDBRANCH   5   6
BRANCH   5  14
HETATM   14  C           1     -24.299  -3.811  -9.716  0.00  0.00     0.196 C 
HETATM   15  O           1     -24.898  -2.742  -9.471  0.00  0.00    -0.646 OA
HETATM   16  O           1     -24.950  -4.862  -9.908  0.00  0.00    -0.646 OA
ENDBRANCH   5  14
ENDBRANCH   2   5
BRANCH   3  17
HETATM   17  C           1     -21.180  -5.801  -6.916  0.00  0.00     0.274 C 
BRANCH  17  18
HETATM   18  C           1     -21.191  -5.390  -5.449  0.00  0.00     0.044 C 
BRANCH  18  19
HETATM   19  C           1     -21.910  -6.453  -4.628  0.00  0.00     0.030 C 
BRANCH  19  20
HETATM   20  C           1     -21.359  -6.457  -3.209  0.00  0.00     0.230 C 
BRANCH  20  21
HETATM   21  N           1     -22.382  -5.883  -2.273  0.00  0.00    -0.079 N 
HETATM   22  H           1     -22.612  -6.588  -1.536  0.00  0.00     0.274 HD
HETATM   23  H           1     -23.246  -5.642  -2.808  0.00  0.00     0.274 HD
HETATM   24  H           1     -21.998  -5.023  -1.822  0.00  0.00     0.274 HD
ENDBRANCH  20  21
ENDBRANCH  19  20
ENDBRANCH  18  19
ENDBRANCH  17  18
BRANCH  17  25
HETATM   25  N           1     -19.777  -6.131  -7.331  0.00  0.00    -0.067 N 
HETATM   26  H           1     -19.102  -5.634  -6.707  0.00  0.00     0.275 HD
HETATM   27  H           1     -19.626  -7.162  -7.255  0.00  0.00     0.275 HD
HETATM   28  H           1     -19.626  -5.828  -8.319  0.00  0.00     0.275 HD
ENDBRANCH  17  25
ENDBRANCH   3  17
TORSDOF 13
ENDMDL
MODEL 3
REMARK VINA RESULT:      -6.0      9.667     11.494
REMARK  13 active torsions:
REMARK  status: ('A' for Active; 'I' for Inactive)
REMARK    1  A    between atoms: C_1  and  N_23 
REMARK    2  A    between atoms: C_1  and  C_28 
REMARK    3  A    between atoms: C_2  and  C_20 
REMARK    4  A    between atoms: C_2  and  C_3 
REMARK    5  A    between atoms: C_3  and  C_26 
REMARK    6  A    between atoms: C_3  and  N_12 
REMARK    7  A    between atoms: C_6  and  C_15 
REMARK    8  A    between atoms: C_6  and  C_22 
REMARK    9  A    between atoms: C_6  and  N_17 
REMARK       I    between atoms: N_12  and  C_15 
REMARK   10  A    between atoms: C_13  and  C_24 
REMARK   11  A    between atoms: C_13  and  N_16 
REMARK   12  A    between atoms: C_20  and  C_28 
REMARK   13  A    between atoms: C_22  and  C_24 
ROOT
HETATM    1  H           1     -26.320  -7.156 -17.017  0.00  0.00     0.163 HD
HETATM    2  N           1     -27.020  -6.721 -17.604  0.00  0.00    -0.345 N 
HETATM    3  C           1     -26.724  -6.402 -18.902  0.00  0.00     0.249 C 
HETATM    4  O           1     -27.559  -5.882 -19.602  0.00  0.00    -0.271 OA
ENDROOT
BRANCH   2   5
HETATM    5  C           1     -28.337  -6.434 -17.070  0.00  0.00     0.185 C 
BRANCH   5   6
HETATM    6  C           1     -29.327  -7.474 -17.579  0.00  0.00     0.036 C 
BRANCH   6   7
HETATM    7  C           1     -30.742  -6.916 -17.486  0.00  0.00     0.004 C 
BRANCH   7   8
HETATM    8  C           1     -30.722  -5.427 -17.806  0.00  0.00     0.027 C 
BRANCH   8   9
HETATM    9  C           1     -31.683  -4.695 -16.879  0.00  0.00     0.229 C 
BRANCH   9  10
HETATM   10  N           1     -31.966  -3.328 -17.429  0.00  0.00    -0.079 N 
HETATM   11  H           1     -32.803  -2.925 -16.950  0.00  0.00     0.274 HD
HETATM   12  H           1     -31.140  -2.709 -17.266  0.00  0.00     0.274 HD
HETATM   13  H           1     -32.153  -3.397 -18.455  0.00  0.00     0.274 HD
ENDBRANCH   9  10
ENDBRANCH   8   9
ENDBRANCH   7   8
ENDBRANCH   6   7
ENDBRANCH   5   6
BRANCH   5  14
HETATM   14  C           1     -28.289  -6.480 -15.563  0.00  0.00     0.196 C 
HETATM   15  O           1     -28.670  -5.495 -14.894  0.00  0.00    -0.646 OA
HETATM   16  O           1     -27.867  -7.504 -14.981  0.00  0.00    -0.646 OA
ENDBRANCH   5  14
ENDBRANCH   2   5
BRANCH   3  17
HETATM   17  C           1     -25.353  -6.700 -19.457  0.00  0.00     0.274 C 
BRANCH  17  18
HETATM   18  C           1     -25.483  -7.603 -20.678  0.00  0.00     0.044 C 
BRANCH  18  19
HETATM   19  C           1     -24.599  -7.072 -21.799  0.00  0.00     0.030 C 
BRANCH  19  20
HETATM   20  C           1     -23.712  -8.194 -22.321  0.00  0.00     0.230 C 
BRANCH  20  21
HETATM   21  N           1     -22.993  -8.840 -21.173  0.00  0.00    -0.079 N 
HETATM   22  H           1     -23.663  -9.435 -20.634  0.00  0.00     0.274 HD
HETATM   23  H           1     -22.601  -8.101 -20.548  0.00  0.00     0.274 HD
HETATM   24  H           1     -22.217  -9.436 -21.539  0.00  0.00     0.274 HD
ENDBRANCH  20  21
ENDBRANCH  19  20
ENDBRANCH  18  19
ENDBRANCH  17  18
BRANCH  17  25
HETATM   25  N           1     -24.529  -7.391 -18.412  0.00  0.00    -0.067 N 
HETATM   26  H           1     -24.760  -7.001 -17.470  0.00  0.00     0.275 HD
HETATM   27  H           1     -24.739  -8.415 -18.426  0.00  0.00     0.275 HD
HETATM   28  H           1     -23.514  -7.241 -18.612  0.00  0.00     0.275 HD
ENDBRANCH  17  25
ENDBRANCH   3  17
TORSDOF 13
ENDMDL
MODEL 4
REMARK VINA RESULT:      -5.7     13.889     16.011
REMARK  13 active torsions:
REMARK  status: ('A' for Active; 'I' for Inactive)
REMARK    1  A    between atoms: C_1  and  N_23 
REMARK    2  A    between atoms: C_1  and  C_28 
REMARK    3  A    between atoms: C_2  and  C_20 
REMARK    4  A    between atoms: C_2  and  C_3 
REMARK    5  A    between atoms: C_3  and  C_26 
REMARK    6  A    between atoms: C_3  and  N_12 
REMARK    7  A    between atoms: C_6  and  C_15 
REMARK    8  A    between atoms: C_6  and  C_22 
REMARK    9  A    between atoms: C_6  and  N_17 
REMARK       I    between atoms: N_12  and  C_15 
REMARK   10  A    between atoms: C_13  and  C_24 
REMARK   11  A    between atoms: C_13  and  N_16 
REMARK   12  A    between atoms: C_20  and  C_28 
REMARK   13  A    between atoms: C_22  and  C_24 
ROOT
HETATM    1  H           1     -20.658  -4.714  -4.458  0.00  0.00     0.163 HD
HETATM    2  N           1     -21.069  -5.513  -4.923  0.00  0.00    -0.345 N 
HETATM    3  C           1     -21.472  -6.598  -4.191  0.00  0.00     0.249 C 
HETATM    4  O           1     -21.962  -7.552  -4.746  0.00  0.00    -0.271 OA
ENDROOT
BRANCH   2   5
HETATM    5  C           1     -21.232  -5.510  -6.363  0.00  0.00     0.185 C 
BRANCH   5   6
HETATM    6  C           1     -21.748  -4.149  -6.813  0.00  0.00     0.036 C 
BRANCH   6   7
HETATM    7  C           1     -23.047  -4.329  -7.585  0.00  0.00     0.004 C 
BRANCH   7   8
HETATM    8  C           1     -22.768  -4.227  -9.080  0.00  0.00     0.027 C 
BRANCH   8   9
HETATM    9  C           1     -23.910  -3.486  -9.762  0.00  0.00     0.229 C 
BRANCH   9  10
HETATM   10  N           1     -25.185  -4.255  -9.581  0.00  0.00    -0.079 N 
HETATM   11  H           1     -25.853  -4.008 -10.345  0.00  0.00     0.274 HD
HETATM   12  H           1     -24.981  -5.279  -9.614  0.00  0.00     0.274 HD
HETATM   13  H           1     -25.609  -4.014  -8.656  0.00  0.00     0.274 HD
ENDBRANCH   9  10
ENDBRANCH   8   9
ENDBRANCH   7   8
ENDBRANCH   6   7
ENDBRANCH   5   6
BRANCH   5  14
HETATM   14  C           1     -19.901  -5.786  -7.019  0.00  0.00     0.196 C 
HETATM   15  O           1     -19.399  -6.929  -6.959  0.00  0.00    -0.646 OA
HETATM   16  O           1     -19.301  -4.871  -7.624  0.00  0.00    -0.646 OA
ENDBRANCH   5  14
ENDBRANCH   2   5
BRANCH   3  17
HETATM   17  C           1     -21.302  -6.601  -2.692  0.00  0.00     0.274 C 
BRANCH  17  18
HETATM   18  C           1     -21.406  -8.029  -2.171  0.00  0.00     0.044 C 
BRANCH  18  19
HETATM   19  C           1     -21.386  -8.017  -0.648  0.00  0.00     0.030 C 
BRANCH  19  20
HETATM   20  C           1     -22.512  -8.894  -0.118  0.00  0.00     0.230 C 
BRANCH  20  21
HETATM   21  N           1     -23.544  -8.035   0.550  0.00  0.00    -0.079 N 
HETATM   22  H           1     -23.623  -7.125   0.040  0.00  0.00     0.274 HD
HETATM   23  H           1     -23.261  -7.856   1.540  0.00  0.00     0.274 HD
HETATM   24  H           1     -24.468  -8.522   0.535  0.00  0.00     0.274 HD
ENDBRANCH  20  21
ENDBRANCH  19  20
ENDBRANCH  18  19
ENDBRANCH  17  18
BRANCH  17  25
HETATM   25  N           1     -22.377  -5.763  -2.065  0.00  0.00    -0.067 N 
HETATM   26  H           1     -22.039  -4.779  -1.965  0.00  0.00     0.275 HD
HETATM   27  H           1     -23.227  -5.778  -2.672  0.00  0.00     0.275 HD
HETATM   28  H           1     -22.614  -6.148  -1.123  0.00  0.00     0.275 HD
ENDBRANCH  17  25
ENDBRANCH   3  17
TORSDOF 13
ENDMDL
MODEL 5
REMARK VINA RESULT:      -5.7     14.561     17.138
REMARK  13 active torsions:
REMARK  status: ('A' for Active; 'I' for Inactive)
REMARK    1  A    between atoms: C_1  and  N_23 
REMARK    2  A    between atoms: C_1  and  C_28 
REMARK    3  A    between atoms: C_2  and  C_20 
REMARK    4  A    between atoms: C_2  and  C_3 
REMARK    5  A    between atoms: C_3  and  C_26 
REMARK    6  A    between atoms: C_3  and  N_12 
REMARK    7  A    between atoms: C_6  and  C_15 
REMARK    8  A    between atoms: C_6  and  C_22 
REMARK    9  A    between atoms: C_6  and  N_17 
REMARK       I    between atoms: N_12  and  C_15 
REMARK   10  A    between atoms: C_13  and  C_24 
REMARK   11  A    between atoms: C_13  and  N_16 
REMARK   12  A    between atoms: C_20  and  C_28 
REMARK   13  A    between atoms: C_22  and  C_24 
ROOT
HETATM    1  H           1     -21.687  -7.121  -7.103  0.00  0.00     0.163 HD
HETATM    2  N           1     -21.204  -6.454  -6.517  0.00  0.00    -0.345 N 
HETATM    3  C           1     -21.003  -5.174  -6.958  0.00  0.00     0.249 C 
HETATM    4  O           1     -20.426  -4.376  -6.258  0.00  0.00    -0.271 OA
ENDROOT
BRANCH   2   5
HETATM    5  C           1     -20.724  -6.852  -5.208  0.00  0.00     0.185 C 
BRANCH   5   6
HETATM    6  C           1     -21.849  -6.713  -4.191  0.00  0.00     0.036 C 
BRANCH   6   7
HETATM    7  C           1     -21.298  -6.116  -2.902  0.00  0.00     0.004 C 
BRANCH   7   8
HETATM    8  C           1     -22.294  -6.343  -1.772  0.00  0.00     0.027 C 
BRANCH   8   9
HETATM    9  C           1     -21.844  -7.528  -0.928  0.00  0.00     0.229 C 
BRANCH   9  10
HETATM   10  N           1     -22.883  -7.824   0.113  0.00  0.00    -0.079 N 
HETATM   11  H           1     -22.802  -8.822   0.413  0.00  0.00     0.274 HD
HETATM   12  H           1     -22.737  -7.200   0.938  0.00  0.00     0.274 HD
HETATM   13  H           1     -23.835  -7.657  -0.286  0.00  0.00     0.274 HD
ENDBRANCH   9  10
ENDBRANCH   8   9
ENDBRANCH   7   8
ENDBRANCH   6   7
ENDBRANCH   5   6
BRANCH   5  14
HETATM   14  C           1     -20.264  -8.288  -5.257  0.00  0.00     0.196 C 
HETATM   15  O           1     -20.972  -9.190  -4.760  0.00  0.00    -0.646 OA
HETATM   16  O           1     -19.173  -8.577  -5.797  0.00  0.00    -0.646 OA
ENDBRANCH   5  14
ENDBRANCH   2   5
BRANCH   3  17
HETATM   17  C           1     -21.503  -4.759  -8.321  0.00  0.00     0.274 C 
BRANCH  17  18
HETATM   18  C           1     -20.361  -4.137  -9.114  0.00  0.00     0.044 C 
BRANCH  18  19
HETATM   19  C           1     -20.529  -4.469 -10.591  0.00  0.00     0.030 C 
BRANCH  19  20
HETATM   20  C           1     -21.109  -3.264 -11.320  0.00  0.00     0.230 C 
BRANCH  20  21
HETATM   21  N           1     -21.627  -3.691 -12.661  0.00  0.00    -0.079 N 
HETATM   22  H           1     -21.049  -4.486 -13.020  0.00  0.00     0.274 HD
HETATM   23  H           1     -21.569  -2.889 -13.328  0.00  0.00     0.274 HD
HETATM   24  H           1     -22.621  -3.999 -12.570  0.00  0.00     0.274 HD
ENDBRANCH  20  21
ENDBRANCH  19  20
ENDBRANCH  18  19
ENDBRANCH  17  18
BRANCH  17  25
HETATM   25  N           1     -22.606  -3.755  -8.164  0.00  0.00    -0.067 N 
HETATM   26  H           1     -22.973  -3.788  -7.186  0.00  0.00     0.275 HD
HETATM   27  H           1     -22.236  -2.798  -8.365  0.00  0.00     0.275 HD
HETATM   28  H           1     -23.377  -3.977  -8.834  0.00  0.00     0.275 HD
ENDBRANCH  17  25
ENDBRANCH   3  17
TORSDOF 13
ENDMDL
MODEL 6
REMARK VINA RESULT:      -5.6     12.228     14.000
REMARK  13 active torsions:
REMARK  status: ('A' for Active; 'I' for Inactive)
REMARK    1  A    between atoms: C_1  and  N_23 
REMARK    2  A    between atoms: C_1  and  C_28 
REMARK    3  A    between atoms: C_2  and  C_20 
REMARK    4  A    between atoms: C_2  and  C_3 
REMARK    5  A    between atoms: C_3  and  C_26 
REMARK    6  A    between atoms: C_3  and  N_12 
REMARK    7  A    between atoms: C_6  and  C_15 
REMARK    8  A    between atoms: C_6  and  C_22 
REMARK    9  A    between atoms: C_6  and  N_17 
REMARK       I    between atoms: N_12  and  C_15 
REMARK   10  A    between atoms: C_13  and  C_24 
REMARK   11  A    between atoms: C_13  and  N_16 
REMARK   12  A    between atoms: C_20  and  C_28 
REMARK   13  A    between atoms: C_22  and  C_24 
ROOT
HETATM    1  H           1     -23.437  -5.444  -7.612  0.00  0.00     0.163 HD
HETATM    2  N           1     -22.719  -4.747  -7.755  0.00  0.00    -0.345 N 
HETATM    3  C           1     -21.700  -4.616  -6.850  0.00  0.00     0.249 C 
HETATM    4  O           1     -20.842  -3.783  -7.021  0.00  0.00    -0.271 OA
ENDROOT
BRANCH   2   5
HETATM    5  C           1     -22.767  -3.885  -8.920  0.00  0.00     0.185 C 
BRANCH   5   6
HETATM    6  C           1     -21.833  -4.429  -9.993  0.00  0.00     0.036 C 
BRANCH   6   7
HETATM    7  C           1     -21.513  -3.327 -10.994  0.00  0.00     0.004 C 
BRANCH   7   8
HETATM    8  C           1     -22.147  -3.663 -12.338  0.00  0.00     0.027 C 
BRANCH   8   9
HETATM    9  C           1     -23.127  -2.564 -12.728  0.00  0.00     0.229 C 
BRANCH   9  10
HETATM   10  N           1     -24.530  -3.083 -12.617  0.00  0.00    -0.079 N 
HETATM   11  H           1     -24.926  -2.823 -11.686  0.00  0.00     0.274 HD
HETATM   12  H           1     -25.117  -2.663 -13.373  0.00  0.00     0.274 HD
HETATM   13  H           1     -24.526  -4.123 -12.716  0.00  0.00     0.274 HD
ENDBRANCH   9  10
ENDBRANCH   8   9
ENDBRANCH   7   8
ENDBRANCH   6   7
ENDBRANCH   5   6
BRANCH   5  14
HETATM   14  C           1     -24.178  -3.842  -9.454  0.00  0.00     0.196 C 
HETATM   15  O           1     -24.700  -4.875  -9.927  0.00  0.00    -0.646 OA
HETATM   16  O           1     -24.825  -2.772  -9.425  0.00  0.00    -0.646 OA
ENDBRANCH   5  14
ENDBRANCH   2   5
BRANCH   3  17
HETATM   17  C           1     -21.650  -5.513  -5.637  0.00  0.00     0.274 C 
BRANCH  17  18
HETATM   18  C           1     -20.814  -6.748  -5.952  0.00  0.00     0.044 C 
BRANCH  18  19
HETATM   19  C           1     -21.042  -7.803  -4.878  0.00  0.00     0.030 C 
BRANCH  19  20
HETATM   20  C           1     -20.322  -9.087  -5.267  0.00  0.00     0.230 C 
BRANCH  20  21
HETATM   21  N           1     -19.001  -8.752  -5.892  0.00  0.00    -0.079 N 
HETATM   22  H           1     -18.297  -8.570  -5.140  0.00  0.00     0.274 HD
HETATM   23  H           1     -19.103  -7.899  -6.487  0.00  0.00     0.274 HD
HETATM   24  H           1     -18.680  -9.552  -6.481  0.00  0.00     0.274 HD
ENDBRANCH  20  21
ENDBRANCH  19  20
ENDBRANCH  18  19
ENDBRANCH  17  18
BRANCH  17  25
HETATM   25  N           1     -23.041  -5.934  -5.268  0.00  0.00    -0.067 N 
HETATM   26  H           1     -23.629  -5.991  -6.130  0.00  0.00     0.275 HD
HETATM   27  H           1     -23.010  -6.870  -4.805  0.00  0.00     0.275 HD
HETATM   28  H           1     -23.453  -5.234  -4.610  0.00  0.00     0.275 HD
ENDBRANCH  17  25
ENDBRANCH   3  17
TORSDOF 13
ENDMDL
MODEL 7
REMARK VINA RESULT:      -5.6      9.703     11.421
REMARK  13 active torsions:
REMARK  status: ('A' for Active; 'I' for Inactive)
REMARK    1  A    between atoms: C_1  and  N_23 
REMARK    2  A    between atoms: C_1  and  C_28 
REMARK    3  A    between atoms: C_2  and  C_20 
REMARK    4  A    between atoms: C_2  and  C_3 
REMARK    5  A    between atoms: C_3  and  C_26 
REMARK    6  A    between atoms: C_3  and  N_12 
REMARK    7  A    between atoms: C_6  and  C_15 
REMARK    8  A    between atoms: C_6  and  C_22 
REMARK    9  A    between atoms: C_6  and  N_17 
REMARK       I    between atoms: N_12  and  C_15 
REMARK   10  A    between atoms: C_13  and  C_24 
REMARK   11  A    between atoms: C_13  and  N_16 
REMARK   12  A    between atoms: C_20  and  C_28 
REMARK   13  A    between atoms: C_22  and  C_24 
ROOT
HETATM    1  H           1     -27.884  -7.218 -19.745  0.00  0.00     0.163 HD
HETATM    2  N           1     -27.933  -6.929 -18.777  0.00  0.00    -0.345 N 
HETATM    3  C           1     -26.812  -6.467 -18.142  0.00  0.00     0.249 C 
HETATM    4  O           1     -26.871  -6.122 -16.985  0.00  0.00    -0.271 OA
ENDROOT
BRANCH   2   5
HETATM    5  C           1     -29.192  -7.004 -18.061  0.00  0.00     0.185 C 
BRANCH   5   6
HETATM    6  C           1     -29.844  -5.628 -18.035  0.00  0.00     0.036 C 
BRANCH   6   7
HETATM    7  C           1     -30.443  -5.375 -16.658  0.00  0.00     0.004 C 
BRANCH   7   8
HETATM    8  C           1     -31.898  -4.950 -16.808  0.00  0.00     0.027 C 
BRANCH   8   9
HETATM    9  C           1     -31.969  -3.644 -17.589  0.00  0.00     0.229 C 
BRANCH   9  10
HETATM   10  N           1     -33.362  -3.093 -17.515  0.00  0.00    -0.079 N 
HETATM   11  H           1     -33.951  -3.711 -16.913  0.00  0.00     0.274 HD
HETATM   12  H           1     -33.334  -2.132 -17.105  0.00  0.00     0.274 HD
HETATM   13  H           1     -33.771  -3.050 -18.476  0.00  0.00     0.274 HD
ENDBRANCH   9  10
ENDBRANCH   8   9
ENDBRANCH   7   8
ENDBRANCH   6   7
ENDBRANCH   5   6
BRANCH   5  14
HETATM   14  C           1     -30.107  -7.982 -18.756  0.00  0.00     0.196 C 
HETATM   15  O           1     -31.345  -7.807 -18.734  0.00  0.00    -0.646 OA
HETATM   16  O           1     -29.627  -8.969 -19.356  0.00  0.00    -0.646 OA
ENDBRANCH   5  14
ENDBRANCH   2   5
BRANCH   3  17
HETATM   17  C           1     -25.502  -6.388 -18.886  0.00  0.00     0.274 C 
BRANCH  17  18
HETATM   18  C           1     -25.702  -6.864 -20.320  0.00  0.00     0.044 C 
BRANCH  18  19
HETATM   19  C           1     -24.600  -7.849 -20.687  0.00  0.00     0.030 C 
BRANCH  19  20
HETATM   20  C           1     -24.255  -7.700 -22.162  0.00  0.00     0.230 C 
BRANCH  20  21
HETATM   21  N           1     -23.244  -8.738 -22.548  0.00  0.00    -0.079 N 
HETATM   22  H           1     -22.320  -8.278 -22.716  0.00  0.00     0.274 HD
HETATM   23  H           1     -23.557  -9.222 -23.420  0.00  0.00     0.274 HD
HETATM   24  H           1     -23.148  -9.436 -21.777  0.00  0.00     0.274 HD
ENDBRANCH  20  21
ENDBRANCH  19  20
ENDBRANCH  18  19
ENDBRANCH  17  18
BRANCH  17  25
HETATM   25  N           1     -24.488  -7.261 -18.208  0.00  0.00    -0.067 N 
HETATM   26  H           1     -23.687  -6.676 -17.880  0.00  0.00     0.275 HD
HETATM   27  H           1     -24.931  -7.736 -17.389  0.00  0.00     0.275 HD
HETATM   28  H           1     -24.142  -7.981 -18.882  0.00  0.00     0.275 HD
ENDBRANCH  17  25
ENDBRANCH   3  17
TORSDOF 13
ENDMDL
MODEL 8
REMARK VINA RESULT:      -5.6     13.860     16.831
REMARK  13 active torsions:
REMARK  status: ('A' for Active; 'I' for Inactive)
REMARK    1  A    between atoms: C_1  and  N_23 
REMARK    2  A    between atoms: C_1  and  C_28 
REMARK    3  A    between atoms: C_2  and  C_20 
REMARK    4  A    between atoms: C_2  and  C_3 
REMARK    5  A    between atoms: C_3  and  C_26 
REMARK    6  A    between atoms: C_3  and  N_12 
REMARK    7  A    between atoms: C_6  and  C_15 
REMARK    8  A    between atoms: C_6  and  C_22 
REMARK    9  A    between atoms: C_6  and  N_17 
REMARK       I    between atoms: N_12  and  C_15 
REMARK   10  A    between atoms: C_13  and  C_24 
REMARK   11  A    between atoms: C_13  and  N_16 
REMARK   12  A    between atoms: C_20  and  C_28 
REMARK   13  A    between atoms: C_22  and  C_24 
ROOT
HETATM    1  H           1     -22.191  -6.197  -6.571  0.00  0.00     0.163 HD
HETATM    2  N           1     -21.361  -5.886  -6.084  0.00  0.00    -0.345 N 
HETATM    3  C           1     -20.623  -4.846  -6.584  0.00  0.00     0.249 C 
HETATM    4  O           1     -19.631  -4.475  -6.003  0.00  0.00    -0.271 OA
ENDROOT
BRANCH   2   5
HETATM    5  C           1     -20.952  -6.541  -4.857  0.00  0.00     0.185 C 
BRANCH   5   6
HETATM    6  C           1     -22.084  -6.469  -3.842  0.00  0.00     0.036 C 
BRANCH   6   7
HETATM    7  C           1     -21.528  -6.043  -2.490  0.00  0.00     0.004 C 
BRANCH   7   8
HETATM    8  C           1     -22.316  -6.727  -1.379  0.00  0.00     0.027 C 
BRANCH   8   9
HETATM    9  C           1     -21.734  -8.111  -1.122  0.00  0.00     0.229 C 
BRANCH   9  10
HETATM   10  N           1     -20.275  -8.114  -1.471  0.00  0.00    -0.079 N 
HETATM   11  H           1     -20.086  -7.374  -2.184  0.00  0.00     0.274 HD
HETATM   12  H           1     -19.712  -7.921  -0.612  0.00  0.00     0.274 HD
HETATM   13  H           1     -20.011  -9.047  -1.859  0.00  0.00     0.274 HD
ENDBRANCH   9  10
ENDBRANCH   8   9
ENDBRANCH   7   8
ENDBRANCH   6   7
ENDBRANCH   5   6
BRANCH   5  14
HETATM   14  C           1     -20.623  -7.985  -5.145  0.00  0.00     0.196 C 
HETATM   15  O           1     -19.778  -8.586  -4.446  0.00  0.00    -0.646 OA
HETATM   16  O           1     -21.196  -8.581  -6.083  0.00  0.00    -0.646 OA
ENDBRANCH   5  14
ENDBRANCH   2   5
BRANCH   3  17
HETATM   17  C           1     -21.049  -4.165  -7.861  0.00  0.00     0.274 C 
BRANCH  17  18
HETATM   18  C           1     -22.545  -4.361  -8.068  0.00  0.00     0.044 C 
BRANCH  18  19
HETATM   19  C           1     -22.949  -3.796  -9.424  0.00  0.00     0.030 C 
BRANCH  19  20
HETATM   20  C           1     -24.224  -4.478  -9.899  0.00  0.00     0.230 C 
BRANCH  20  21
HETATM   21  N           1     -25.395  -3.568  -9.671  0.00  0.00    -0.079 N 
HETATM   22  H           1     -26.188  -3.861 -10.286  0.00  0.00     0.274 HD
HETATM   23  H           1     -25.121  -2.586  -9.898  0.00  0.00     0.274 HD
HETATM   24  H           1     -25.692  -3.626  -8.671  0.00  0.00     0.274 HD
ENDBRANCH  20  21
ENDBRANCH  19  20
ENDBRANCH  18  19
ENDBRANCH  17  18
BRANCH  17  25
HETATM   25  N           1     -20.303  -4.760  -9.018  0.00  0.00    -0.067 N 
HETATM   26  H           1     -20.693  -4.389  -9.914  0.00  0.00     0.275 HD
HETATM   27  H           1     -19.292  -4.506  -8.947  0.00  0.00     0.275 HD
HETATM   28  H           1     -20.403  -5.800  -8.999  0.00  0.00     0.275 HD
ENDBRANCH  17  25
ENDBRANCH   3  17
TORSDOF 13
ENDMDL
MODEL 9
REMARK VINA RESULT:      -5.4     14.148     17.309
REMARK  13 active torsions:
REMARK  status: ('A' for Active; 'I' for Inactive)
REMARK    1  A    between atoms: C_1  and  N_23 
REMARK    2  A    between atoms: C_1  and  C_28 
REMARK    3  A    between atoms: C_2  and  C_20 
REMARK    4  A    between atoms: C_2  and  C_3 
REMARK    5  A    between atoms: C_3  and  C_26 
REMARK    6  A    between atoms: C_3  and  N_12 
REMARK    7  A    between atoms: C_6  and  C_15 
REMARK    8  A    between atoms: C_6  and  C_22 
REMARK    9  A    between atoms: C_6  and  N_17 
REMARK       I    between atoms: N_12  and  C_15 
REMARK   10  A    between atoms: C_13  and  C_24 
REMARK   11  A    between atoms: C_13  and  N_16 
REMARK   12  A    between atoms: C_20  and  C_28 
REMARK   13  A    between atoms: C_22  and  C_24 
ROOT
HETATM    1  H           1     -19.766  -6.851  -4.655  0.00  0.00     0.163 HD
HETATM    2  N           1     -20.773  -6.768  -4.689  0.00  0.00    -0.345 N 
HETATM    3  C           1     -21.359  -5.892  -5.563  0.00  0.00     0.249 C 
HETATM    4  O           1     -22.562  -5.792  -5.604  0.00  0.00    -0.271 OA
ENDROOT
BRANCH   2   5
HETATM    5  C           1     -21.598  -7.576  -3.813  0.00  0.00     0.185 C 
BRANCH   5   6
HETATM    6  C           1     -21.008  -8.977  -3.710  0.00  0.00     0.036 C 
BRANCH   6   7
HETATM    7  C           1     -22.134  -9.993  -3.570  0.00  0.00     0.004 C 
BRANCH   7   8
HETATM    8  C           1     -21.883 -10.862  -2.344  0.00  0.00     0.027 C 
BRANCH   8   9
HETATM    9  C           1     -23.096 -10.804  -1.423  0.00  0.00     0.229 C 
BRANCH   9  10
HETATM   10  N           1     -22.953  -9.647  -0.480  0.00  0.00    -0.079 N 
HETATM   11  H           1     -23.781  -9.610   0.156  0.00  0.00     0.274 HD
HETATM   12  H           1     -22.084  -9.766   0.089  0.00  0.00     0.274 HD
HETATM   13  H           1     -22.893  -8.757  -1.025  0.00  0.00     0.274 HD
ENDBRANCH   9  10
ENDBRANCH   8   9
ENDBRANCH   7   8
ENDBRANCH   6   7
ENDBRANCH   5   6
BRANCH   5  14
HETATM   14  C           1     -21.642  -6.946  -2.442  0.00  0.00     0.196 C 
HETATM   15  O           1     -20.963  -7.428  -1.509  0.00  0.00    -0.646 OA
HETATM   16  O           1     -22.357  -5.941  -2.239  0.00  0.00    -0.646 OA
ENDBRANCH   5  14
ENDBRANCH   2   5
BRANCH   3  17
HETATM   17  C           1     -20.501  -5.050  -6.476  0.00  0.00     0.274 C 
BRANCH  17  18
HETATM   18  C           1     -21.340  -3.926  -7.069  0.00  0.00     0.044 C 
BRANCH  18  19
HETATM   19  C           1     -21.431  -4.102  -8.579  0.00  0.00     0.030 C 
BRANCH  19  20
HETATM   20  C           1     -22.892  -4.082  -9.006  0.00  0.00     0.230 C 
BRANCH  20  21
HETATM   21  N           1     -23.770  -4.112  -7.790  0.00  0.00    -0.079 N 
HETATM   22  H           1     -23.176  -4.060  -6.931  0.00  0.00     0.274 HD
HETATM   23  H           1     -24.321  -5.000  -7.780  0.00  0.00     0.274 HD
HETATM   24  H           1     -24.422  -3.297  -7.810  0.00  0.00     0.274 HD
ENDBRANCH  20  21
ENDBRANCH  19  20
ENDBRANCH  18  19
ENDBRANCH  17  18
BRANCH  17  25
HETATM   25  N           1     -19.960  -5.906  -7.582  0.00  0.00    -0.067 N 
HETATM   26  H           1     -19.670  -6.833  -7.198  0.00  0.00     0.275 HD
HETATM   27  H           1     -20.699  -6.045  -8.307  0.00  0.00     0.275 HD
HETATM   28  H           1     -19.133  -5.434  -8.015  0.00  0.00     0.275 HD
ENDBRANCH  17  25
ENDBRANCH   3  17
TORSDOF 13
ENDMDL
