MODEL 1
REMARK VINA RESULT:      -5.9      0.000      0.000
REMARK  9 active torsions:
REMARK  status: ('A' for Active; 'I' for Inactive)
REMARK    1  A    between atoms: N_2  and  C_14 
REMARK       I    between atoms: N_2  and  C_3 
REMARK    2  A    between atoms: C_3  and  C_11 
REMARK    3  A    between atoms: N_9  and  C_11 
REMARK    4  A    between atoms: C_12  and  C_22 
REMARK    5  A    between atoms: C_12  and  C_13 
REMARK    6  A    between atoms: C_13  and  C_14 
REMARK    7  A    between atoms: C_14  and  C_15 
REMARK    8  A    between atoms: N_20  and  C_21 
REMARK    9  A    between atoms: C_21  and  C_22 
ROOT
HETATM    1  C           1     -22.705  -3.764  -9.371  0.00  0.00     0.185 C 
ENDROOT
BRANCH   1   2
HETATM    2  N           1     -22.369  -4.734  -8.347  0.00  0.00    -0.345 N 
HETATM    3  C           1     -21.673  -4.341  -7.235  0.00  0.00     0.248 C 
HETATM    4  O           1     -21.341  -3.187  -7.107  0.00  0.00    -0.271 OA
HETATM    5  H           1     -22.648  -5.700  -8.455  0.00  0.00     0.163 HD
BRANCH   3   6
HETATM    6  C           1     -21.323  -5.350  -6.170  0.00  0.00     0.270 C 
HETATM    7  C           1     -20.180  -4.815  -5.318  0.00  0.00     0.050 C 
BRANCH   6   8
HETATM    8  N           1     -20.903  -6.636  -6.818  0.00  0.00    -0.067 N 
HETATM    9  H           1     -21.228  -7.442  -6.239  0.00  0.00     0.275 HD
HETATM   10  H           1     -21.326  -6.699  -7.772  0.00  0.00     0.275 HD
HETATM   11  H           1     -19.861  -6.662  -6.897  0.00  0.00     0.275 HD
ENDBRANCH   6   8
ENDBRANCH   3   6
ENDBRANCH   1   2
BRANCH   1  12
HETATM   12  C           1     -21.925  -4.075 -10.641  0.00  0.00     0.036 C 
BRANCH  12  13
HETATM   13  C           1     -21.934  -2.857 -11.555  0.00  0.00     0.004 C 
BRANCH  13  14
HETATM   14  C           1     -22.523  -3.240 -12.906  0.00  0.00     0.027 C 
BRANCH  14  15
HETATM   15  C           1     -23.774  -2.411 -13.169  0.00  0.00     0.229 C 
BRANCH  15  16
HETATM   16  N           1     -24.975  -3.138 -12.641  0.00  0.00    -0.079 N 
HETATM   17  H           1     -24.971  -4.122 -12.993  0.00  0.00     0.274 HD
HETATM   18  H           1     -25.844  -2.656 -12.966  0.00  0.00     0.274 HD
HETATM   19  H           1     -24.950  -3.141 -11.596  0.00  0.00     0.274 HD
ENDBRANCH  15  16
ENDBRANCH  14  15
ENDBRANCH  13  14
ENDBRANCH  12  13
ENDBRANCH   1  12
BRANCH   1  20
HETATM   20  C           1     -24.185  -3.832  -9.661  0.00  0.00     0.196 C 
HETATM   21  O           1     -24.898  -2.816  -9.517  0.00  0.00    -0.646 OA
HETATM   22  O           1     -24.698  -4.906 -10.042  0.00  0.00    -0.646 OA
ENDBRANCH   1  20
TORSDOF 9
ENDMDL
MODEL 2
REMARK VINA RESULT:      -5.9     12.080     13.957
REMARK  9 active torsions:
REMARK  status: ('A' for Active; 'I' for Inactive)
REMARK    1  A    between atoms: N_2  and  C_14 
REMARK       I    between atoms: N_2  and  C_3 
REMARK    2  A    between atoms: C_3  and  C_11 
REMARK    3  A    between atoms: N_9  and  C_11 
REMARK    4  A    between atoms: C_12  and  C_22 
REMARK    5  A    between atoms: C_12  and  C_13 
REMARK    6  A    between atoms: C_13  and  C_14 
REMARK    7  A    between atoms: C_14  and  C_15 
REMARK    8  A    between atoms: N_20  and  C_21 
REMARK    9  A    between atoms: C_21  and  C_22 
ROOT
HETATM    1  C           1     -35.242  -1.664 -11.601  0.00  0.00     0.185 C 
ENDROOT
BRANCH   1   2
HETATM    2  N           1     -35.121  -0.615 -12.595  0.00  0.00    -0.345 N 
HETATM    3  C           1     -35.066  -0.935 -13.925  0.00  0.00     0.248 C 
HETATM    4  O           1     -35.120  -2.092 -14.270  0.00  0.00    -0.271 OA
HETATM    5  H           1     -35.077   0.354 -12.306  0.00  0.00     0.163 HD
BRANCH   3   6
HETATM    6  C           1     -34.940   0.156 -14.959  0.00  0.00     0.270 C 
HETATM    7  C           1     -34.910   1.512 -14.267  0.00  0.00     0.050 C 
BRANCH   6   8
HETATM    8  N           1     -36.113   0.098 -15.892  0.00  0.00    -0.067 N 
HETATM    9  H           1     -36.727   0.929 -15.734  0.00  0.00     0.275 HD
HETATM   10  H           1     -35.771   0.101 -16.881  0.00  0.00     0.275 HD
HETATM   11  H           1     -36.657  -0.776 -15.714  0.00  0.00     0.275 HD
ENDBRANCH   6   8
ENDBRANCH   3   6
ENDBRANCH   1   2
BRANCH   1  12
HETATM   12  C           1     -33.895  -1.877 -10.923  0.00  0.00     0.036 C 
BRANCH  12  13
HETATM   13  C           1     -33.320  -3.222 -11.348  0.00  0.00     0.004 C 
BRANCH  13  14
HETATM   14  C           1     -34.034  -4.340 -10.599  0.00  0.00     0.027 C 
BRANCH  14  15
HETATM   15  C           1     -34.429  -5.437 -11.579  0.00  0.00     0.229 C 
BRANCH  15  16
HETATM   16  N           1     -34.478  -4.874 -12.968  0.00  0.00    -0.079 N 
HETATM   17  H           1     -34.966  -3.949 -12.953  0.00  0.00     0.274 HD
HETATM   18  H           1     -34.998  -5.532 -13.592  0.00  0.00     0.274 HD
HETATM   19  H           1     -33.505  -4.748 -13.329  0.00  0.00     0.274 HD
ENDBRANCH  15  16
ENDBRANCH  14  15
ENDBRANCH  13  14
ENDBRANCH  12  13
ENDBRANCH   1  12
BRANCH   1  20
HETATM   20  C           1     -36.267  -1.262 -10.569  0.00  0.00     0.196 C 
HETATM   21  O           1     -35.900  -0.760  -9.485  0.00  0.00    -0.646 OA
HETATM   22  O           1     -37.484  -1.432 -10.798  0.00  0.00    -0.646 OA
ENDBRANCH   1  20
TORSDOF 9
ENDMDL
MODEL 3
REMARK VINA RESULT:      -5.9     11.997     13.957
REMARK  9 active torsions:
REMARK  status: ('A' for Active; 'I' for Inactive)
REMARK    1  A    between atoms: N_2  and  C_14 
REMARK       I    between atoms: N_2  and  C_3 
REMARK    2  A    between atoms: C_3  and  C_11 
REMARK    3  A    between atoms: N_9  and  C_11 
REMARK    4  A    between atoms: C_12  and  C_22 
REMARK    5  A    between atoms: C_12  and  C_13 
REMARK    6  A    between atoms: C_13  and  C_14 
REMARK    7  A    between atoms: C_14  and  C_15 
REMARK    8  A    between atoms: N_20  and  C_21 
REMARK    9  A    between atoms: C_21  and  C_22 
ROOT
HETATM    1  C           1     -34.882  -2.507 -12.129  0.00  0.00     0.185 C 
ENDROOT
BRANCH   1   2
HETATM    2  N           1     -34.767  -1.608 -13.261  0.00  0.00    -0.345 N 
HETATM    3  C           1     -35.858  -0.894 -13.681  0.00  0.00     0.248 C 
HETATM    4  O           1     -36.915  -1.013 -13.108  0.00  0.00    -0.271 OA
HETATM    5  H           1     -33.882  -1.508 -13.741  0.00  0.00     0.163 HD
BRANCH   3   6
HETATM    6  C           1     -35.739   0.041 -14.859  0.00  0.00     0.270 C 
HETATM    7  C           1     -35.920  -0.743 -16.152  0.00  0.00     0.050 C 
BRANCH   6   8
HETATM    8  N           1     -34.385   0.685 -14.851  0.00  0.00    -0.067 N 
HETATM    9  H           1     -34.226   1.176 -15.760  0.00  0.00     0.275 HD
HETATM   10  H           1     -34.333   1.377 -14.069  0.00  0.00     0.275 HD
HETATM   11  H           1     -33.651  -0.047 -14.718  0.00  0.00     0.275 HD
ENDBRANCH   6   8
ENDBRANCH   3   6
ENDBRANCH   1   2
BRANCH   1  12
HETATM   12  C           1     -33.972  -3.709 -12.343  0.00  0.00     0.036 C 
BRANCH  12  13
HETATM   13  C           1     -34.739  -4.988 -12.035  0.00  0.00     0.004 C 
BRANCH  13  14
HETATM   14  C           1     -34.410  -5.451 -10.622  0.00  0.00     0.027 C 
BRANCH  14  15
HETATM   15  C           1     -34.281  -6.968 -10.601  0.00  0.00     0.229 C 
BRANCH  15  16
HETATM   16  N           1     -35.111  -7.525  -9.482  0.00  0.00    -0.079 N 
HETATM   17  H           1     -35.713  -6.769  -9.084  0.00  0.00     0.274 HD
HETATM   18  H           1     -34.482  -7.900  -8.736  0.00  0.00     0.274 HD
HETATM   19  H           1     -35.716  -8.296  -9.846  0.00  0.00     0.274 HD
ENDBRANCH  15  16
ENDBRANCH  14  15
ENDBRANCH  13  14
ENDBRANCH  12  13
ENDBRANCH   1  12
BRANCH   1  20
HETATM   20  C           1     -34.472  -1.783 -10.870  0.00  0.00     0.196 C 
HETATM   21  O           1     -35.333  -1.208 -10.171  0.00  0.00    -0.646 OA
HETATM   22  O           1     -33.270  -1.756 -10.528  0.00  0.00    -0.646 OA
ENDBRANCH   1  20
TORSDOF 9
ENDMDL
MODEL 4
REMARK VINA RESULT:      -5.8     11.536     13.542
REMARK  9 active torsions:
REMARK  status: ('A' for Active; 'I' for Inactive)
REMARK    1  A    between atoms: N_2  and  C_14 
REMARK       I    between atoms: N_2  and  C_3 
REMARK    2  A    between atoms: C_3  and  C_11 
REMARK    3  A    between atoms: N_9  and  C_11 
REMARK    4  A    between atoms: C_12  and  C_22 
REMARK    5  A    between atoms: C_12  and  C_13 
REMARK    6  A    between atoms: C_13  and  C_14 
REMARK    7  A    between atoms: C_14  and  C_15 
REMARK    8  A    between atoms: N_20  and  C_21 
REMARK    9  A    between atoms: C_21  and  C_22 
ROOT
HETATM    1  C           1     -35.506  -0.709 -11.781  0.00  0.00     0.185 C 
ENDROOT
BRANCH   1   2
HETATM    2  N           1     -35.167  -2.110 -11.622  0.00  0.00    -0.345 N 
HETATM    3  C           1     -34.038  -2.466 -10.933  0.00  0.00     0.248 C 
HETATM    4  O           1     -33.326  -1.614 -10.458  0.00  0.00    -0.271 OA
HETATM    5  H           1     -35.764  -2.824 -12.019  0.00  0.00     0.163 HD
BRANCH   3   6
HETATM    6  C           1     -33.685  -3.924 -10.767  0.00  0.00     0.270 C 
HETATM    7  C           1     -32.722  -4.343 -11.869  0.00  0.00     0.050 C 
BRANCH   6   8
HETATM    8  N           1     -34.932  -4.753 -10.852  0.00  0.00    -0.067 N 
HETATM    9  H           1     -34.687  -5.722 -11.156  0.00  0.00     0.275 HD
HETATM   10  H           1     -35.390  -4.789  -9.912  0.00  0.00     0.275 HD
HETATM   11  H           1     -35.588  -4.325 -11.544  0.00  0.00     0.275 HD
ENDBRANCH   6   8
ENDBRANCH   3   6
ENDBRANCH   1   2
BRANCH   1  12
HETATM   12  C           1     -35.838  -0.431 -13.241  0.00  0.00     0.036 C 
BRANCH  12  13
HETATM   13  C           1     -34.932   0.675 -13.766  0.00  0.00     0.004 C 
BRANCH  13  14
HETATM   14  C           1     -35.428   1.132 -15.132  0.00  0.00     0.027 C 
BRANCH  14  15
HETATM   15  C           1     -36.665   0.333 -15.518  0.00  0.00     0.229 C 
BRANCH  15  16
HETATM   16  N           1     -37.766   1.273 -15.910  0.00  0.00    -0.079 N 
HETATM   17  H           1     -38.180   0.966 -16.820  0.00  0.00     0.274 HD
HETATM   18  H           1     -37.379   2.239 -16.011  0.00  0.00     0.274 HD
HETATM   19  H           1     -38.506   1.271 -15.172  0.00  0.00     0.274 HD
ENDBRANCH  15  16
ENDBRANCH  14  15
ENDBRANCH  13  14
ENDBRANCH  12  13
ENDBRANCH   1  12
BRANCH   1  20
HETATM   20  C           1     -36.702  -0.381 -10.922  0.00  0.00     0.196 C 
HETATM   21  O           1     -36.617   0.504 -10.044  0.00  0.00    -0.646 OA
HETATM   22  O           1     -37.778  -0.996 -11.087  0.00  0.00    -0.646 OA
ENDBRANCH   1  20
TORSDOF 9
ENDMDL
MODEL 5
REMARK VINA RESULT:      -5.7      1.930      5.765
REMARK  9 active torsions:
REMARK  status: ('A' for Active; 'I' for Inactive)
REMARK    1  A    between atoms: N_2  and  C_14 
REMARK       I    between atoms: N_2  and  C_3 
REMARK    2  A    between atoms: C_3  and  C_11 
REMARK    3  A    between atoms: N_9  and  C_11 
REMARK    4  A    between atoms: C_12  and  C_22 
REMARK    5  A    between atoms: C_12  and  C_13 
REMARK    6  A    between atoms: C_13  and  C_14 
REMARK    7  A    between atoms: C_14  and  C_15 
REMARK    8  A    between atoms: N_20  and  C_21 
REMARK    9  A    between atoms: C_21  and  C_22 
ROOT
HETATM    1  C           1     -23.658  -4.200 -10.907  0.00  0.00     0.185 C 
ENDROOT
BRANCH   1   2
HETATM    2  N           1     -23.121  -3.233 -11.844  0.00  0.00    -0.345 N 
HETATM    3  C           1     -23.576  -3.206 -13.135  0.00  0.00     0.248 C 
HETATM    4  O           1     -24.425  -3.988 -13.493  0.00  0.00    -0.271 OA
HETATM    5  H           1     -22.411  -2.578 -11.544  0.00  0.00     0.163 HD
BRANCH   3   6
HETATM    6  C           1     -23.018  -2.200 -14.111  0.00  0.00     0.270 C 
HETATM    7  C           1     -24.147  -1.333 -14.650  0.00  0.00     0.050 C 
BRANCH   6   8
HETATM    8  N           1     -22.355  -2.919 -15.247  0.00  0.00    -0.067 N 
HETATM    9  H           1     -22.384  -3.950 -15.074  0.00  0.00     0.275 HD
HETATM   10  H           1     -22.859  -2.702 -16.138  0.00  0.00     0.275 HD
HETATM   11  H           1     -21.361  -2.607 -15.325  0.00  0.00     0.275 HD
ENDBRANCH   6   8
ENDBRANCH   3   6
ENDBRANCH   1   2
BRANCH   1  12
HETATM   12  C           1     -22.515  -4.846 -10.134  0.00  0.00     0.036 C 
BRANCH  12  13
HETATM   13  C           1     -21.242  -4.035 -10.339  0.00  0.00     0.004 C 
BRANCH  13  14
HETATM   14  C           1     -20.334  -4.200  -9.127  0.00  0.00     0.027 C 
BRANCH  14  15
HETATM   15  C           1     -21.171  -4.578  -7.912  0.00  0.00     0.229 C 
BRANCH  15  16
HETATM   16  N           1     -21.573  -3.335  -7.175  0.00  0.00    -0.079 N 
HETATM   17  H           1     -20.917  -3.174  -6.378  0.00  0.00     0.274 HD
HETATM   18  H           1     -22.546  -3.447  -6.809  0.00  0.00     0.274 HD
HETATM   19  H           1     -21.538  -2.517  -7.826  0.00  0.00     0.274 HD
ENDBRANCH  15  16
ENDBRANCH  14  15
ENDBRANCH  13  14
ENDBRANCH  12  13
ENDBRANCH   1  12
BRANCH   1  20
HETATM   20  C           1     -24.586  -3.503  -9.942  0.00  0.00     0.196 C 
HETATM   21  O           1     -25.741  -3.189 -10.303  0.00  0.00    -0.646 OA
HETATM   22  O           1     -24.200  -3.238  -8.784  0.00  0.00    -0.646 OA
ENDBRANCH   1  20
TORSDOF 9
ENDMDL
MODEL 6
REMARK VINA RESULT:      -5.2     12.874     15.053
REMARK  9 active torsions:
REMARK  status: ('A' for Active; 'I' for Inactive)
REMARK    1  A    between atoms: N_2  and  C_14 
REMARK       I    between atoms: N_2  and  C_3 
REMARK    2  A    between atoms: C_3  and  C_11 
REMARK    3  A    between atoms: N_9  and  C_11 
REMARK    4  A    between atoms: C_12  and  C_22 
REMARK    5  A    between atoms: C_12  and  C_13 
REMARK    6  A    between atoms: C_13  and  C_14 
REMARK    7  A    between atoms: C_14  and  C_15 
REMARK    8  A    between atoms: N_20  and  C_21 
REMARK    9  A    between atoms: C_21  and  C_22 
ROOT
HETATM    1  C           1     -35.211  -1.106 -12.061  0.00  0.00     0.185 C 
ENDROOT
BRANCH   1   2
HETATM    2  N           1     -36.035  -0.898 -13.236  0.00  0.00    -0.345 N 
HETATM    3  C           1     -35.597  -0.080 -14.242  0.00  0.00     0.248 C 
HETATM    4  O           1     -34.525   0.468 -14.152  0.00  0.00    -0.271 OA
HETATM    5  H           1     -36.933  -1.358 -13.312  0.00  0.00     0.163 HD
BRANCH   3   6
HETATM    6  C           1     -36.455   0.137 -15.465  0.00  0.00     0.270 C 
HETATM    7  C           1     -36.030  -0.830 -16.562  0.00  0.00     0.050 C 
BRANCH   6   8
HETATM    8  N           1     -36.288   1.546 -15.949  0.00  0.00    -0.067 N 
HETATM    9  H           1     -35.272   1.791 -15.969  0.00  0.00     0.275 HD
HETATM   10  H           1     -36.685   1.632 -16.913  0.00  0.00     0.275 HD
HETATM   11  H           1     -36.792   2.198 -15.306  0.00  0.00     0.275 HD
ENDBRANCH   6   8
ENDBRANCH   3   6
ENDBRANCH   1   2
BRANCH   1  12
HETATM   12  C           1     -36.101  -1.198 -10.828  0.00  0.00     0.036 C 
BRANCH  12  13
HETATM   13  C           1     -37.289  -0.259 -10.988  0.00  0.00     0.004 C 
BRANCH  13  14
HETATM   14  C           1     -37.897   0.028  -9.621  0.00  0.00     0.027 C 
BRANCH  14  15
HETATM   15  C           1     -36.801   0.012  -8.563  0.00  0.00     0.229 C 
BRANCH  15  16
HETATM   16  N           1     -36.316   1.412  -8.324  0.00  0.00    -0.079 N 
HETATM   17  H           1     -37.034   1.941  -7.779  0.00  0.00     0.274 HD
HETATM   18  H           1     -36.156   1.886  -9.242  0.00  0.00     0.274 HD
HETATM   19  H           1     -35.421   1.384  -7.786  0.00  0.00     0.274 HD
ENDBRANCH  15  16
ENDBRANCH  14  15
ENDBRANCH  13  14
ENDBRANCH  12  13
ENDBRANCH   1  12
BRANCH   1  20
HETATM   20  C           1     -34.431  -2.389 -12.216  0.00  0.00     0.196 C 
HETATM   21  O           1     -33.470  -2.632 -11.456  0.00  0.00    -0.646 OA
HETATM   22  O           1     -34.746  -3.208 -13.106  0.00  0.00    -0.646 OA
ENDBRANCH   1  20
TORSDOF 9
ENDMDL
MODEL 7
REMARK VINA RESULT:      -4.9     17.913     19.502
REMARK  9 active torsions:
REMARK  status: ('A' for Active; 'I' for Inactive)
REMARK    1  A    between atoms: N_2  and  C_14 
REMARK       I    between atoms: N_2  and  C_3 
REMARK    2  A    between atoms: C_3  and  C_11 
REMARK    3  A    between atoms: N_9  and  C_11 
REMARK    4  A    between atoms: C_12  and  C_22 
REMARK    5  A    between atoms: C_12  and  C_13 
REMARK    6  A    between atoms: C_13  and  C_14 
REMARK    7  A    between atoms: C_14  and  C_15 
REMARK    8  A    between atoms: N_20  and  C_21 
REMARK    9  A    between atoms: C_21  and  C_22 
ROOT
HETATM    1  C           1     -10.274   5.350 -20.638  0.00  0.00     0.185 C 
ENDROOT
BRANCH   1   2
HETATM    2  N           1     -11.470   5.425 -21.454  0.00  0.00    -0.345 N 
HETATM    3  C           1     -11.965   4.294 -22.047  0.00  0.00     0.248 C 
HETATM    4  O           1     -11.407   3.235 -21.889  0.00  0.00    -0.271 OA
HETATM    5  H           1     -11.938   6.312 -21.586  0.00  0.00     0.163 HD
BRANCH   3   6
HETATM    6  C           1     -13.209   4.372 -22.897  0.00  0.00     0.270 C 
HETATM    7  C           1     -14.063   5.548 -22.443  0.00  0.00     0.050 C 
BRANCH   6   8
HETATM    8  N           1     -13.993   3.102 -22.754  0.00  0.00    -0.067 N 
HETATM    9  H           1     -14.068   2.850 -21.743  0.00  0.00     0.275 HD
HETATM   10  H           1     -14.951   3.238 -23.151  0.00  0.00     0.275 HD
HETATM   11  H           1     -13.508   2.333 -23.270  0.00  0.00     0.275 HD
ENDBRANCH   6   8
ENDBRANCH   3   6
ENDBRANCH   1   2
BRANCH   1  12
HETATM   12  C           1      -9.342   6.499 -20.997  0.00  0.00     0.036 C 
BRANCH  12  13
HETATM   13  C           1     -10.163   7.687 -21.481  0.00  0.00     0.004 C 
BRANCH  13  14
HETATM   14  C           1      -9.763   8.932 -20.702  0.00  0.00     0.027 C 
BRANCH  14  15
HETATM   15  C           1     -10.765   9.173 -19.580  0.00  0.00     0.229 C 
BRANCH  15  16
HETATM   16  N           1     -10.097   8.947 -18.256  0.00  0.00    -0.079 N 
HETATM   17  H           1      -9.064   8.876 -18.394  0.00  0.00     0.274 HD
HETATM   18  H           1     -10.454   8.060 -17.834  0.00  0.00     0.274 HD
HETATM   19  H           1     -10.310   9.746 -17.617  0.00  0.00     0.274 HD
ENDBRANCH  15  16
ENDBRANCH  14  15
ENDBRANCH  13  14
ENDBRANCH  12  13
ENDBRANCH   1  12
BRANCH   1  20
HETATM   20  C           1     -10.654   5.448 -19.180  0.00  0.00     0.196 C 
HETATM   21  O           1      -9.814   5.831 -18.339  0.00  0.00    -0.646 OA
HETATM   22  O           1     -11.810   5.143 -18.815  0.00  0.00    -0.646 OA
ENDBRANCH   1  20
TORSDOF 9
ENDMDL
MODEL 8
REMARK VINA RESULT:      -4.9      3.655      7.737
REMARK  9 active torsions:
REMARK  status: ('A' for Active; 'I' for Inactive)
REMARK    1  A    between atoms: N_2  and  C_14 
REMARK       I    between atoms: N_2  and  C_3 
REMARK    2  A    between atoms: C_3  and  C_11 
REMARK    3  A    between atoms: N_9  and  C_11 
REMARK    4  A    between atoms: C_12  and  C_22 
REMARK    5  A    between atoms: C_12  and  C_13 
REMARK    6  A    between atoms: C_13  and  C_14 
REMARK    7  A    between atoms: C_14  and  C_15 
REMARK    8  A    between atoms: N_20  and  C_21 
REMARK    9  A    between atoms: C_21  and  C_22 
ROOT
HETATM    1  C           1     -20.866  -6.748  -5.021  0.00  0.00     0.185 C 
ENDROOT
BRANCH   1   2
HETATM    2  N           1     -21.321  -6.349  -6.339  0.00  0.00    -0.345 N 
HETATM    3  C           1     -21.015  -5.105  -6.821  0.00  0.00     0.248 C 
HETATM    4  O           1     -20.365  -4.339  -6.149  0.00  0.00    -0.271 OA
HETATM    5  H           1     -21.864  -6.990  -6.902  0.00  0.00     0.163 HD
BRANCH   3   6
HETATM    6  C           1     -21.488  -4.690  -8.192  0.00  0.00     0.270 C 
HETATM    7  C           1     -20.301  -4.213  -9.018  0.00  0.00     0.050 C 
BRANCH   6   8
HETATM    8  N           1     -22.484  -3.576  -8.061  0.00  0.00    -0.067 N 
HETATM    9  H           1     -23.452  -3.959  -8.153  0.00  0.00     0.275 HD
HETATM   10  H           1     -22.377  -3.122  -7.125  0.00  0.00     0.275 HD
HETATM   11  H           1     -22.317  -2.869  -8.813  0.00  0.00     0.275 HD
ENDBRANCH   6   8
ENDBRANCH   3   6
ENDBRANCH   1   2
BRANCH   1  12
HETATM   12  C           1     -22.007  -6.601  -4.025  0.00  0.00     0.036 C 
BRANCH  12  13
HETATM   13  C           1     -21.476  -6.004  -2.728  0.00  0.00     0.004 C 
BRANCH  13  14
HETATM   14  C           1     -22.224  -6.607  -1.547  0.00  0.00     0.027 C 
BRANCH  14  15
HETATM   15  C           1     -21.822  -8.067  -1.382  0.00  0.00     0.229 C 
BRANCH  15  16
HETATM   16  N           1     -20.326  -8.175  -1.364  0.00  0.00    -0.079 N 
HETATM   17  H           1     -19.908  -7.219  -1.315  0.00  0.00     0.274 HD
HETATM   18  H           1     -20.001  -8.654  -2.234  0.00  0.00     0.274 HD
HETATM   19  H           1     -20.026  -8.729  -0.530  0.00  0.00     0.274 HD
ENDBRANCH  15  16
ENDBRANCH  14  15
ENDBRANCH  13  14
ENDBRANCH  12  13
ENDBRANCH   1  12
BRANCH   1  20
HETATM   20  C           1     -20.414  -8.187  -5.061  0.00  0.00     0.196 C 
HETATM   21  O           1     -20.933  -8.984  -5.871  0.00  0.00    -0.646 OA
HETATM   22  O           1     -19.521  -8.583  -4.281  0.00  0.00    -0.646 OA
ENDBRANCH   1  20
TORSDOF 9
ENDMDL
MODEL 9
REMARK VINA RESULT:      -4.7      3.693      5.681
REMARK  9 active torsions:
REMARK  status: ('A' for Active; 'I' for Inactive)
REMARK    1  A    between atoms: N_2  and  C_14 
REMARK       I    between atoms: N_2  and  C_3 
REMARK    2  A    between atoms: C_3  and  C_11 
REMARK    3  A    between atoms: N_9  and  C_11 
REMARK    4  A    between atoms: C_12  and  C_22 
REMARK    5  A    between atoms: C_12  and  C_13 
REMARK    6  A    between atoms: C_13  and  C_14 
REMARK    7  A    between atoms: C_14  and  C_15 
REMARK    8  A    between atoms: N_20  and  C_21 
REMARK    9  A    between atoms: C_21  and  C_22 
ROOT
HETATM    1  C           1     -20.773  -6.749  -5.498  0.00  0.00     0.185 C 
ENDROOT
BRANCH   1   2
HETATM    2  N           1     -20.858  -8.186  -5.673  0.00  0.00    -0.345 N 
HETATM    3  C           1     -20.000  -9.010  -4.996  0.00  0.00     0.248 C 
HETATM    4  O           1     -19.173  -8.541  -4.251  0.00  0.00    -0.271 OA
HETATM    5  H           1     -21.551  -8.579  -6.296  0.00  0.00     0.163 HD
BRANCH   3   6
HETATM    6  C           1     -20.089 -10.505  -5.178  0.00  0.00     0.270 C 
HETATM    7  C           1     -21.543 -10.945  -5.075  0.00  0.00     0.050 C 
BRANCH   6   8
HETATM    8  N           1     -19.284 -11.188  -4.113  0.00  0.00    -0.067 N 
HETATM    9  H           1     -18.738 -11.972  -4.535  0.00  0.00     0.275 HD
HETATM   10  H           1     -18.627 -10.500  -3.679  0.00  0.00     0.275 HD
HETATM   11  H           1     -19.926 -11.566  -3.379  0.00  0.00     0.275 HD
ENDBRANCH   6   8
ENDBRANCH   3   6
ENDBRANCH   1   2
BRANCH   1  12
HETATM   12  C           1     -20.804  -6.069  -6.860  0.00  0.00     0.036 C 
BRANCH  12  13
HETATM   13  C           1     -20.227  -4.665  -6.741  0.00  0.00     0.004 C 
BRANCH  13  14
HETATM   14  C           1     -21.270  -3.647  -7.182  0.00  0.00     0.027 C 
BRANCH  14  15
HETATM   15  C           1     -22.249  -4.306  -8.145  0.00  0.00     0.229 C 
BRANCH  15  16
HETATM   16  N           1     -23.642  -4.184  -7.604  0.00  0.00    -0.079 N 
HETATM   17  H           1     -24.179  -3.492  -8.174  0.00  0.00     0.274 HD
HETATM   18  H           1     -23.603  -3.862  -6.610  0.00  0.00     0.274 HD
HETATM   19  H           1     -24.117  -5.114  -7.649  0.00  0.00     0.274 HD
ENDBRANCH  15  16
ENDBRANCH  14  15
ENDBRANCH  13  14
ENDBRANCH  12  13
ENDBRANCH   1  12
BRANCH   1  20
HETATM   20  C           1     -21.942  -6.274  -4.671  0.00  0.00     0.196 C 
HETATM   21  O           1     -23.060  -6.111  -5.205  0.00  0.00    -0.646 OA
HETATM   22  O           1     -21.792  -6.042  -3.452  0.00  0.00    -0.646 OA
ENDBRANCH   1  20
TORSDOF 9
ENDMDL
