MODEL 1
REMARK VINA RESULT:      -6.8      0.000      0.000
REMARK  13 active torsions:
REMARK  status: ('A' for Active; 'I' for Inactive)
REMARK    1  A    between atoms: C_7  and  C_8 
REMARK    2  A    between atoms: C_7  and  C_14 
REMARK    3  A    between atoms: C_8  and  C_9 
REMARK    4  A    between atoms: C_8  and  N_23 
REMARK       I    between atoms: C_9  and  N_26 
REMARK    5  A    between atoms: C_10  and  C_12 
REMARK    6  A    between atoms: C_12  and  C_20 
REMARK    7  A    between atoms: C_12  and  N_26 
REMARK    8  A    between atoms: C_13  and  C_14 
REMARK    9  A    between atoms: C_13  and  C_25 
REMARK   10  A    between atoms: P_18  and  O_19 
REMARK   11  A    between atoms: P_18  and  O_28 
REMARK   12  A    between atoms: O_19  and  C_20 
REMARK   13  A    between atoms: N_24  and  C_25 
ROOT
HETATM    1  C           1     -21.573  -4.656  -7.712  0.00  0.00     0.249 C 
HETATM    2  H           1     -22.499  -5.761  -9.198  0.00  0.00     0.163 HD
HETATM    3  O           1     -21.344  -3.543  -7.304  0.00  0.00    -0.271 OA
HETATM    4  N           1     -22.306  -4.828  -8.856  0.00  0.00    -0.343 N 
ENDROOT
BRANCH   1   5
HETATM    5  C           1     -21.051  -5.857  -6.963  0.00  0.00     0.274 C 
BRANCH   5   6
HETATM    6  C           1     -21.048  -5.563  -5.469  0.00  0.00     0.042 C 
BRANCH   6   7
HETATM    7  C           1     -22.160  -6.355  -4.793  0.00  0.00     0.004 C 
BRANCH   7   8
HETATM    8  C           1     -21.549  -7.416  -3.887  0.00  0.00     0.027 C 
BRANCH   8   9
HETATM    9  C           1     -21.271  -6.813  -2.515  0.00  0.00     0.229 C 
BRANCH   9  10
HETATM   10  N           1     -22.419  -5.939  -2.111  0.00  0.00    -0.079 N 
HETATM   11  H           1     -22.304  -4.993  -2.542  0.00  0.00     0.274 HD
HETATM   12  H           1     -22.437  -5.846  -1.070  0.00  0.00     0.274 HD
HETATM   13  H           1     -23.315  -6.366  -2.439  0.00  0.00     0.274 HD
ENDBRANCH   9  10
ENDBRANCH   8   9
ENDBRANCH   7   8
ENDBRANCH   6   7
ENDBRANCH   5   6
BRANCH   5  14
HETATM   14  N           1     -19.654  -6.160  -7.417  0.00  0.00    -0.067 N 
HETATM   15  H           1     -19.582  -6.009  -8.448  0.00  0.00     0.275 HD
HETATM   16  H           1     -19.423  -7.155  -7.194  0.00  0.00     0.275 HD
HETATM   17  H           1     -18.984  -5.528  -6.923  0.00  0.00     0.275 HD
ENDBRANCH   5  14
ENDBRANCH   1   5
BRANCH   4  18
HETATM   18  C           1     -22.809  -3.674  -9.576  0.00  0.00     0.210 C 
BRANCH  18  19
HETATM   19  C           1     -24.309  -3.771  -9.697  0.00  0.00     0.198 C 
HETATM   20  O           1     -24.840  -4.844 -10.055  0.00  0.00    -0.646 OA
HETATM   21  O           1     -25.022  -2.776  -9.440  0.00  0.00    -0.646 OA
ENDBRANCH  18  19
BRANCH  18  22
HETATM   22  C           1     -22.188  -3.635 -10.967  0.00  0.00     0.217 C 
BRANCH  22  23
HETATM   23  O           1     -22.817  -2.644 -11.733  0.00  0.00    -0.287 OA
BRANCH  23  24
HETATM   24  P           1     -23.569  -3.153 -13.069  0.00  0.00     0.406 P 
HETATM   25  O           1     -22.751  -2.816 -14.255  0.00  0.00    -0.624 OA
HETATM   26  O           1     -24.887  -2.489 -13.175  0.00  0.00    -0.624 OA
BRANCH  24  27
HETATM   27  O           1     -23.775  -4.752 -12.995  0.00  0.00    -0.300 OA
HETATM   28  H           1     -23.669  -4.970 -12.086  0.00  0.00     0.223 HD
ENDBRANCH  24  27
ENDBRANCH  23  24
ENDBRANCH  22  23
ENDBRANCH  18  22
ENDBRANCH   4  18
TORSDOF 13
ENDMDL
MODEL 2
REMARK VINA RESULT:      -6.7     10.881     12.672
REMARK  13 active torsions:
REMARK  status: ('A' for Active; 'I' for Inactive)
REMARK    1  A    between atoms: C_7  and  C_8 
REMARK    2  A    between atoms: C_7  and  C_14 
REMARK    3  A    between atoms: C_8  and  C_9 
REMARK    4  A    between atoms: C_8  and  N_23 
REMARK       I    between atoms: C_9  and  N_26 
REMARK    5  A    between atoms: C_10  and  C_12 
REMARK    6  A    between atoms: C_12  and  C_20 
REMARK    7  A    between atoms: C_12  and  N_26 
REMARK    8  A    between atoms: C_13  and  C_14 
REMARK    9  A    between atoms: C_13  and  C_25 
REMARK   10  A    between atoms: P_18  and  O_19 
REMARK   11  A    between atoms: P_18  and  O_28 
REMARK   12  A    between atoms: O_19  and  C_20 
REMARK   13  A    between atoms: N_24  and  C_25 
ROOT
HETATM    1  C           1     -28.504  -6.445 -19.012  0.00  0.00     0.249 C 
HETATM    2  H           1     -27.616  -8.286 -19.340  0.00  0.00     0.163 HD
HETATM    3  O           1     -28.346  -5.248 -19.053  0.00  0.00    -0.271 OA
HETATM    4  N           1     -27.483  -7.283 -19.373  0.00  0.00    -0.343 N 
ENDROOT
BRANCH   1   5
HETATM    5  C           1     -29.826  -7.016 -18.561  0.00  0.00     0.274 C 
BRANCH   5   6
HETATM    6  C           1     -30.148  -6.510 -17.161  0.00  0.00     0.042 C 
BRANCH   6   7
HETATM    7  C           1     -31.588  -6.016 -17.119  0.00  0.00     0.004 C 
BRANCH   7   8
HETATM    8  C           1     -31.625  -4.609 -16.536  0.00  0.00     0.027 C 
BRANCH   8   9
HETATM    9  C           1     -31.924  -3.607 -17.644  0.00  0.00     0.229 C 
BRANCH   9  10
HETATM   10  N           1     -33.340  -3.131 -17.521  0.00  0.00    -0.079 N 
HETATM   11  H           1     -33.790  -3.129 -18.465  0.00  0.00     0.274 HD
HETATM   12  H           1     -33.350  -2.162 -17.130  0.00  0.00     0.274 HD
HETATM   13  H           1     -33.868  -3.770 -16.884  0.00  0.00     0.274 HD
ENDBRANCH   9  10
ENDBRANCH   8   9
ENDBRANCH   7   8
ENDBRANCH   6   7
ENDBRANCH   5   6
BRANCH   5  14
HETATM   14  N           1     -29.743  -8.513 -18.546  0.00  0.00    -0.067 N 
HETATM   15  H           1     -28.756  -8.810 -18.718  0.00  0.00     0.275 HD
HETATM   16  H           1     -30.359  -8.904 -19.295  0.00  0.00     0.275 HD
HETATM   17  H           1     -30.059  -8.869 -17.615  0.00  0.00     0.275 HD
ENDBRANCH   5  14
ENDBRANCH   1   5
BRANCH   4  18
HETATM   18  C           1     -26.213  -6.734 -19.807  0.00  0.00     0.210 C 
BRANCH  18  19
HETATM   19  C           1     -25.661  -7.572 -20.933  0.00  0.00     0.198 C 
HETATM   20  O           1     -26.345  -8.502 -21.414  0.00  0.00    -0.646 OA
HETATM   21  O           1     -24.520  -7.337 -21.385  0.00  0.00    -0.646 OA
ENDBRANCH  18  19
BRANCH  18  22
HETATM   22  C           1     -25.234  -6.742 -18.639  0.00  0.00     0.217 C 
BRANCH  22  23
HETATM   23  O           1     -25.858  -6.210 -17.502  0.00  0.00    -0.287 OA
BRANCH  23  24
HETATM   24  P           1     -25.353  -6.790 -16.081  0.00  0.00     0.406 P 
HETATM   25  O           1     -26.480  -7.460 -15.393  0.00  0.00    -0.624 OA
HETATM   26  O           1     -24.857  -5.676 -15.243  0.00  0.00    -0.624 OA
BRANCH  24  27
HETATM   27  O           1     -24.164  -7.854 -16.325  0.00  0.00    -0.300 OA
HETATM   28  H           1     -23.884  -8.109 -15.464  0.00  0.00     0.223 HD
ENDBRANCH  24  27
ENDBRANCH  23  24
ENDBRANCH  22  23
ENDBRANCH  18  22
ENDBRANCH   4  18
TORSDOF 13
ENDMDL
MODEL 3
REMARK VINA RESULT:      -6.0      2.538      4.412
REMARK  13 active torsions:
REMARK  status: ('A' for Active; 'I' for Inactive)
REMARK    1  A    between atoms: C_7  and  C_8 
REMARK    2  A    between atoms: C_7  and  C_14 
REMARK    3  A    between atoms: C_8  and  C_9 
REMARK    4  A    between atoms: C_8  and  N_23 
REMARK       I    between atoms: C_9  and  N_26 
REMARK    5  A    between atoms: C_10  and  C_12 
REMARK    6  A    between atoms: C_12  and  C_20 
REMARK    7  A    between atoms: C_12  and  N_26 
REMARK    8  A    between atoms: C_13  and  C_14 
REMARK    9  A    between atoms: C_13  and  C_25 
REMARK   10  A    between atoms: P_18  and  O_19 
REMARK   11  A    between atoms: P_18  and  O_28 
REMARK   12  A    between atoms: O_19  and  C_20 
REMARK   13  A    between atoms: N_24  and  C_25 
ROOT
HETATM    1  C           1     -21.694  -6.578  -4.502  0.00  0.00     0.249 C 
HETATM    2  H           1     -20.995  -4.658  -4.833  0.00  0.00     0.163 HD
HETATM    3  O           1     -22.165  -7.563  -5.019  0.00  0.00    -0.271 OA
HETATM    4  N           1     -21.391  -5.483  -5.266  0.00  0.00    -0.343 N 
ENDROOT
BRANCH   1   5
HETATM    5  C           1     -21.442  -6.554  -3.015  0.00  0.00     0.274 C 
BRANCH   5   6
HETATM    6  C           1     -21.433  -7.979  -2.477  0.00  0.00     0.042 C 
BRANCH   6   7
HETATM    7  C           1     -20.451  -8.077  -1.316  0.00  0.00     0.004 C 
BRANCH   7   8
HETATM    8  C           1     -21.175  -8.603  -0.083  0.00  0.00     0.027 C 
BRANCH   8   9
HETATM    9  C           1     -22.640  -8.848  -0.420  0.00  0.00     0.229 C 
BRANCH   9  10
HETATM   10  N           1     -23.508  -8.098   0.545  0.00  0.00    -0.079 N 
HETATM   11  H           1     -23.482  -7.078   0.316  0.00  0.00     0.274 HD
HETATM   12  H           1     -23.156  -8.244   1.518  0.00  0.00     0.274 HD
HETATM   13  H           1     -24.491  -8.446   0.474  0.00  0.00     0.274 HD
ENDBRANCH   9  10
ENDBRANCH   8   9
ENDBRANCH   7   8
ENDBRANCH   6   7
ENDBRANCH   5   6
BRANCH   5  14
HETATM   14  N           1     -22.526  -5.770  -2.337  0.00  0.00    -0.067 N 
HETATM   15  H           1     -22.589  -6.058  -1.334  0.00  0.00     0.275 HD
HETATM   16  H           1     -23.439  -5.957  -2.810  0.00  0.00     0.275 HD
HETATM   17  H           1     -22.306  -4.750  -2.395  0.00  0.00     0.275 HD
ENDBRANCH   5  14
ENDBRANCH   1   5
BRANCH   4  18
HETATM   18  C           1     -21.633  -5.506  -6.695  0.00  0.00     0.210 C 
BRANCH  18  19
HETATM   19  C           1     -20.324  -5.682  -7.424  0.00  0.00     0.198 C 
HETATM   20  O           1     -19.573  -6.640  -7.139  0.00  0.00    -0.646 OA
HETATM   21  O           1     -19.990  -4.869  -8.314  0.00  0.00    -0.646 OA
ENDBRANCH  18  19
BRANCH  18  22
HETATM   22  C           1     -22.279  -4.193  -7.120  0.00  0.00     0.217 C 
BRANCH  22  23
HETATM   23  O           1     -23.500  -4.457  -7.757  0.00  0.00    -0.287 OA
BRANCH  23  24
HETATM   24  P           1     -23.609  -3.992  -9.300  0.00  0.00     0.406 P 
HETATM   25  O           1     -24.644  -2.940  -9.427  0.00  0.00    -0.624 OA
HETATM   26  O           1     -23.982  -5.152 -10.139  0.00  0.00    -0.624 OA
BRANCH  24  27
HETATM   27  O           1     -22.186  -3.407  -9.788  0.00  0.00    -0.300 OA
HETATM   28  H           1     -21.968  -3.904 -10.557  0.00  0.00     0.223 HD
ENDBRANCH  24  27
ENDBRANCH  23  24
ENDBRANCH  22  23
ENDBRANCH  18  22
ENDBRANCH   4  18
TORSDOF 13
ENDMDL
MODEL 4
REMARK VINA RESULT:      -5.8      3.828      7.427
REMARK  13 active torsions:
REMARK  status: ('A' for Active; 'I' for Inactive)
REMARK    1  A    between atoms: C_7  and  C_8 
REMARK    2  A    between atoms: C_7  and  C_14 
REMARK    3  A    between atoms: C_8  and  C_9 
REMARK    4  A    between atoms: C_8  and  N_23 
REMARK       I    between atoms: C_9  and  N_26 
REMARK    5  A    between atoms: C_10  and  C_12 
REMARK    6  A    between atoms: C_12  and  C_20 
REMARK    7  A    between atoms: C_12  and  N_26 
REMARK    8  A    between atoms: C_13  and  C_14 
REMARK    9  A    between atoms: C_13  and  C_25 
REMARK   10  A    between atoms: P_18  and  O_19 
REMARK   11  A    between atoms: P_18  and  O_28 
REMARK   12  A    between atoms: O_19  and  C_20 
REMARK   13  A    between atoms: N_24  and  C_25 
ROOT
HETATM    1  C           1     -22.531  -4.111  -8.212  0.00  0.00     0.249 C 
HETATM    2  H           1     -22.699  -5.728  -6.930  0.00  0.00     0.163 HD
HETATM    3  O           1     -21.857  -3.156  -8.517  0.00  0.00    -0.271 OA
HETATM    4  N           1     -22.136  -4.927  -7.185  0.00  0.00    -0.343 N 
ENDROOT
BRANCH   1   5
HETATM    5  C           1     -23.807  -4.405  -8.961  0.00  0.00     0.274 C 
BRANCH   5   6
HETATM    6  C           1     -23.481  -4.737 -10.411  0.00  0.00     0.042 C 
BRANCH   6   7
HETATM    7  C           1     -23.998  -3.625 -11.315  0.00  0.00     0.004 C 
BRANCH   7   8
HETATM    8  C           1     -22.820  -2.898 -11.950  0.00  0.00     0.027 C 
BRANCH   8   9
HETATM    9  C           1     -21.609  -3.823 -11.982  0.00  0.00     0.229 C 
BRANCH   9  10
HETATM   10  N           1     -20.426  -3.120 -11.386  0.00  0.00    -0.079 N 
HETATM   11  H           1     -19.550  -3.621 -11.660  0.00  0.00     0.274 HD
HETATM   12  H           1     -20.512  -3.114 -10.345  0.00  0.00     0.274 HD
HETATM   13  H           1     -20.391  -2.136 -11.739  0.00  0.00     0.274 HD
ENDBRANCH   9  10
ENDBRANCH   8   9
ENDBRANCH   7   8
ENDBRANCH   6   7
ENDBRANCH   5   6
BRANCH   5  14
HETATM   14  N           1     -24.703  -3.203  -8.911  0.00  0.00    -0.067 N 
HETATM   15  H           1     -24.128  -2.336  -9.005  0.00  0.00     0.275 HD
HETATM   16  H           1     -25.213  -3.185  -7.998  0.00  0.00     0.275 HD
HETATM   17  H           1     -25.393  -3.251  -9.694  0.00  0.00     0.275 HD
ENDBRANCH   5  14
ENDBRANCH   1   5
BRANCH   4  18
HETATM   18  C           1     -20.909  -4.645  -6.466  0.00  0.00     0.210 C 
BRANCH  18  19
HETATM   19  C           1     -19.731  -5.146  -7.264  0.00  0.00     0.198 C 
HETATM   20  O           1     -19.759  -6.289  -7.770  0.00  0.00    -0.646 OA
HETATM   21  O           1     -18.727  -4.418  -7.421  0.00  0.00    -0.646 OA
ENDBRANCH  18  19
BRANCH  18  22
HETATM   22  C           1     -20.942  -5.347  -5.114  0.00  0.00     0.217 C 
BRANCH  22  23
HETATM   23  O           1     -21.684  -6.531  -5.220  0.00  0.00    -0.287 OA
BRANCH  23  24
HETATM   24  P           1     -20.980  -7.863  -4.636  0.00  0.00     0.406 P 
HETATM   25  O           1     -21.947  -8.984  -4.661  0.00  0.00    -0.624 OA
HETATM   26  O           1     -20.545  -7.619  -3.243  0.00  0.00    -0.624 OA
BRANCH  24  27
HETATM   27  O           1     -19.700  -8.238  -5.544  0.00  0.00    -0.300 OA
HETATM   28  H           1     -19.091  -8.645  -4.952  0.00  0.00     0.223 HD
ENDBRANCH  24  27
ENDBRANCH  23  24
ENDBRANCH  22  23
ENDBRANCH  18  22
ENDBRANCH   4  18
TORSDOF 13
ENDMDL
MODEL 5
REMARK VINA RESULT:      -5.7      2.089      3.707
REMARK  13 active torsions:
REMARK  status: ('A' for Active; 'I' for Inactive)
REMARK    1  A    between atoms: C_7  and  C_8 
REMARK    2  A    between atoms: C_7  and  C_14 
REMARK    3  A    between atoms: C_8  and  C_9 
REMARK    4  A    between atoms: C_8  and  N_23 
REMARK       I    between atoms: C_9  and  N_26 
REMARK    5  A    between atoms: C_10  and  C_12 
REMARK    6  A    between atoms: C_12  and  C_20 
REMARK    7  A    between atoms: C_12  and  N_26 
REMARK    8  A    between atoms: C_13  and  C_14 
REMARK    9  A    between atoms: C_13  and  C_25 
REMARK   10  A    between atoms: P_18  and  O_19 
REMARK   11  A    between atoms: P_18  and  O_28 
REMARK   12  A    between atoms: O_19  and  C_20 
REMARK   13  A    between atoms: N_24  and  C_25 
ROOT
HETATM    1  C           1     -21.241  -6.486  -5.679  0.00  0.00     0.249 C 
HETATM    2  H           1     -21.437  -4.426  -5.621  0.00  0.00     0.163 HD
HETATM    3  O           1     -21.206  -7.457  -6.396  0.00  0.00    -0.271 OA
HETATM    4  N           1     -21.408  -5.240  -6.222  0.00  0.00    -0.343 N 
ENDROOT
BRANCH   1   5
HETATM    5  C           1     -21.102  -6.645  -4.185  0.00  0.00     0.274 C 
BRANCH   5   6
HETATM    6  C           1     -21.032  -8.126  -3.836  0.00  0.00     0.042 C 
BRANCH   6   7
HETATM    7  C           1     -20.457  -8.290  -2.434  0.00  0.00     0.004 C 
BRANCH   7   8
HETATM    8  C           1     -21.525  -8.865  -1.512  0.00  0.00     0.027 C 
BRANCH   8   9
HETATM    9  C           1     -21.838  -7.862  -0.410  0.00  0.00     0.229 C 
BRANCH   9  10
HETATM   10  N           1     -23.041  -8.322   0.359  0.00  0.00    -0.079 N 
HETATM   11  H           1     -23.639  -8.920  -0.256  0.00  0.00     0.274 HD
HETATM   12  H           1     -23.590  -7.492   0.677  0.00  0.00     0.274 HD
HETATM   13  H           1     -22.732  -8.876   1.190  0.00  0.00     0.274 HD
ENDBRANCH   9  10
ENDBRANCH   8   9
ENDBRANCH   7   8
ENDBRANCH   6   7
ENDBRANCH   5   6
BRANCH   5  14
HETATM   14  N           1     -22.286  -6.026  -3.504  0.00  0.00    -0.067 N 
HETATM   15  H           1     -22.422  -5.052  -3.859  0.00  0.00     0.275 HD
HETATM   16  H           1     -22.121  -6.000  -2.472  0.00  0.00     0.275 HD
HETATM   17  H           1     -23.139  -6.593  -3.706  0.00  0.00     0.275 HD
ENDBRANCH   5  14
ENDBRANCH   1   5
BRANCH   4  18
HETATM   18  C           1     -21.541  -5.087  -7.658  0.00  0.00     0.210 C 
BRANCH  18  19
HETATM   19  C           1     -20.193  -4.773  -8.257  0.00  0.00     0.198 C 
HETATM   20  O           1     -20.041  -4.789  -9.498  0.00  0.00    -0.646 OA
HETATM   21  O           1     -19.227  -4.497  -7.512  0.00  0.00    -0.646 OA
ENDBRANCH  18  19
BRANCH  18  22
HETATM   22  C           1     -22.508  -3.948  -7.957  0.00  0.00     0.217 C 
BRANCH  22  23
HETATM   23  O           1     -23.618  -4.448  -8.652  0.00  0.00    -0.287 OA
BRANCH  23  24
HETATM   24  P           1     -23.715  -4.048 -10.214  0.00  0.00     0.406 P 
HETATM   25  O           1     -24.925  -3.225 -10.440  0.00  0.00    -0.624 OA
HETATM   26  O           1     -23.796  -5.277 -11.033  0.00  0.00    -0.624 OA
BRANCH  24  27
HETATM   27  O           1     -22.406  -3.203 -10.636  0.00  0.00    -0.300 OA
HETATM   28  H           1     -21.976  -3.728 -11.288  0.00  0.00     0.223 HD
ENDBRANCH  24  27
ENDBRANCH  23  24
ENDBRANCH  22  23
ENDBRANCH  18  22
ENDBRANCH   4  18
TORSDOF 13
ENDMDL
MODEL 6
REMARK VINA RESULT:      -5.7      4.574      7.712
REMARK  13 active torsions:
REMARK  status: ('A' for Active; 'I' for Inactive)
REMARK    1  A    between atoms: C_7  and  C_8 
REMARK    2  A    between atoms: C_7  and  C_14 
REMARK    3  A    between atoms: C_8  and  C_9 
REMARK    4  A    between atoms: C_8  and  N_23 
REMARK       I    between atoms: C_9  and  N_26 
REMARK    5  A    between atoms: C_10  and  C_12 
REMARK    6  A    between atoms: C_12  and  C_20 
REMARK    7  A    between atoms: C_12  and  N_26 
REMARK    8  A    between atoms: C_13  and  C_14 
REMARK    9  A    between atoms: C_13  and  C_25 
REMARK   10  A    between atoms: P_18  and  O_19 
REMARK   11  A    between atoms: P_18  and  O_28 
REMARK   12  A    between atoms: O_19  and  C_20 
REMARK   13  A    between atoms: N_24  and  C_25 
ROOT
HETATM    1  C           1     -21.650  -5.275  -6.046  0.00  0.00     0.249 C 
HETATM    2  H           1     -20.042  -6.217  -5.144  0.00  0.00     0.163 HD
HETATM    3  O           1     -22.854  -5.229  -6.123  0.00  0.00    -0.271 OA
HETATM    4  N           1     -21.051  -6.179  -5.209  0.00  0.00    -0.343 N 
ENDROOT
BRANCH   1   5
HETATM    5  C           1     -20.805  -4.337  -6.873  0.00  0.00     0.274 C 
BRANCH   5   6
HETATM    6  C           1     -21.662  -3.707  -7.962  0.00  0.00     0.042 C 
BRANCH   6   7
HETATM    7  C           1     -21.403  -4.416  -9.286  0.00  0.00     0.004 C 
BRANCH   7   8
HETATM    8  C           1     -22.670  -4.395 -10.130  0.00  0.00     0.027 C 
BRANCH   8   9
HETATM    9  C           1     -23.772  -3.661  -9.375  0.00  0.00     0.229 C 
BRANCH   9  10
HETATM   10  N           1     -25.079  -4.363  -9.590  0.00  0.00    -0.079 N 
HETATM   11  H           1     -25.140  -4.689 -10.581  0.00  0.00     0.274 HD
HETATM   12  H           1     -25.865  -3.704  -9.391  0.00  0.00     0.274 HD
HETATM   13  H           1     -25.142  -5.186  -8.947  0.00  0.00     0.274 HD
ENDBRANCH   9  10
ENDBRANCH   8   9
ENDBRANCH   7   8
ENDBRANCH   6   7
ENDBRANCH   5   6
BRANCH   5  14
HETATM   14  N           1     -19.679  -5.103  -7.501  0.00  0.00    -0.067 N 
HETATM   15  H           1     -19.334  -4.587  -8.342  0.00  0.00     0.275 HD
HETATM   16  H           1     -20.019  -6.049  -7.789  0.00  0.00     0.275 HD
HETATM   17  H           1     -18.902  -5.208  -6.811  0.00  0.00     0.275 HD
ENDBRANCH   5  14
ENDBRANCH   1   5
BRANCH   4  18
HETATM   18  C           1     -21.864  -7.080  -4.415  0.00  0.00     0.210 C 
BRANCH  18  19
HETATM   19  C           1     -21.648  -6.791  -2.950  0.00  0.00     0.198 C 
HETATM   20  O           1     -22.353  -5.938  -2.369  0.00  0.00    -0.646 OA
HETATM   21  O           1     -20.762  -7.406  -2.316  0.00  0.00    -0.646 OA
ENDBRANCH  18  19
BRANCH  18  22
HETATM   22  C           1     -21.463  -8.519  -4.714  0.00  0.00     0.217 C 
BRANCH  22  23
HETATM   23  O           1     -20.367  -8.527  -5.587  0.00  0.00    -0.287 OA
BRANCH  23  24
HETATM   24  P           1     -19.131  -9.477  -5.164  0.00  0.00     0.406 P 
HETATM   25  O           1     -18.045  -9.350  -6.162  0.00  0.00    -0.624 OA
HETATM   26  O           1     -19.587 -10.884  -5.110  0.00  0.00    -0.624 OA
BRANCH  24  27
HETATM   27  O           1     -18.582  -9.032  -3.713  0.00  0.00    -0.300 OA
HETATM   28  H           1     -19.343  -8.737  -3.244  0.00  0.00     0.223 HD
ENDBRANCH  24  27
ENDBRANCH  23  24
ENDBRANCH  22  23
ENDBRANCH  18  22
ENDBRANCH   4  18
TORSDOF 13
ENDMDL
MODEL 7
REMARK VINA RESULT:      -5.7      5.237      8.492
REMARK  13 active torsions:
REMARK  status: ('A' for Active; 'I' for Inactive)
REMARK    1  A    between atoms: C_7  and  C_8 
REMARK    2  A    between atoms: C_7  and  C_14 
REMARK    3  A    between atoms: C_8  and  C_9 
REMARK    4  A    between atoms: C_8  and  N_23 
REMARK       I    between atoms: C_9  and  N_26 
REMARK    5  A    between atoms: C_10  and  C_12 
REMARK    6  A    between atoms: C_12  and  C_20 
REMARK    7  A    between atoms: C_12  and  N_26 
REMARK    8  A    between atoms: C_13  and  C_14 
REMARK    9  A    between atoms: C_13  and  C_25 
REMARK   10  A    between atoms: P_18  and  O_19 
REMARK   11  A    between atoms: P_18  and  O_28 
REMARK   12  A    between atoms: O_19  and  C_20 
REMARK   13  A    between atoms: N_24  and  C_25 
ROOT
HETATM    1  C           1     -20.951  -5.463  -6.588  0.00  0.00     0.249 C 
HETATM    2  H           1     -22.653  -5.840  -5.472  0.00  0.00     0.163 HD
HETATM    3  O           1     -19.759  -5.640  -6.665  0.00  0.00    -0.271 OA
HETATM    4  N           1     -21.654  -5.988  -5.536  0.00  0.00    -0.343 N 
ENDROOT
BRANCH   1   5
HETATM    5  C           1     -21.666  -4.663  -7.648  0.00  0.00     0.274 C 
BRANCH   5   6
HETATM    6  C           1     -20.903  -4.765  -8.963  0.00  0.00     0.042 C 
BRANCH   6   7
HETATM    7  C           1     -21.630  -3.962 -10.035  0.00  0.00     0.004 C 
BRANCH   7   8
HETATM    8  C           1     -22.991  -4.591 -10.304  0.00  0.00     0.027 C 
BRANCH   8   9
HETATM    9  C           1     -24.033  -3.493 -10.478  0.00  0.00     0.229 C 
BRANCH   9  10
HETATM   10  N           1     -24.686  -3.208  -9.159  0.00  0.00    -0.079 N 
HETATM   11  H           1     -24.146  -3.676  -8.396  0.00  0.00     0.274 HD
HETATM   12  H           1     -25.664  -3.575  -9.168  0.00  0.00     0.274 HD
HETATM   13  H           1     -24.701  -2.176  -8.993  0.00  0.00     0.274 HD
ENDBRANCH   9  10
ENDBRANCH   8   9
ENDBRANCH   7   8
ENDBRANCH   6   7
ENDBRANCH   5   6
BRANCH   5  14
HETATM   14  N           1     -21.741  -3.226  -7.224  0.00  0.00    -0.067 N 
HETATM   15  H           1     -22.614  -3.071  -6.672  0.00  0.00     0.275 HD
HETATM   16  H           1     -21.751  -2.613  -8.071  0.00  0.00     0.275 HD
HETATM   17  H           1     -20.909  -2.993  -6.636  0.00  0.00     0.275 HD
ENDBRANCH   5  14
ENDBRANCH   1   5
BRANCH   4  18
HETATM   18  C           1     -20.968  -6.758  -4.517  0.00  0.00     0.210 C 
BRANCH  18  19
HETATM   19  C           1     -21.004  -8.221  -4.883  0.00  0.00     0.198 C 
HETATM   20  O           1     -20.068  -8.725  -5.540  0.00  0.00    -0.646 OA
HETATM   21  O           1     -21.971  -8.930  -4.527  0.00  0.00    -0.646 OA
ENDBRANCH  18  19
BRANCH  18  22
HETATM   22  C           1     -21.660  -6.552  -3.175  0.00  0.00     0.217 C 
BRANCH  22  23
HETATM   23  O           1     -20.901  -7.153  -2.161  0.00  0.00    -0.287 OA
BRANCH  23  24
HETATM   24  P           1     -21.738  -7.917  -1.010  0.00  0.00     0.406 P 
HETATM   25  O           1     -22.873  -7.071  -0.579  0.00  0.00    -0.624 OA
HETATM   26  O           1     -20.854  -8.181   0.147  0.00  0.00    -0.624 OA
BRANCH  24  27
HETATM   27  O           1     -22.299  -9.315  -1.591  0.00  0.00    -0.300 OA
HETATM   28  H           1     -21.643  -9.953  -1.369  0.00  0.00     0.223 HD
ENDBRANCH  24  27
ENDBRANCH  23  24
ENDBRANCH  22  23
ENDBRANCH  18  22
ENDBRANCH   4  18
TORSDOF 13
ENDMDL
MODEL 8
REMARK VINA RESULT:      -5.4      5.507      8.830
REMARK  13 active torsions:
REMARK  status: ('A' for Active; 'I' for Inactive)
REMARK    1  A    between atoms: C_7  and  C_8 
REMARK    2  A    between atoms: C_7  and  C_14 
REMARK    3  A    between atoms: C_8  and  C_9 
REMARK    4  A    between atoms: C_8  and  N_23 
REMARK       I    between atoms: C_9  and  N_26 
REMARK    5  A    between atoms: C_10  and  C_12 
REMARK    6  A    between atoms: C_12  and  C_20 
REMARK    7  A    between atoms: C_12  and  N_26 
REMARK    8  A    between atoms: C_13  and  C_14 
REMARK    9  A    between atoms: C_13  and  C_25 
REMARK   10  A    between atoms: P_18  and  O_19 
REMARK   11  A    between atoms: P_18  and  O_28 
REMARK   12  A    between atoms: O_19  and  C_20 
REMARK   13  A    between atoms: N_24  and  C_25 
ROOT
HETATM    1  C           1     -21.011  -5.727  -6.195  0.00  0.00     0.249 C 
HETATM    2  H           1     -21.256  -7.678  -6.840  0.00  0.00     0.163 HD
HETATM    3  O           1     -20.619  -5.023  -5.295  0.00  0.00    -0.271 OA
HETATM    4  N           1     -20.928  -7.089  -6.086  0.00  0.00    -0.343 N 
ENDROOT
BRANCH   1   5
HETATM    5  C           1     -21.594  -5.104  -7.440  0.00  0.00     0.274 C 
BRANCH   5   6
HETATM    6  C           1     -20.608  -4.097  -8.015  0.00  0.00     0.042 C 
BRANCH   6   7
HETATM    7  C           1     -20.272  -4.478  -9.451  0.00  0.00     0.004 C 
BRANCH   7   8
HETATM    8  C           1     -21.495  -4.264 -10.333  0.00  0.00     0.027 C 
BRANCH   8   9
HETATM    9  C           1     -21.173  -3.236 -11.409  0.00  0.00     0.229 C 
BRANCH   9  10
HETATM   10  N           1     -21.754  -3.682 -12.718  0.00  0.00    -0.079 N 
HETATM   11  H           1     -22.447  -2.974 -13.050  0.00  0.00     0.274 HD
HETATM   12  H           1     -22.232  -4.603 -12.591  0.00  0.00     0.274 HD
HETATM   13  H           1     -20.989  -3.780 -13.424  0.00  0.00     0.274 HD
ENDBRANCH   9  10
ENDBRANCH   8   9
ENDBRANCH   7   8
ENDBRANCH   6   7
ENDBRANCH   5   6
BRANCH   5  14
HETATM   14  N           1     -22.877  -4.408  -7.096  0.00  0.00    -0.067 N 
HETATM   15  H           1     -23.165  -3.794  -7.891  0.00  0.00     0.275 HD
HETATM   16  H           1     -22.738  -3.824  -6.239  0.00  0.00     0.275 HD
HETATM   17  H           1     -23.621  -5.119  -6.915  0.00  0.00     0.275 HD
ENDBRANCH   5  14
ENDBRANCH   1   5
BRANCH   4  18
HETATM   18  C           1     -20.367  -7.687  -4.890  0.00  0.00     0.210 C 
BRANCH  18  19
HETATM   19  C           1     -19.566  -8.909  -5.267  0.00  0.00     0.198 C 
HETATM   20  O           1     -19.810 -10.009  -4.726  0.00  0.00    -0.646 OA
HETATM   21  O           1     -18.657  -8.820  -6.122  0.00  0.00    -0.646 OA
ENDBRANCH  18  19
BRANCH  18  22
HETATM   22  C           1     -21.495  -8.090  -3.949  0.00  0.00     0.217 C 
BRANCH  22  23
HETATM   23  O           1     -21.220  -7.616  -2.659  0.00  0.00    -0.287 OA
BRANCH  23  24
HETATM   24  P           1     -21.107  -8.737  -1.501  0.00  0.00     0.406 P 
HETATM   25  O           1     -22.308  -9.601  -1.531  0.00  0.00    -0.624 OA
HETATM   26  O           1     -21.011  -8.074  -0.182  0.00  0.00    -0.624 OA
BRANCH  24  27
HETATM   27  O           1     -19.791  -9.637  -1.751  0.00  0.00    -0.300 OA
HETATM   28  H           1     -19.108  -9.021  -1.953  0.00  0.00     0.223 HD
ENDBRANCH  24  27
ENDBRANCH  23  24
ENDBRANCH  22  23
ENDBRANCH  18  22
ENDBRANCH   4  18
TORSDOF 13
ENDMDL
MODEL 9
REMARK VINA RESULT:      -5.4     18.679     19.997
REMARK  13 active torsions:
REMARK  status: ('A' for Active; 'I' for Inactive)
REMARK    1  A    between atoms: C_7  and  C_8 
REMARK    2  A    between atoms: C_7  and  C_14 
REMARK    3  A    between atoms: C_8  and  C_9 
REMARK    4  A    between atoms: C_8  and  N_23 
REMARK       I    between atoms: C_9  and  N_26 
REMARK    5  A    between atoms: C_10  and  C_12 
REMARK    6  A    between atoms: C_12  and  C_20 
REMARK    7  A    between atoms: C_12  and  N_26 
REMARK    8  A    between atoms: C_13  and  C_14 
REMARK    9  A    between atoms: C_13  and  C_25 
REMARK   10  A    between atoms: P_18  and  O_19 
REMARK   11  A    between atoms: P_18  and  O_28 
REMARK   12  A    between atoms: O_19  and  C_20 
REMARK   13  A    between atoms: N_24  and  C_25 
ROOT
HETATM    1  C           1     -12.441   8.614 -19.670  0.00  0.00     0.249 C 
HETATM    2  H           1     -10.652   8.463 -20.700  0.00  0.00     0.163 HD
HETATM    3  O           1     -13.299   8.001 -19.081  0.00  0.00    -0.271 OA
HETATM    4  N           1     -11.371   7.950 -20.207  0.00  0.00    -0.343 N 
ENDROOT
BRANCH   1   5
HETATM    5  C           1     -12.550  10.112 -19.816  0.00  0.00     0.274 C 
BRANCH   5   6
HETATM    6  C           1     -14.015  10.524 -19.757  0.00  0.00     0.042 C 
BRANCH   6   7
HETATM    7  C           1     -14.243  11.413 -18.541  0.00  0.00     0.004 C 
BRANCH   7   8
HETATM    8  C           1     -14.720  10.562 -17.371  0.00  0.00     0.027 C 
BRANCH   8   9
HETATM    9  C           1     -15.920  11.229 -16.712  0.00  0.00     0.229 C 
BRANCH   9  10
HETATM   10  N           1     -15.555  11.655 -15.322  0.00  0.00    -0.079 N 
HETATM   11  H           1     -14.555  11.958 -15.302  0.00  0.00     0.274 HD
HETATM   12  H           1     -15.688  10.852 -14.665  0.00  0.00     0.274 HD
HETATM   13  H           1     -16.167  12.450 -15.029  0.00  0.00     0.274 HD
ENDBRANCH   9  10
ENDBRANCH   8   9
ENDBRANCH   7   8
ENDBRANCH   6   7
ENDBRANCH   5   6
BRANCH   5  14
HETATM   14  N           1     -11.965  10.529 -21.132  0.00  0.00    -0.067 N 
HETATM   15  H           1     -10.923  10.484 -21.081  0.00  0.00     0.275 HD
HETATM   16  H           1     -12.261  11.508 -21.350  0.00  0.00     0.275 HD
HETATM   17  H           1     -12.307   9.888 -21.883  0.00  0.00     0.275 HD
ENDBRANCH   5  14
ENDBRANCH   1   5
BRANCH   4  18
HETATM   18  C           1     -11.267   6.510 -20.067  0.00  0.00     0.210 C 
BRANCH  18  19
HETATM   19  C           1      -9.899   6.155 -19.537  0.00  0.00     0.198 C 
HETATM   20  O           1      -8.896   6.261 -20.275  0.00  0.00    -0.646 OA
HETATM   21  O           1      -9.770   5.753 -18.360  0.00  0.00    -0.646 OA
ENDBRANCH  18  19
BRANCH  18  22
HETATM   22  C           1     -11.472   5.853 -21.426  0.00  0.00     0.217 C 
BRANCH  22  23
HETATM   23  O           1     -12.406   4.815 -21.306  0.00  0.00    -0.287 OA
BRANCH  23  24
HETATM   24  P           1     -13.960   5.243 -21.415  0.00  0.00     0.406 P 
HETATM   25  O           1     -14.712   4.197 -22.144  0.00  0.00    -0.624 OA
HETATM   26  O           1     -14.067   6.525 -22.145  0.00  0.00    -0.624 OA
BRANCH  24  27
HETATM   27  O           1     -14.577   5.413 -19.933  0.00  0.00    -0.300 OA
HETATM   28  H           1     -15.496   5.564 -20.066  0.00  0.00     0.223 HD
ENDBRANCH  24  27
ENDBRANCH  23  24
ENDBRANCH  22  23
ENDBRANCH  18  22
ENDBRANCH   4  18
TORSDOF 13
ENDMDL
