MODEL 1
REMARK VINA RESULT:      -5.7      0.000      0.000
REMARK  8 active torsions:
REMARK  status: ('A' for Active; 'I' for Inactive)
REMARK    1  A    between atoms: C_6  and  C_11 
REMARK    2  A    between atoms: C_6  and  C_19 
REMARK    3  A    between atoms: C_6  and  N_20 
REMARK    4  A    between atoms: S_7  and  C_15 
REMARK    5  A    between atoms: N_8  and  C_9 
REMARK    6  A    between atoms: C_9  and  C_10 
REMARK    7  A    between atoms: C_9  and  C_15 
REMARK       I    between atoms: C_10  and  N_20 
REMARK    8  A    between atoms: C_11  and  C_13 
REMARK       I    between atoms: N_12  and  C_13 
ROOT
HETATM    1  H           1     -33.896  -0.774 -13.105  0.00  0.00     0.163 HD
HETATM    2  O           1     -37.026  -0.989 -13.082  0.00  0.00    -0.271 OA
HETATM    3  C           1     -35.935  -0.581 -13.403  0.00  0.00     0.249 C 
HETATM    4  N           1     -34.809  -1.115 -12.836  0.00  0.00    -0.344 N 
ENDROOT
BRANCH   4   5
HETATM    5  C           1     -34.927  -2.171 -11.849  0.00  0.00     0.194 C 
BRANCH   5   6
HETATM    6  C           1     -33.848  -3.218 -12.097  0.00  0.00     0.138 C 
BRANCH   6   7
HETATM    7  C           1     -34.285  -4.136 -13.212  0.00  0.00     0.217 C 
HETATM    8  N           1     -34.724  -5.401 -12.925  0.00  0.00    -0.370 N 
HETATM    9  H           1     -34.755  -5.720 -11.965  0.00  0.00     0.159 HD
HETATM   10  H           1     -35.017  -6.017 -13.673  0.00  0.00     0.159 HD
HETATM   11  O           1     -34.247  -3.755 -14.358  0.00  0.00    -0.274 OA
ENDBRANCH   6   7
ENDBRANCH   5   6
BRANCH   5  12
HETATM   12  C           1     -34.757  -1.590 -10.467  0.00  0.00     0.197 C 
HETATM   13  O           1     -35.708  -0.993  -9.919  0.00  0.00    -0.646 OA
HETATM   14  O           1     -33.664  -1.706  -9.871  0.00  0.00    -0.646 OA
ENDBRANCH   5  12
ENDBRANCH   4   5
BRANCH   3  15
HETATM   15  C           1     -35.813   0.518 -14.429  0.00  0.00     0.283 C 
BRANCH  15  16
HETATM   16  N           1     -34.385   0.630 -14.874  0.00  0.00    -0.066 N 
HETATM   17  H           1     -33.972   1.515 -14.503  0.00  0.00     0.275 HD
HETATM   18  H           1     -33.842  -0.186 -14.510  0.00  0.00     0.275 HD
HETATM   19  H           1     -34.345   0.638 -15.918  0.00  0.00     0.275 HD
ENDBRANCH  15  16
BRANCH  15  20
HETATM   20  C           1     -36.694   0.193 -15.629  0.00  0.00     0.113 C 
BRANCH  20  21
HETATM   21  S           1     -35.891  -1.080 -16.642  0.00  0.00    -0.180 SA
HETATM   22  H           1     -36.808  -1.076 -17.626  0.00  0.00     0.101 HD
ENDBRANCH  20  21
ENDBRANCH  15  20
ENDBRANCH   3  15
TORSDOF 8
ENDMDL
MODEL 2
REMARK VINA RESULT:      -5.7     12.464     14.073
REMARK  8 active torsions:
REMARK  status: ('A' for Active; 'I' for Inactive)
REMARK    1  A    between atoms: C_6  and  C_11 
REMARK    2  A    between atoms: C_6  and  C_19 
REMARK    3  A    between atoms: C_6  and  N_20 
REMARK    4  A    between atoms: S_7  and  C_15 
REMARK    5  A    between atoms: N_8  and  C_9 
REMARK    6  A    between atoms: C_9  and  C_10 
REMARK    7  A    between atoms: C_9  and  C_15 
REMARK       I    between atoms: C_10  and  N_20 
REMARK    8  A    between atoms: C_11  and  C_13 
REMARK       I    between atoms: N_12  and  C_13 
ROOT
HETATM    1  H           1     -24.229  -4.606  -8.426  0.00  0.00     0.163 HD
HETATM    2  O           1     -21.233  -3.676  -8.334  0.00  0.00    -0.271 OA
HETATM    3  C           1     -22.265  -4.165  -7.941  0.00  0.00     0.249 C 
HETATM    4  N           1     -23.365  -4.195  -8.756  0.00  0.00    -0.344 N 
ENDROOT
BRANCH   4   5
HETATM    5  C           1     -23.289  -3.639 -10.094  0.00  0.00     0.194 C 
BRANCH   5   6
HETATM    6  C           1     -22.690  -4.673 -11.038  0.00  0.00     0.138 C 
BRANCH   6   7
HETATM    7  C           1     -21.620  -4.023 -11.882  0.00  0.00     0.217 C 
HETATM    8  N           1     -21.947  -3.460 -13.087  0.00  0.00    -0.370 N 
HETATM    9  H           1     -22.905  -3.480 -13.411  0.00  0.00     0.159 HD
HETATM   10  H           1     -21.230  -3.025 -13.652  0.00  0.00     0.159 HD
HETATM   11  O           1     -20.476  -4.000 -11.494  0.00  0.00    -0.274 OA
ENDBRANCH   6   7
ENDBRANCH   5   6
BRANCH   5  12
HETATM   12  C           1     -24.675  -3.271 -10.564  0.00  0.00     0.197 C 
HETATM   13  O           1     -24.891  -3.074 -11.779  0.00  0.00    -0.646 OA
HETATM   14  O           1     -25.607  -3.164  -9.737  0.00  0.00    -0.646 OA
ENDBRANCH   5  12
ENDBRANCH   4   5
BRANCH   3  15
HETATM   15  C           1     -22.343  -4.743  -6.549  0.00  0.00     0.283 C 
BRANCH  15  16
HETATM   16  N           1     -23.767  -5.092  -6.232  0.00  0.00    -0.066 N 
HETATM   17  H           1     -24.308  -4.218  -6.046  0.00  0.00     0.275 HD
HETATM   18  H           1     -24.191  -5.596  -7.044  0.00  0.00     0.275 HD
HETATM   19  H           1     -23.796  -5.705  -5.386  0.00  0.00     0.275 HD
ENDBRANCH  15  16
BRANCH  15  20
HETATM   20  C           1     -21.485  -5.999  -6.472  0.00  0.00     0.113 C 
BRANCH  20  21
HETATM   21  S           1     -21.841  -6.882  -4.927  0.00  0.00    -0.180 SA
HETATM   22  H           1     -20.861  -6.308  -4.208  0.00  0.00     0.101 HD
ENDBRANCH  20  21
ENDBRANCH  15  20
ENDBRANCH   3  15
TORSDOF 8
ENDMDL
MODEL 3
REMARK VINA RESULT:      -5.5     13.335     14.968
REMARK  8 active torsions:
REMARK  status: ('A' for Active; 'I' for Inactive)
REMARK    1  A    between atoms: C_6  and  C_11 
REMARK    2  A    between atoms: C_6  and  C_19 
REMARK    3  A    between atoms: C_6  and  N_20 
REMARK    4  A    between atoms: S_7  and  C_15 
REMARK    5  A    between atoms: N_8  and  C_9 
REMARK    6  A    between atoms: C_9  and  C_10 
REMARK    7  A    between atoms: C_9  and  C_15 
REMARK       I    between atoms: C_10  and  N_20 
REMARK    8  A    between atoms: C_11  and  C_13 
REMARK       I    between atoms: N_12  and  C_13 
ROOT
HETATM    1  H           1     -22.385  -5.857  -9.129  0.00  0.00     0.163 HD
HETATM    2  O           1     -21.557  -3.450  -7.293  0.00  0.00    -0.271 OA
HETATM    3  C           1     -21.675  -4.600  -7.645  0.00  0.00     0.249 C 
HETATM    4  N           1     -22.287  -4.894  -8.834  0.00  0.00    -0.344 N 
ENDROOT
BRANCH   4   5
HETATM    5  C           1     -22.795  -3.823  -9.671  0.00  0.00     0.194 C 
BRANCH   5   6
HETATM    6  C           1     -22.279  -4.006 -11.093  0.00  0.00     0.138 C 
BRANCH   6   7
HETATM    7  C           1     -20.777  -3.859 -11.106  0.00  0.00     0.217 C 
HETATM    8  N           1     -20.208  -2.669 -11.477  0.00  0.00    -0.370 N 
HETATM    9  H           1     -20.795  -1.889 -11.743  0.00  0.00     0.159 HD
HETATM   10  H           1     -19.202  -2.571 -11.486  0.00  0.00     0.159 HD
HETATM   11  O           1     -20.076  -4.790 -10.788  0.00  0.00    -0.274 OA
ENDBRANCH   6   7
ENDBRANCH   5   6
BRANCH   5  12
HETATM   12  C           1     -24.303  -3.859  -9.674  0.00  0.00     0.197 C 
HETATM   13  O           1     -24.902  -4.945  -9.835  0.00  0.00    -0.646 OA
HETATM   14  O           1     -24.953  -2.804  -9.513  0.00  0.00    -0.646 OA
ENDBRANCH   5  12
ENDBRANCH   4   5
BRANCH   3  15
HETATM   15  C           1     -21.147  -5.713  -6.774  0.00  0.00     0.283 C 
BRANCH  15  16
HETATM   16  N           1     -19.925  -6.308  -7.409  0.00  0.00    -0.066 N 
HETATM   17  H           1     -20.140  -6.578  -8.396  0.00  0.00     0.275 HD
HETATM   18  H           1     -19.152  -5.604  -7.402  0.00  0.00     0.275 HD
HETATM   19  H           1     -19.631  -7.155  -6.873  0.00  0.00     0.275 HD
ENDBRANCH  15  16
BRANCH  15  20
HETATM   20  C           1     -20.786  -5.158  -5.403  0.00  0.00     0.113 C 
BRANCH  20  21
HETATM   21  S           1     -21.405  -6.275  -4.114  0.00  0.00    -0.180 SA
HETATM   22  H           1     -20.862  -7.394  -4.625  0.00  0.00     0.101 HD
ENDBRANCH  20  21
ENDBRANCH  15  20
ENDBRANCH   3  15
TORSDOF 8
ENDMDL
MODEL 4
REMARK VINA RESULT:      -5.3      1.869      2.202
REMARK  8 active torsions:
REMARK  status: ('A' for Active; 'I' for Inactive)
REMARK    1  A    between atoms: C_6  and  C_11 
REMARK    2  A    between atoms: C_6  and  C_19 
REMARK    3  A    between atoms: C_6  and  N_20 
REMARK    4  A    between atoms: S_7  and  C_15 
REMARK    5  A    between atoms: N_8  and  C_9 
REMARK    6  A    between atoms: C_9  and  C_10 
REMARK    7  A    between atoms: C_9  and  C_15 
REMARK       I    between atoms: C_10  and  N_20 
REMARK    8  A    between atoms: C_11  and  C_13 
REMARK       I    between atoms: N_12  and  C_13 
ROOT
HETATM    1  H           1     -35.139   0.012 -12.253  0.00  0.00     0.163 HD
HETATM    2  O           1     -37.880  -0.683 -13.612  0.00  0.00    -0.271 OA
HETATM    3  C           1     -36.761  -0.239 -13.514  0.00  0.00     0.249 C 
HETATM    4  N           1     -36.077  -0.359 -12.334  0.00  0.00    -0.344 N 
ENDROOT
BRANCH   4   5
HETATM    5  C           1     -36.697  -1.019 -11.201  0.00  0.00     0.194 C 
BRANCH   5   6
HETATM    6  C           1     -35.886  -2.254 -10.830  0.00  0.00     0.138 C 
BRANCH   6   7
HETATM    7  C           1     -34.476  -2.105 -11.348  0.00  0.00     0.217 C 
HETATM    8  N           1     -33.483  -1.670 -10.512  0.00  0.00    -0.370 N 
HETATM    9  H           1     -33.693  -1.448  -9.548  0.00  0.00     0.159 HD
HETATM   10  H           1     -32.538  -1.570 -10.860  0.00  0.00     0.159 HD
HETATM   11  O           1     -34.225  -2.370 -12.499  0.00  0.00    -0.274 OA
ENDBRANCH   6   7
ENDBRANCH   5   6
BRANCH   5  12
HETATM   12  C           1     -36.738  -0.071 -10.028  0.00  0.00     0.197 C 
HETATM   13  O           1     -37.473   0.939 -10.066  0.00  0.00    -0.646 OA
HETATM   14  O           1     -36.037  -0.297  -9.018  0.00  0.00    -0.646 OA
ENDBRANCH   5  12
ENDBRANCH   4   5
BRANCH   3  15
HETATM   15  C           1     -36.116   0.447 -14.693  0.00  0.00     0.283 C 
BRANCH  15  16
HETATM   16  N           1     -34.631   0.240 -14.641  0.00  0.00    -0.066 N 
HETATM   17  H           1     -34.420  -0.784 -14.665  0.00  0.00     0.275 HD
HETATM   18  H           1     -34.185   0.706 -15.464  0.00  0.00     0.275 HD
HETATM   19  H           1     -34.252   0.651 -13.758  0.00  0.00     0.275 HD
ENDBRANCH  15  16
BRANCH  15  20
HETATM   20  C           1     -36.665  -0.141 -15.986  0.00  0.00     0.113 C 
BRANCH  20  21
HETATM   21  S           1     -35.509  -1.385 -16.625  0.00  0.00    -0.180 SA
HETATM   22  H           1     -36.402  -2.021 -17.403  0.00  0.00     0.101 HD
ENDBRANCH  20  21
ENDBRANCH  15  20
ENDBRANCH   3  15
TORSDOF 8
ENDMDL
MODEL 5
REMARK VINA RESULT:      -5.3     10.140     12.270
REMARK  8 active torsions:
REMARK  status: ('A' for Active; 'I' for Inactive)
REMARK    1  A    between atoms: C_6  and  C_11 
REMARK    2  A    between atoms: C_6  and  C_19 
REMARK    3  A    between atoms: C_6  and  N_20 
REMARK    4  A    between atoms: S_7  and  C_15 
REMARK    5  A    between atoms: N_8  and  C_9 
REMARK    6  A    between atoms: C_9  and  C_10 
REMARK    7  A    between atoms: C_9  and  C_15 
REMARK       I    between atoms: C_10  and  N_20 
REMARK    8  A    between atoms: C_11  and  C_13 
REMARK       I    between atoms: N_12  and  C_13 
ROOT
HETATM    1  H           1     -27.165  -8.074 -18.797  0.00  0.00     0.163 HD
HETATM    2  O           1     -28.585  -5.306 -19.208  0.00  0.00    -0.271 OA
HETATM    3  C           1     -28.316  -6.358 -18.678  0.00  0.00     0.249 C 
HETATM    4  N           1     -27.391  -7.194 -19.242  0.00  0.00    -0.344 N 
ENDROOT
BRANCH   4   5
HETATM    5  C           1     -26.733  -6.816 -20.478  0.00  0.00     0.194 C 
BRANCH   5   6
HETATM    6  C           1     -25.420  -6.113 -20.159  0.00  0.00     0.138 C 
BRANCH   6   7
HETATM    7  C           1     -24.687  -6.880 -19.085  0.00  0.00     0.217 C 
HETATM    8  N           1     -23.699  -7.764 -19.429  0.00  0.00    -0.370 N 
HETATM    9  H           1     -23.461  -7.903 -20.403  0.00  0.00     0.159 HD
HETATM   10  H           1     -23.208  -8.279 -18.710  0.00  0.00     0.159 HD
HETATM   11  O           1     -24.971  -6.714 -17.923  0.00  0.00    -0.274 OA
ENDBRANCH   6   7
ENDBRANCH   5   6
BRANCH   5  12
HETATM   12  C           1     -26.456  -8.053 -21.298  0.00  0.00     0.197 C 
HETATM   13  O           1     -27.345  -8.919 -21.443  0.00  0.00    -0.646 OA
HETATM   14  O           1     -25.337  -8.210 -21.832  0.00  0.00    -0.646 OA
ENDBRANCH   5  12
ENDBRANCH   4   5
BRANCH   3  15
HETATM   15  C           1     -29.001  -6.750 -17.391  0.00  0.00     0.283 C 
BRANCH  15  16
HETATM   16  N           1     -29.381  -8.199 -17.450  0.00  0.00    -0.066 N 
HETATM   17  H           1     -29.677  -8.444 -18.422  0.00  0.00     0.275 HD
HETATM   18  H           1     -28.560  -8.787 -17.179  0.00  0.00     0.275 HD
HETATM   19  H           1     -30.172  -8.379 -16.791  0.00  0.00     0.275 HD
ENDBRANCH  15  16
BRANCH  15  20
HETATM   20  C           1     -28.053  -6.522 -16.221  0.00  0.00     0.113 C 
BRANCH  20  21
HETATM   21  S           1     -28.982  -5.865 -14.807  0.00  0.00    -0.180 SA
HETATM   22  H           1     -28.282  -6.519 -13.863  0.00  0.00     0.101 HD
ENDBRANCH  20  21
ENDBRANCH  15  20
ENDBRANCH   3  15
TORSDOF 8
ENDMDL
MODEL 6
REMARK VINA RESULT:      -5.1     13.048     14.609
REMARK  8 active torsions:
REMARK  status: ('A' for Active; 'I' for Inactive)
REMARK    1  A    between atoms: C_6  and  C_11 
REMARK    2  A    between atoms: C_6  and  C_19 
REMARK    3  A    between atoms: C_6  and  N_20 
REMARK    4  A    between atoms: S_7  and  C_15 
REMARK    5  A    between atoms: N_8  and  C_9 
REMARK    6  A    between atoms: C_9  and  C_10 
REMARK    7  A    between atoms: C_9  and  C_15 
REMARK       I    between atoms: C_10  and  N_20 
REMARK    8  A    between atoms: C_11  and  C_13 
REMARK       I    between atoms: N_12  and  C_13 
ROOT
HETATM    1  H           1     -22.407  -3.463  -9.053  0.00  0.00     0.163 HD
HETATM    2  O           1     -19.881  -5.083  -9.971  0.00  0.00    -0.271 OA
HETATM    3  C           1     -20.572  -4.399  -9.254  0.00  0.00     0.249 C 
HETATM    4  N           1     -21.829  -4.035  -9.655  0.00  0.00    -0.344 N 
ENDROOT
BRANCH   4   5
HETATM    5  C           1     -22.332  -4.472 -10.944  0.00  0.00     0.194 C 
BRANCH   5   6
HETATM    6  C           1     -23.776  -4.933 -10.793  0.00  0.00     0.138 C 
BRANCH   6   7
HETATM    7  C           1     -24.537  -3.937  -9.953  0.00  0.00     0.217 C 
HETATM    8  N           1     -24.388  -3.934  -8.591  0.00  0.00    -0.370 N 
HETATM    9  H           1     -23.767  -4.600  -8.149  0.00  0.00     0.159 HD
HETATM   10  H           1     -24.898  -3.267  -8.028  0.00  0.00     0.159 HD
HETATM   11  O           1     -25.278  -3.142 -10.481  0.00  0.00    -0.274 OA
ENDBRANCH   6   7
ENDBRANCH   5   6
BRANCH   5  12
HETATM   12  C           1     -22.269  -3.325 -11.923  0.00  0.00     0.197 C 
HETATM   13  O           1     -22.907  -3.383 -12.996  0.00  0.00    -0.646 OA
HETATM   14  O           1     -21.579  -2.316 -11.659  0.00  0.00    -0.646 OA
ENDBRANCH   5  12
ENDBRANCH   4   5
BRANCH   3  15
HETATM   15  C           1     -20.048  -3.945  -7.913  0.00  0.00     0.283 C 
BRANCH  15  16
HETATM   16  N           1     -21.178  -3.390  -7.097  0.00  0.00    -0.066 N 
HETATM   17  H           1     -20.903  -2.462  -6.705  0.00  0.00     0.275 HD
HETATM   18  H           1     -22.022  -3.275  -7.704  0.00  0.00     0.275 HD
HETATM   19  H           1     -21.398  -4.047  -6.315  0.00  0.00     0.275 HD
ENDBRANCH  15  16
BRANCH  15  20
HETATM   20  C           1     -19.429  -5.129  -7.182  0.00  0.00     0.113 C 
BRANCH  20  21
HETATM   21  S           1     -20.474  -5.584  -5.771  0.00  0.00    -0.180 SA
HETATM   22  H           1     -19.691  -5.026  -4.830  0.00  0.00     0.101 HD
ENDBRANCH  20  21
ENDBRANCH  15  20
ENDBRANCH   3  15
TORSDOF 8
ENDMDL
MODEL 7
REMARK VINA RESULT:      -5.0     15.213     17.000
REMARK  8 active torsions:
REMARK  status: ('A' for Active; 'I' for Inactive)
REMARK    1  A    between atoms: C_6  and  C_11 
REMARK    2  A    between atoms: C_6  and  C_19 
REMARK    3  A    between atoms: C_6  and  N_20 
REMARK    4  A    between atoms: S_7  and  C_15 
REMARK    5  A    between atoms: N_8  and  C_9 
REMARK    6  A    between atoms: C_9  and  C_10 
REMARK    7  A    between atoms: C_9  and  C_15 
REMARK       I    between atoms: C_10  and  N_20 
REMARK    8  A    between atoms: C_11  and  C_13 
REMARK       I    between atoms: N_12  and  C_13 
ROOT
HETATM    1  H           1     -20.513  -4.501  -4.553  0.00  0.00     0.163 HD
HETATM    2  O           1     -21.932  -7.277  -4.915  0.00  0.00    -0.271 OA
HETATM    3  C           1     -21.409  -6.355  -4.335  0.00  0.00     0.249 C 
HETATM    4  N           1     -20.950  -5.274  -5.039  0.00  0.00    -0.344 N 
ENDROOT
BRANCH   4   5
HETATM    5  C           1     -21.091  -5.237  -6.482  0.00  0.00     0.194 C 
BRANCH   5   6
HETATM    6  C           1     -21.529  -3.842  -6.912  0.00  0.00     0.138 C 
BRANCH   6   7
HETATM    7  C           1     -22.440  -3.948  -8.111  0.00  0.00     0.217 C 
HETATM    8  N           1     -23.790  -4.097  -7.934  0.00  0.00    -0.370 N 
HETATM    9  H           1     -24.176  -4.136  -6.999  0.00  0.00     0.159 HD
HETATM   10  H           1     -24.400  -4.168  -8.737  0.00  0.00     0.159 HD
HETATM   11  O           1     -21.978  -3.901  -9.226  0.00  0.00    -0.274 OA
ENDBRANCH   6   7
ENDBRANCH   5   6
BRANCH   5  12
HETATM   12  C           1     -19.767  -5.570  -7.126  0.00  0.00     0.197 C 
HETATM   13  O           1     -19.046  -4.656  -7.580  0.00  0.00    -0.646 OA
HETATM   14  O           1     -19.393  -6.760  -7.203  0.00  0.00    -0.646 OA
ENDBRANCH   5  12
ENDBRANCH   4   5
BRANCH   3  15
HETATM   15  C           1     -21.262  -6.394  -2.834  0.00  0.00     0.283 C 
BRANCH  15  16
HETATM   16  N           1     -22.507  -5.852  -2.196  0.00  0.00    -0.066 N 
HETATM   17  H           1     -22.287  -5.512  -1.233  0.00  0.00     0.275 HD
HETATM   18  H           1     -22.875  -5.059  -2.769  0.00  0.00     0.275 HD
HETATM   19  H           1     -23.228  -6.607  -2.142  0.00  0.00     0.275 HD
ENDBRANCH  15  16
BRANCH  15  20
HETATM   20  C           1     -21.046  -7.832  -2.382  0.00  0.00     0.113 C 
BRANCH  20  21
HETATM   21  S           1     -21.830  -8.083  -0.765  0.00  0.00    -0.180 SA
HETATM   22  H           1     -22.942  -7.377  -1.036  0.00  0.00     0.101 HD
ENDBRANCH  20  21
ENDBRANCH  15  20
ENDBRANCH   3  15
TORSDOF 8
ENDMDL
MODEL 8
REMARK VINA RESULT:      -4.9     13.034     14.516
REMARK  8 active torsions:
REMARK  status: ('A' for Active; 'I' for Inactive)
REMARK    1  A    between atoms: C_6  and  C_11 
REMARK    2  A    between atoms: C_6  and  C_19 
REMARK    3  A    between atoms: C_6  and  N_20 
REMARK    4  A    between atoms: S_7  and  C_15 
REMARK    5  A    between atoms: N_8  and  C_9 
REMARK    6  A    between atoms: C_9  and  C_10 
REMARK    7  A    between atoms: C_9  and  C_15 
REMARK       I    between atoms: C_10  and  N_20 
REMARK    8  A    between atoms: C_11  and  C_13 
REMARK       I    between atoms: N_12  and  C_13 
ROOT
HETATM    1  H           1     -22.205  -6.220  -8.949  0.00  0.00     0.163 HD
HETATM    2  O           1     -23.018  -3.224  -8.486  0.00  0.00    -0.271 OA
HETATM    3  C           1     -23.073  -4.340  -8.946  0.00  0.00     0.249 C 
HETATM    4  N           1     -22.158  -5.285  -8.564  0.00  0.00    -0.344 N 
ENDROOT
BRANCH   4   5
HETATM    5  C           1     -21.122  -4.945  -7.608  0.00  0.00     0.194 C 
BRANCH   5   6
HETATM    6  C           1     -20.907  -6.116  -6.657  0.00  0.00     0.138 C 
BRANCH   6   7
HETATM    7  C           1     -21.754  -5.923  -5.423  0.00  0.00     0.217 C 
HETATM    8  N           1     -21.170  -5.933  -4.184  0.00  0.00    -0.370 N 
HETATM    9  H           1     -20.171  -6.069  -4.096  0.00  0.00     0.159 HD
HETATM   10  H           1     -21.738  -5.804  -3.356  0.00  0.00     0.159 HD
HETATM   11  O           1     -22.947  -5.761  -5.527  0.00  0.00    -0.274 OA
ENDBRANCH   6   7
ENDBRANCH   5   6
BRANCH   5  12
HETATM   12  C           1     -19.837  -4.649  -8.342  0.00  0.00     0.197 C 
HETATM   13  O           1     -19.800  -4.720  -9.589  0.00  0.00    -0.646 OA
HETATM   14  O           1     -18.811  -4.333  -7.702  0.00  0.00    -0.646 OA
ENDBRANCH   5  12
ENDBRANCH   4   5
BRANCH   3  15
HETATM   15  C           1     -24.150  -4.694  -9.941  0.00  0.00     0.283 C 
BRANCH  15  16
HETATM   16  N           1     -25.261  -3.690  -9.852  0.00  0.00    -0.066 N 
HETATM   17  H           1     -26.180  -4.187  -9.829  0.00  0.00     0.275 HD
HETATM   18  H           1     -25.151  -3.125  -8.979  0.00  0.00     0.275 HD
HETATM   19  H           1     -25.228  -3.058 -10.683  0.00  0.00     0.275 HD
ENDBRANCH  15  16
BRANCH  15  20
HETATM   20  C           1     -23.567  -4.681 -11.348  0.00  0.00     0.113 C 
BRANCH  20  21
HETATM   21  S           1     -23.831  -3.049 -12.097  0.00  0.00    -0.180 SA
HETATM   22  H           1     -25.159  -3.010 -11.887  0.00  0.00     0.101 HD
ENDBRANCH  20  21
ENDBRANCH  15  20
ENDBRANCH   3  15
TORSDOF 8
ENDMDL
MODEL 9
REMARK VINA RESULT:      -4.8     14.000     15.754
REMARK  8 active torsions:
REMARK  status: ('A' for Active; 'I' for Inactive)
REMARK    1  A    between atoms: C_6  and  C_11 
REMARK    2  A    between atoms: C_6  and  C_19 
REMARK    3  A    between atoms: C_6  and  N_20 
REMARK    4  A    between atoms: S_7  and  C_15 
REMARK    5  A    between atoms: N_8  and  C_9 
REMARK    6  A    between atoms: C_9  and  C_10 
REMARK    7  A    between atoms: C_9  and  C_15 
REMARK       I    between atoms: C_10  and  N_20 
REMARK    8  A    between atoms: C_11  and  C_13 
REMARK       I    between atoms: N_12  and  C_13 
ROOT
HETATM    1  H           1     -21.981  -4.010  -6.474  0.00  0.00     0.163 HD
HETATM    2  O           1     -21.017  -6.929  -7.104  0.00  0.00    -0.271 OA
HETATM    3  C           1     -21.317  -5.970  -6.433  0.00  0.00     0.249 C 
HETATM    4  N           1     -21.729  -4.812  -7.036  0.00  0.00    -0.344 N 
ENDROOT
BRANCH   4   5
HETATM    5  C           1     -21.803  -4.737  -8.483  0.00  0.00     0.194 C 
BRANCH   5   6
HETATM    6  C           1     -22.837  -3.691  -8.882  0.00  0.00     0.138 C 
BRANCH   6   7
HETATM    7  C           1     -23.910  -4.340  -9.721  0.00  0.00     0.217 C 
HETATM    8  N           1     -25.210  -3.923  -9.612  0.00  0.00    -0.370 N 
HETATM    9  H           1     -25.451  -3.179  -8.969  0.00  0.00     0.159 HD
HETATM   10  H           1     -25.930  -4.358 -10.175  0.00  0.00     0.159 HD
HETATM   11  O           1     -23.623  -5.228 -10.489  0.00  0.00    -0.274 OA
ENDBRANCH   6   7
ENDBRANCH   5   6
BRANCH   5  12
HETATM   12  C           1     -20.454  -4.349  -9.036  0.00  0.00     0.197 C 
HETATM   13  O           1     -19.632  -3.746  -8.313  0.00  0.00    -0.646 OA
HETATM   14  O           1     -20.159  -4.631 -10.217  0.00  0.00    -0.646 OA
ENDBRANCH   5  12
ENDBRANCH   4   5
BRANCH   3  15
HETATM   15  C           1     -21.239  -6.049  -4.928  0.00  0.00     0.283 C 
BRANCH  15  16
HETATM   16  N           1     -22.624  -6.148  -4.360  0.00  0.00    -0.066 N 
HETATM   17  H           1     -22.836  -7.144  -4.126  0.00  0.00     0.275 HD
HETATM   18  H           1     -22.688  -5.566  -3.494  0.00  0.00     0.275 HD
HETATM   19  H           1     -23.315  -5.802  -5.065  0.00  0.00     0.275 HD
ENDBRANCH  15  16
BRANCH  15  20
HETATM   20  C           1     -20.438  -7.280  -4.524  0.00  0.00     0.113 C 
BRANCH  20  21
HETATM   21  S           1     -21.117  -7.968  -2.989  0.00  0.00    -0.180 SA
HETATM   22  H           1     -19.943  -8.408  -2.501  0.00  0.00     0.101 HD
ENDBRANCH  20  21
ENDBRANCH  15  20
ENDBRANCH   3  15
TORSDOF 8
ENDMDL
