MODEL 1
REMARK VINA RESULT:      -5.6      0.000      0.000
REMARK  8 active torsions:
REMARK  status: ('A' for Active; 'I' for Inactive)
REMARK    1  A    between atoms: N_2  and  C_17 
REMARK       I    between atoms: N_2  and  C_3 
REMARK    2  A    between atoms: C_3  and  C_4 
REMARK    3  A    between atoms: C_4  and  C_5 
REMARK    4  A    between atoms: C_4  and  N_7 
REMARK    5  A    between atoms: C_5  and  Se_6 
REMARK    6  A    between atoms: O_15  and  C_16 
REMARK    7  A    between atoms: C_16  and  C_17 
REMARK    8  A    between atoms: C_17  and  C_18 
ROOT
HETATM    1  N           1     -34.917  -1.088 -14.104  0.00  0.00    -0.343 N 
HETATM    2  C           1     -35.345  -1.584 -12.903  0.00  0.00     0.249 C 
HETATM    3  O           1     -36.486  -1.404 -12.546  0.00  0.00    -0.271 OA
HETATM    4  H           1     -33.963  -1.240 -14.403  0.00  0.00     0.163 HD
ENDROOT
BRANCH   2   5
HETATM    5  C           1     -34.394  -2.359 -12.024  0.00  0.00     0.274 C 
BRANCH   5   6
HETATM    6  C           1     -35.103  -3.585 -11.464  0.00  0.00     0.045 C 
BRANCH   6   7
HETATM    7 Se           1     -33.785  -4.944 -11.003  0.00  0.00     0.000 Se
HETATM    8  H           1     -33.227  -4.185  -9.872  0.00  0.00     0.000 HD
ENDBRANCH   6   7
ENDBRANCH   5   6
BRANCH   5   9
HETATM    9  N           1     -33.936  -1.486 -10.893  0.00  0.00    -0.067 N 
HETATM   10  H           1     -32.902  -1.580 -10.777  0.00  0.00     0.275 HD
HETATM   11  H           1     -34.175  -0.491 -11.104  0.00  0.00     0.275 HD
HETATM   12  H           1     -34.414  -1.780 -10.012  0.00  0.00     0.275 HD
ENDBRANCH   5   9
ENDBRANCH   2   5
BRANCH   1  13
HETATM   13  C           1     -35.831  -0.343 -14.948  0.00  0.00     0.209 C 
BRANCH  13  14
HETATM   14  C           1     -35.373   1.107 -15.037  0.00  0.00     0.200 C 
BRANCH  14  15
HETATM   15  O           1     -36.206   1.808 -15.921  0.00  0.00    -0.398 OA
HETATM   16  H           1     -35.961   1.549 -16.792  0.00  0.00     0.209 HD
ENDBRANCH  14  15
ENDBRANCH  13  14
BRANCH  13  17
HETATM   17  C           1     -35.849  -0.951 -16.330  0.00  0.00     0.198 C 
HETATM   18  O           1     -36.817  -0.744 -17.092  0.00  0.00    -0.646 OA
HETATM   19  O           1     -34.894  -1.662 -16.711  0.00  0.00    -0.646 OA
ENDBRANCH  13  17
ENDBRANCH   1  13
TORSDOF 8
ENDMDL
MODEL 2
REMARK VINA RESULT:      -5.0     12.720     13.820
REMARK  8 active torsions:
REMARK  status: ('A' for Active; 'I' for Inactive)
REMARK    1  A    between atoms: N_2  and  C_17 
REMARK       I    between atoms: N_2  and  C_3 
REMARK    2  A    between atoms: C_3  and  C_4 
REMARK    3  A    between atoms: C_4  and  C_5 
REMARK    4  A    between atoms: C_4  and  N_7 
REMARK    5  A    between atoms: C_5  and  Se_6 
REMARK    6  A    between atoms: O_15  and  C_16 
REMARK    7  A    between atoms: C_16  and  C_17 
REMARK    8  A    between atoms: C_17  and  C_18 
ROOT
HETATM    1  N           1     -23.063  -3.824  -9.376  0.00  0.00    -0.343 N 
HETATM    2  C           1     -21.952  -3.946  -8.585  0.00  0.00     0.249 C 
HETATM    3  O           1     -20.859  -3.700  -9.036  0.00  0.00    -0.271 OA
HETATM    4  H           1     -23.978  -4.029  -8.998  0.00  0.00     0.163 HD
ENDROOT
BRANCH   2   5
HETATM    5  C           1     -22.094  -4.389  -7.149  0.00  0.00     0.274 C 
BRANCH   5   6
HETATM    6  C           1     -21.367  -5.712  -6.951  0.00  0.00     0.045 C 
BRANCH   6   7
HETATM    7 Se           1     -21.786  -6.426  -5.187  0.00  0.00     0.000 Se
HETATM    8  H           1     -22.792  -5.396  -4.882  0.00  0.00     0.000 HD
ENDBRANCH   6   7
ENDBRANCH   5   6
BRANCH   5   9
HETATM    9  N           1     -23.547  -4.563  -6.821  0.00  0.00    -0.067 N 
HETATM   10  H           1     -24.122  -4.385  -7.675  0.00  0.00     0.275 HD
HETATM   11  H           1     -23.713  -5.540  -6.487  0.00  0.00     0.275 HD
HETATM   12  H           1     -23.818  -3.889  -6.071  0.00  0.00     0.275 HD
ENDBRANCH   5   9
ENDBRANCH   2   5
BRANCH   1  13
HETATM   13  C           1     -22.926  -3.398 -10.755  0.00  0.00     0.209 C 
BRANCH  13  14
HETATM   14  C           1     -22.205  -4.480 -11.550  0.00  0.00     0.200 C 
BRANCH  14  15
HETATM   15  O           1     -21.606  -3.908 -12.681  0.00  0.00    -0.398 OA
HETATM   16  H           1     -21.971  -3.046 -12.779  0.00  0.00     0.209 HD
ENDBRANCH  14  15
ENDBRANCH  13  14
BRANCH  13  17
HETATM   17  C           1     -24.295  -3.166 -11.348  0.00  0.00     0.198 C 
HETATM   18  O           1     -24.416  -2.936 -12.570  0.00  0.00    -0.646 OA
HETATM   19  O           1     -25.307  -3.204 -10.616  0.00  0.00    -0.646 OA
ENDBRANCH  13  17
ENDBRANCH   1  13
TORSDOF 8
ENDMDL
MODEL 3
REMARK VINA RESULT:      -5.0      1.840      2.266
REMARK  8 active torsions:
REMARK  status: ('A' for Active; 'I' for Inactive)
REMARK    1  A    between atoms: N_2  and  C_17 
REMARK       I    between atoms: N_2  and  C_3 
REMARK    2  A    between atoms: C_3  and  C_4 
REMARK    3  A    between atoms: C_4  and  C_5 
REMARK    4  A    between atoms: C_4  and  N_7 
REMARK    5  A    between atoms: C_5  and  Se_6 
REMARK    6  A    between atoms: O_15  and  C_16 
REMARK    7  A    between atoms: C_16  and  C_17 
REMARK    8  A    between atoms: C_17  and  C_18 
ROOT
HETATM    1  N           1     -35.017  -1.475 -13.378  0.00  0.00    -0.343 N 
HETATM    2  C           1     -34.626  -2.013 -12.182  0.00  0.00     0.249 C 
HETATM    3  O           1     -34.736  -1.371 -11.165  0.00  0.00    -0.271 OA
HETATM    4  H           1     -34.926  -2.013 -14.229  0.00  0.00     0.163 HD
ENDROOT
BRANCH   2   5
HETATM    5  C           1     -34.060  -3.411 -12.134  0.00  0.00     0.274 C 
BRANCH   5   6
HETATM    6  C           1     -35.005  -4.317 -11.355  0.00  0.00     0.045 C 
BRANCH   6   7
HETATM    7 Se           1     -34.086  -5.972 -10.893  0.00  0.00     0.000 Se
HETATM    8  H           1     -32.761  -5.489 -11.314  0.00  0.00     0.000 HD
ENDBRANCH   6   7
ENDBRANCH   5   6
BRANCH   5   9
HETATM    9  N           1     -32.722  -3.385 -11.455  0.00  0.00    -0.067 N 
HETATM   10  H           1     -32.722  -2.649 -10.713  0.00  0.00     0.275 HD
HETATM   11  H           1     -32.534  -4.317 -11.022  0.00  0.00     0.275 HD
HETATM   12  H           1     -31.979  -3.171 -12.158  0.00  0.00     0.275 HD
ENDBRANCH   5   9
ENDBRANCH   2   5
BRANCH   1  13
HETATM   13  C           1     -35.561  -0.132 -13.424  0.00  0.00     0.209 C 
BRANCH  13  14
HETATM   14  C           1     -35.061   0.575 -14.678  0.00  0.00     0.200 C 
BRANCH  14  15
HETATM   15  O           1     -36.033   1.482 -15.123  0.00  0.00    -0.398 OA
HETATM   16  H           1     -35.996   1.484 -16.064  0.00  0.00     0.209 HD
ENDBRANCH  14  15
ENDBRANCH  13  14
BRANCH  13  17
HETATM   17  C           1     -37.068  -0.200 -13.453  0.00  0.00     0.198 C 
HETATM   18  O           1     -37.650  -0.798 -14.383  0.00  0.00    -0.646 OA
HETATM   19  O           1     -37.735   0.342 -12.544  0.00  0.00    -0.646 OA
ENDBRANCH  13  17
ENDBRANCH   1  13
TORSDOF 8
ENDMDL
MODEL 4
REMARK VINA RESULT:      -5.0     13.478     14.598
REMARK  8 active torsions:
REMARK  status: ('A' for Active; 'I' for Inactive)
REMARK    1  A    between atoms: N_2  and  C_17 
REMARK       I    between atoms: N_2  and  C_3 
REMARK    2  A    between atoms: C_3  and  C_4 
REMARK    3  A    between atoms: C_4  and  C_5 
REMARK    4  A    between atoms: C_4  and  N_7 
REMARK    5  A    between atoms: C_5  and  Se_6 
REMARK    6  A    between atoms: O_15  and  C_16 
REMARK    7  A    between atoms: C_16  and  C_17 
REMARK    8  A    between atoms: C_17  and  C_18 
ROOT
HETATM    1  N           1     -22.303  -4.687  -8.677  0.00  0.00    -0.343 N 
HETATM    2  C           1     -21.624  -4.486  -7.506  0.00  0.00     0.249 C 
HETATM    3  O           1     -21.458  -3.365  -7.087  0.00  0.00    -0.271 OA
HETATM    4  H           1     -22.443  -5.625  -9.027  0.00  0.00     0.163 HD
ENDROOT
BRANCH   2   5
HETATM    5  C           1     -21.085  -5.666  -6.736  0.00  0.00     0.274 C 
BRANCH   5   6
HETATM    6  C           1     -20.648  -5.213  -5.349  0.00  0.00     0.045 C 
BRANCH   6   7
HETATM    7 Se           1     -21.448  -6.373  -4.003  0.00  0.00     0.000 Se
HETATM    8  H           1     -22.123  -7.239  -4.985  0.00  0.00     0.000 HD
ENDBRANCH   6   7
ENDBRANCH   5   6
BRANCH   5   9
HETATM    9  N           1     -19.907  -6.243  -7.465  0.00  0.00    -0.067 N 
HETATM   10  H           1     -19.904  -5.896  -8.451  0.00  0.00     0.275 HD
HETATM   11  H           1     -19.025  -5.947  -6.989  0.00  0.00     0.275 HD
HETATM   12  H           1     -19.972  -7.286  -7.462  0.00  0.00     0.275 HD
ENDBRANCH   5   9
ENDBRANCH   2   5
BRANCH   1  13
HETATM   13  C           1     -22.821  -3.552  -9.417  0.00  0.00     0.209 C 
BRANCH  13  14
HETATM   14  C           1     -22.092  -3.439 -10.749  0.00  0.00     0.200 C 
BRANCH  14  15
HETATM   15  O           1     -23.001  -3.069 -11.751  0.00  0.00    -0.398 OA
HETATM   16  H           1     -23.772  -3.597 -11.630  0.00  0.00     0.209 HD
ENDBRANCH  14  15
ENDBRANCH  13  14
BRANCH  13  17
HETATM   17  C           1     -24.297  -3.746  -9.666  0.00  0.00     0.198 C 
HETATM   18  O           1     -25.082  -2.779  -9.558  0.00  0.00    -0.646 OA
HETATM   19  O           1     -24.735  -4.874  -9.980  0.00  0.00    -0.646 OA
ENDBRANCH  13  17
ENDBRANCH   1  13
TORSDOF 8
ENDMDL
MODEL 5
REMARK VINA RESULT:      -5.0      3.310      5.563
REMARK  8 active torsions:
REMARK  status: ('A' for Active; 'I' for Inactive)
REMARK    1  A    between atoms: N_2  and  C_17 
REMARK       I    between atoms: N_2  and  C_3 
REMARK    2  A    between atoms: C_3  and  C_4 
REMARK    3  A    between atoms: C_4  and  C_5 
REMARK    4  A    between atoms: C_4  and  N_7 
REMARK    5  A    between atoms: C_5  and  Se_6 
REMARK    6  A    between atoms: O_15  and  C_16 
REMARK    7  A    between atoms: C_16  and  C_17 
REMARK    8  A    between atoms: C_17  and  C_18 
ROOT
HETATM    1  N           1     -34.664  -2.159 -12.110  0.00  0.00    -0.343 N 
HETATM    2  C           1     -34.968  -1.586 -13.315  0.00  0.00     0.249 C 
HETATM    3  O           1     -34.936  -2.249 -14.325  0.00  0.00    -0.271 OA
HETATM    4  H           1     -34.691  -1.604 -11.265  0.00  0.00     0.163 HD
ENDROOT
BRANCH   2   5
HETATM    5  C           1     -35.345  -0.127 -13.383  0.00  0.00     0.274 C 
BRANCH   5   6
HETATM    6  C           1     -36.856   0.003 -13.522  0.00  0.00     0.045 C 
BRANCH   6   7
HETATM    7 Se           1     -37.322   0.182 -15.405  0.00  0.00     0.000 Se
HETATM    8  H           1     -38.736  -0.177 -15.209  0.00  0.00     0.000 HD
ENDBRANCH   6   7
ENDBRANCH   5   6
BRANCH   5   9
HETATM    9  N           1     -34.679   0.507 -14.568  0.00  0.00    -0.067 N 
HETATM   10  H           1     -33.668   0.242 -14.583  0.00  0.00     0.275 HD
HETATM   11  H           1     -35.139   0.174 -15.445  0.00  0.00     0.275 HD
HETATM   12  H           1     -34.766   1.546 -14.502  0.00  0.00     0.275 HD
ENDBRANCH   5   9
ENDBRANCH   2   5
BRANCH   1  13
HETATM   13  C           1     -34.302  -3.562 -12.046  0.00  0.00     0.209 C 
BRANCH  13  14
HETATM   14  C           1     -32.841  -3.690 -11.632  0.00  0.00     0.200 C 
BRANCH  14  15
HETATM   15  O           1     -32.310  -4.880 -12.150  0.00  0.00    -0.398 OA
HETATM   16  H           1     -33.038  -5.451 -12.325  0.00  0.00     0.209 HD
ENDBRANCH  14  15
ENDBRANCH  13  14
BRANCH  13  17
HETATM   17  C           1     -35.175  -4.261 -11.033  0.00  0.00     0.198 C 
HETATM   18  O           1     -34.818  -5.357 -10.550  0.00  0.00    -0.646 OA
HETATM   19  O           1     -36.256  -3.743 -10.677  0.00  0.00    -0.646 OA
ENDBRANCH  13  17
ENDBRANCH   1  13
TORSDOF 8
ENDMDL
MODEL 6
REMARK VINA RESULT:      -4.9     10.761     11.764
REMARK  8 active torsions:
REMARK  status: ('A' for Active; 'I' for Inactive)
REMARK    1  A    between atoms: N_2  and  C_17 
REMARK       I    between atoms: N_2  and  C_3 
REMARK    2  A    between atoms: C_3  and  C_4 
REMARK    3  A    between atoms: C_4  and  C_5 
REMARK    4  A    between atoms: C_4  and  N_7 
REMARK    5  A    between atoms: C_5  and  Se_6 
REMARK    6  A    between atoms: O_15  and  C_16 
REMARK    7  A    between atoms: C_16  and  C_17 
REMARK    8  A    between atoms: C_17  and  C_18 
ROOT
HETATM    1  N           1     -27.408  -7.251 -19.435  0.00  0.00    -0.343 N 
HETATM    2  C           1     -28.304  -6.391 -18.859  0.00  0.00     0.249 C 
HETATM    3  O           1     -28.073  -5.205 -18.833  0.00  0.00    -0.271 OA
HETATM    4  H           1     -27.602  -8.243 -19.457  0.00  0.00     0.163 HD
ENDROOT
BRANCH   2   5
HETATM    5  C           1     -29.580  -6.923 -18.255  0.00  0.00     0.274 C 
BRANCH   5   6
HETATM    6  C           1     -29.693  -6.458 -16.810  0.00  0.00     0.045 C 
BRANCH   6   7
HETATM    7 Se           1     -28.114  -7.027 -15.819  0.00  0.00     0.000 Se
HETATM    8  H           1     -27.381  -7.470 -17.016  0.00  0.00     0.000 HD
ENDBRANCH   6   7
ENDBRANCH   5   6
BRANCH   5   9
HETATM    9  N           1     -29.565  -8.423 -18.297  0.00  0.00    -0.067 N 
HETATM   10  H           1     -29.367  -8.797 -17.342  0.00  0.00     0.275 HD
HETATM   11  H           1     -30.496  -8.771 -18.621  0.00  0.00     0.275 HD
HETATM   12  H           1     -28.824  -8.745 -18.959  0.00  0.00     0.275 HD
ENDBRANCH   5   9
ENDBRANCH   2   5
BRANCH   1  13
HETATM   13  C           1     -26.182  -6.739 -20.014  0.00  0.00     0.209 C 
BRANCH  13  14
HETATM   14  C           1     -25.093  -6.706 -18.949  0.00  0.00     0.200 C 
BRANCH  14  15
HETATM   15  O           1     -24.228  -7.795 -19.129  0.00  0.00    -0.398 OA
HETATM   16  H           1     -24.767  -8.545 -19.314  0.00  0.00     0.209 HD
ENDBRANCH  14  15
ENDBRANCH  13  14
BRANCH  13  17
HETATM   17  C           1     -25.749  -7.634 -21.149  0.00  0.00     0.198 C 
HETATM   18  O           1     -24.730  -7.352 -21.815  0.00  0.00    -0.646 OA
HETATM   19  O           1     -26.410  -8.660 -21.423  0.00  0.00    -0.646 OA
ENDBRANCH  13  17
ENDBRANCH   1  13
TORSDOF 8
ENDMDL
MODEL 7
REMARK VINA RESULT:      -4.8     14.553     16.065
REMARK  8 active torsions:
REMARK  status: ('A' for Active; 'I' for Inactive)
REMARK    1  A    between atoms: N_2  and  C_17 
REMARK       I    between atoms: N_2  and  C_3 
REMARK    2  A    between atoms: C_3  and  C_4 
REMARK    3  A    between atoms: C_4  and  C_5 
REMARK    4  A    between atoms: C_4  and  N_7 
REMARK    5  A    between atoms: C_5  and  Se_6 
REMARK    6  A    between atoms: O_15  and  C_16 
REMARK    7  A    between atoms: C_16  and  C_17 
REMARK    8  A    between atoms: C_17  and  C_18 
ROOT
HETATM    1  N           1     -21.194  -4.308  -9.031  0.00  0.00    -0.343 N 
HETATM    2  C           1     -20.898  -4.175 -10.361  0.00  0.00     0.249 C 
HETATM    3  O           1     -19.975  -4.790 -10.840  0.00  0.00    -0.271 OA
HETATM    4  H           1     -21.967  -3.794  -8.631  0.00  0.00     0.163 HD
ENDROOT
BRANCH   2   5
HETATM    5  C           1     -21.727  -3.261 -11.230  0.00  0.00     0.274 C 
BRANCH   5   6
HETATM    6  C           1     -23.190  -3.358 -10.821  0.00  0.00     0.045 C 
BRANCH   6   7
HETATM    7 Se           1     -24.321  -3.113 -12.389  0.00  0.00     0.000 Se
HETATM    8  H           1     -24.834  -4.493 -12.378  0.00  0.00     0.000 HD
ENDBRANCH   6   7
ENDBRANCH   5   6
BRANCH   5   9
HETATM    9  N           1     -21.581  -3.669 -12.666  0.00  0.00    -0.067 N 
HETATM   10  H           1     -22.510  -3.970 -13.039  0.00  0.00     0.275 HD
HETATM   11  H           1     -21.228  -2.859 -13.224  0.00  0.00     0.275 HD
HETATM   12  H           1     -20.904  -4.462 -12.736  0.00  0.00     0.275 HD
ENDBRANCH   5   9
ENDBRANCH   2   5
BRANCH   1  13
HETATM   13  C           1     -20.397  -5.187  -8.197  0.00  0.00     0.209 C 
BRANCH  13  14
HETATM   14  C           1     -19.278  -4.387  -7.541  0.00  0.00     0.200 C 
BRANCH  14  15
HETATM   15  O           1     -19.341  -4.548  -6.150  0.00  0.00    -0.398 OA
HETATM   16  H           1     -18.475  -4.781  -5.862  0.00  0.00     0.209 HD
ENDBRANCH  14  15
ENDBRANCH  13  14
BRANCH  13  17
HETATM   17  C           1     -21.272  -5.796  -7.129  0.00  0.00     0.198 C 
HETATM   18  O           1     -21.037  -6.950  -6.710  0.00  0.00    -0.646 OA
HETATM   19  O           1     -22.233  -5.146  -6.663  0.00  0.00    -0.646 OA
ENDBRANCH  13  17
ENDBRANCH   1  13
TORSDOF 8
ENDMDL
MODEL 8
REMARK VINA RESULT:      -4.6      9.750     10.540
REMARK  8 active torsions:
REMARK  status: ('A' for Active; 'I' for Inactive)
REMARK    1  A    between atoms: N_2  and  C_17 
REMARK       I    between atoms: N_2  and  C_3 
REMARK    2  A    between atoms: C_3  and  C_4 
REMARK    3  A    between atoms: C_4  and  C_5 
REMARK    4  A    between atoms: C_4  and  N_7 
REMARK    5  A    between atoms: C_5  and  Se_6 
REMARK    6  A    between atoms: O_15  and  C_16 
REMARK    7  A    between atoms: C_16  and  C_17 
REMARK    8  A    between atoms: C_17  and  C_18 
ROOT
HETATM    1  N           1     -27.578  -6.598 -17.011  0.00  0.00    -0.343 N 
HETATM    2  C           1     -26.439  -6.970 -16.349  0.00  0.00     0.249 C 
HETATM    3  O           1     -26.513  -7.491 -15.262  0.00  0.00    -0.271 OA
HETATM    4  H           1     -27.515  -6.163 -17.921  0.00  0.00     0.163 HD
ENDROOT
BRANCH   2   5
HETATM    5  C           1     -25.088  -6.729 -16.979  0.00  0.00     0.274 C 
BRANCH   5   6
HETATM    6  C           1     -25.245  -6.609 -18.489  0.00  0.00     0.045 C 
BRANCH   6   7
HETATM    7 Se           1     -23.720  -7.442 -19.369  0.00  0.00     0.000 Se
HETATM    8  H           1     -23.927  -6.741 -20.647  0.00  0.00     0.000 HD
ENDBRANCH   6   7
ENDBRANCH   5   6
BRANCH   5   9
HETATM    9  N           1     -24.177  -7.878 -16.662  0.00  0.00    -0.067 N 
HETATM   10  H           1     -24.652  -8.777 -16.902  0.00  0.00     0.275 HD
HETATM   11  H           1     -23.298  -7.788 -17.220  0.00  0.00     0.275 HD
HETATM   12  H           1     -23.945  -7.867 -15.643  0.00  0.00     0.275 HD
ENDBRANCH   5   9
ENDBRANCH   2   5
BRANCH   1  13
HETATM   13  C           1     -28.875  -6.830 -16.405  0.00  0.00     0.209 C 
BRANCH  13  14
HETATM   14  C           1     -29.051  -5.898 -15.213  0.00  0.00     0.200 C 
BRANCH  14  15
HETATM   15  O           1     -30.304  -5.273 -15.288  0.00  0.00    -0.398 OA
HETATM   16  H           1     -30.167  -4.432 -15.689  0.00  0.00     0.209 HD
ENDBRANCH  14  15
ENDBRANCH  13  14
BRANCH  13  17
HETATM   17  C           1     -29.959  -6.560 -17.419  0.00  0.00     0.198 C 
HETATM   18  O           1     -31.004  -7.246 -17.415  0.00  0.00    -0.646 OA
HETATM   19  O           1     -29.812  -5.650 -18.264  0.00  0.00    -0.646 OA
ENDBRANCH  13  17
ENDBRANCH   1  13
TORSDOF 8
ENDMDL
MODEL 9
REMARK VINA RESULT:      -4.6      3.486      4.797
REMARK  8 active torsions:
REMARK  status: ('A' for Active; 'I' for Inactive)
REMARK    1  A    between atoms: N_2  and  C_17 
REMARK       I    between atoms: N_2  and  C_3 
REMARK    2  A    between atoms: C_3  and  C_4 
REMARK    3  A    between atoms: C_4  and  C_5 
REMARK    4  A    between atoms: C_4  and  N_7 
REMARK    5  A    between atoms: C_5  and  Se_6 
REMARK    6  A    between atoms: O_15  and  C_16 
REMARK    7  A    between atoms: C_16  and  C_17 
REMARK    8  A    between atoms: C_17  and  C_18 
ROOT
HETATM    1  N           1     -35.539  -1.935 -12.090  0.00  0.00    -0.343 N 
HETATM    2  C           1     -35.626  -0.573 -12.196  0.00  0.00     0.249 C 
HETATM    3  O           1     -34.623   0.088 -12.333  0.00  0.00    -0.271 OA
HETATM    4  H           1     -36.379  -2.487 -11.976  0.00  0.00     0.163 HD
ENDROOT
BRANCH   2   5
HETATM    5  C           1     -36.973   0.104 -12.144  0.00  0.00     0.274 C 
BRANCH   5   6
HETATM    6  C           1     -37.733  -0.370 -10.912  0.00  0.00     0.045 C 
BRANCH   6   7
HETATM    7 Se           1     -37.367   0.829  -9.420  0.00  0.00     0.000 Se
HETATM    8  H           1     -36.934   1.947 -10.275  0.00  0.00     0.000 HD
ENDBRANCH   6   7
ENDBRANCH   5   6
BRANCH   5   9
HETATM    9  N           1     -37.755  -0.243 -13.376  0.00  0.00    -0.067 N 
HETATM   10  H           1     -37.146  -0.773 -14.039  0.00  0.00     0.275 HD
HETATM   11  H           1     -38.577  -0.832 -13.112  0.00  0.00     0.275 HD
HETATM   12  H           1     -38.089   0.634 -13.835  0.00  0.00     0.275 HD
ENDBRANCH   5   9
ENDBRANCH   2   5
BRANCH   1  13
HETATM   13  C           1     -34.244  -2.584 -12.141  0.00  0.00     0.209 C 
BRANCH  13  14
HETATM   14  C           1     -33.794  -2.930 -10.727  0.00  0.00     0.200 C 
BRANCH  14  15
HETATM   15  O           1     -33.569  -1.750 -10.005  0.00  0.00    -0.398 OA
HETATM   16  H           1     -32.699  -1.808  -9.649  0.00  0.00     0.209 HD
ENDBRANCH  14  15
ENDBRANCH  13  14
BRANCH  13  17
HETATM   17  C           1     -34.346  -3.848 -12.959  0.00  0.00     0.198 C 
HETATM   18  O           1     -34.599  -4.937 -12.400  0.00  0.00    -0.646 OA
HETATM   19  O           1     -34.178  -3.805 -14.198  0.00  0.00    -0.646 OA
ENDBRANCH  13  17
ENDBRANCH   1  13
TORSDOF 8
ENDMDL
