MODEL 1
REMARK VINA RESULT:      -6.7      0.000      0.000
REMARK  8 active torsions:
REMARK  status: ('A' for Active; 'I' for Inactive)
REMARK       I    between atoms: C_2  and  N_11 
REMARK    1  A    between atoms: C_2  and  C_12 
REMARK    2  A    between atoms: N_5  and  C_22 
REMARK       I    between atoms: N_5  and  C_23 
REMARK    3  A    between atoms: C_6  and  C_7 
REMARK    4  A    between atoms: C_6  and  C_19 
REMARK    5  A    between atoms: C_7  and  C_23 
REMARK    6  A    between atoms: C_7  and  N_14 
REMARK    7  A    between atoms: C_12  and  C_22 
REMARK    8  A    between atoms: C_21  and  C_22 
ROOT
HETATM    1  H           1     -24.228  -4.737  -8.545  0.00  0.00     0.163 HD
HETATM    2  N           1     -23.389  -4.252  -8.837  0.00  0.00    -0.344 N 
HETATM    3  O           1     -21.319  -3.582  -8.333  0.00  0.00    -0.271 OA
HETATM    4  C           1     -22.320  -4.161  -7.985  0.00  0.00     0.249 C 
ENDROOT
BRANCH   2   5
HETATM    5  C           1     -23.319  -3.654 -10.156  0.00  0.00     0.194 C 
BRANCH   5   6
HETATM    6  C           1     -22.724  -4.655 -11.136  0.00  0.00     0.138 C 
BRANCH   6   7
HETATM    7  C           1     -21.642  -3.986 -11.947  0.00  0.00     0.217 C 
HETATM    8  O           1     -20.511  -3.941 -11.524  0.00  0.00    -0.274 OA
HETATM    9  N           1     -21.941  -3.428 -13.160  0.00  0.00    -0.370 N 
HETATM   10  H           1     -22.889  -3.465 -13.514  0.00  0.00     0.159 HD
HETATM   11  H           1     -21.215  -2.979 -13.704  0.00  0.00     0.159 HD
ENDBRANCH   6   7
ENDBRANCH   5   6
BRANCH   5  12
HETATM   12  C           1     -24.707  -3.270 -10.607  0.00  0.00     0.197 C 
HETATM   13  O           1     -24.940  -3.085 -11.822  0.00  0.00    -0.646 OA
HETATM   14  O           1     -25.623  -3.138  -9.768  0.00  0.00    -0.646 OA
ENDBRANCH   5  12
ENDBRANCH   2   5
BRANCH   4  15
HETATM   15  C           1     -22.393  -4.784  -6.613  0.00  0.00     0.275 C 
BRANCH  15  16
HETATM   16  C           1     -21.591  -6.079  -6.599  0.00  0.00     0.046 C 
BRANCH  16  17
HETATM   17  C           1     -20.607  -6.055  -5.436  0.00  0.00    -0.020 C 
HETATM   18  C           1     -21.328  -6.456  -4.155  0.00  0.00     0.009 C 
HETATM   19  C           1     -20.040  -4.650  -5.280  0.00  0.00     0.009 C 
ENDBRANCH  16  17
ENDBRANCH  15  16
BRANCH  15  20
HETATM   20  N           1     -23.825  -5.079  -6.275  0.00  0.00    -0.066 N 
HETATM   21  H           1     -24.040  -4.712  -5.321  0.00  0.00     0.275 HD
HETATM   22  H           1     -23.981  -6.112  -6.295  0.00  0.00     0.275 HD
HETATM   23  H           1     -24.450  -4.619  -6.975  0.00  0.00     0.275 HD
ENDBRANCH  15  20
ENDBRANCH   4  15
TORSDOF 8
ENDMDL
MODEL 2
REMARK VINA RESULT:      -6.4      1.605      1.949
REMARK  8 active torsions:
REMARK  status: ('A' for Active; 'I' for Inactive)
REMARK       I    between atoms: C_2  and  N_11 
REMARK    1  A    between atoms: C_2  and  C_12 
REMARK    2  A    between atoms: N_5  and  C_22 
REMARK       I    between atoms: N_5  and  C_23 
REMARK    3  A    between atoms: C_6  and  C_7 
REMARK    4  A    between atoms: C_6  and  C_19 
REMARK    5  A    between atoms: C_7  and  C_23 
REMARK    6  A    between atoms: C_7  and  N_14 
REMARK    7  A    between atoms: C_12  and  C_22 
REMARK    8  A    between atoms: C_21  and  C_22 
ROOT
HETATM    1  H           1     -22.488  -5.941  -9.125  0.00  0.00     0.163 HD
HETATM    2  N           1     -22.322  -4.988  -8.826  0.00  0.00    -0.344 N 
HETATM    3  O           1     -21.452  -3.608  -7.301  0.00  0.00    -0.271 OA
HETATM    4  C           1     -21.649  -4.745  -7.659  0.00  0.00     0.249 C 
ENDROOT
BRANCH   2   5
HETATM    5  C           1     -22.797  -3.882  -9.634  0.00  0.00     0.194 C 
BRANCH   5   6
HETATM    6  C           1     -22.287  -4.039 -11.060  0.00  0.00     0.138 C 
BRANCH   6   7
HETATM    7  C           1     -20.787  -3.872 -11.080  0.00  0.00     0.217 C 
HETATM    8  O           1     -20.074  -4.786 -10.741  0.00  0.00    -0.274 OA
HETATM    9  N           1     -20.236  -2.686 -11.481  0.00  0.00    -0.370 N 
HETATM   10  H           1     -20.834  -1.920 -11.764  0.00  0.00     0.159 HD
HETATM   11  H           1     -19.229  -2.574 -11.494  0.00  0.00     0.159 HD
ENDBRANCH   6   7
ENDBRANCH   5   6
BRANCH   5  12
HETATM   12  C           1     -24.307  -3.874  -9.638  0.00  0.00     0.197 C 
HETATM   13  O           1     -24.936  -4.944  -9.786  0.00  0.00    -0.646 OA
HETATM   14  O           1     -24.926  -2.799  -9.492  0.00  0.00    -0.646 OA
ENDBRANCH   5  12
ENDBRANCH   2   5
BRANCH   4  15
HETATM   15  C           1     -21.155  -5.897  -6.818  0.00  0.00     0.275 C 
BRANCH  15  16
HETATM   16  C           1     -21.046  -5.455  -5.365  0.00  0.00     0.046 C 
BRANCH  16  17
HETATM   17  C           1     -21.904  -6.363  -4.493  0.00  0.00    -0.020 C 
HETATM   18  C           1     -21.499  -6.194  -3.034  0.00  0.00     0.009 C 
HETATM   19  C           1     -21.697  -7.813  -4.911  0.00  0.00     0.009 C 
ENDBRANCH  16  17
ENDBRANCH  15  16
BRANCH  15  20
HETATM   20  N           1     -19.806  -6.330  -7.311  0.00  0.00    -0.066 N 
HETATM   21  H           1     -19.071  -6.014  -6.639  0.00  0.00     0.275 HD
HETATM   22  H           1     -19.626  -5.908  -8.249  0.00  0.00     0.275 HD
HETATM   23  H           1     -19.782  -7.373  -7.388  0.00  0.00     0.275 HD
ENDBRANCH  15  20
ENDBRANCH   4  15
TORSDOF 8
ENDMDL
MODEL 3
REMARK VINA RESULT:      -6.0      2.255      5.952
REMARK  8 active torsions:
REMARK  status: ('A' for Active; 'I' for Inactive)
REMARK       I    between atoms: C_2  and  N_11 
REMARK    1  A    between atoms: C_2  and  C_12 
REMARK    2  A    between atoms: N_5  and  C_22 
REMARK       I    between atoms: N_5  and  C_23 
REMARK    3  A    between atoms: C_6  and  C_7 
REMARK    4  A    between atoms: C_6  and  C_19 
REMARK    5  A    between atoms: C_7  and  C_23 
REMARK    6  A    between atoms: C_7  and  N_14 
REMARK    7  A    between atoms: C_12  and  C_22 
REMARK    8  A    between atoms: C_21  and  C_22 
ROOT
HETATM    1  H           1     -22.138  -6.095  -9.119  0.00  0.00     0.163 HD
HETATM    2  N           1     -22.174  -5.224  -8.605  0.00  0.00    -0.344 N 
HETATM    3  O           1     -23.214  -3.281  -8.243  0.00  0.00    -0.271 OA
HETATM    4  C           1     -23.173  -4.321  -8.856  0.00  0.00     0.249 C 
ENDROOT
BRANCH   2   5
HETATM    5  C           1     -21.166  -4.932  -7.603  0.00  0.00     0.194 C 
BRANCH   5   6
HETATM    6  C           1     -21.021  -6.124  -6.668  0.00  0.00     0.138 C 
BRANCH   6   7
HETATM    7  C           1     -21.902  -5.927  -5.459  0.00  0.00     0.217 C 
HETATM    8  O           1     -23.097  -5.814  -5.595  0.00  0.00    -0.274 OA
HETATM    9  N           1     -21.348  -5.876  -4.209  0.00  0.00    -0.370 N 
HETATM   10  H           1     -20.347  -5.970  -4.095  0.00  0.00     0.159 HD
HETATM   11  H           1     -21.940  -5.743  -3.398  0.00  0.00     0.159 HD
ENDBRANCH   6   7
ENDBRANCH   5   6
BRANCH   5  12
HETATM   12  C           1     -19.847  -4.661  -8.283  0.00  0.00     0.197 C 
HETATM   13  O           1     -19.763  -4.715  -9.529  0.00  0.00    -0.646 OA
HETATM   14  O           1     -18.837  -4.383  -7.600  0.00  0.00    -0.646 OA
ENDBRANCH   5  12
ENDBRANCH   2   5
BRANCH   4  15
HETATM   15  C           1     -24.221  -4.626  -9.898  0.00  0.00     0.275 C 
BRANCH  15  16
HETATM   16  C           1     -23.598  -4.542 -11.285  0.00  0.00     0.046 C 
BRANCH  16  17
HETATM   17  C           1     -23.352  -3.082 -11.644  0.00  0.00    -0.020 C 
HETATM   18  C           1     -24.001  -2.775 -12.987  0.00  0.00     0.009 C 
HETATM   19  C           1     -21.853  -2.826 -11.735  0.00  0.00     0.009 C 
ENDBRANCH  16  17
ENDBRANCH  15  16
BRANCH  15  20
HETATM   20  N           1     -25.336  -3.628  -9.790  0.00  0.00    -0.066 N 
HETATM   21  H           1     -26.240  -4.087 -10.044  0.00  0.00     0.275 HD
HETATM   22  H           1     -25.154  -2.831 -10.440  0.00  0.00     0.275 HD
HETATM   23  H           1     -25.390  -3.272  -8.808  0.00  0.00     0.275 HD
ENDBRANCH  15  20
ENDBRANCH   4  15
TORSDOF 8
ENDMDL
MODEL 4
REMARK VINA RESULT:      -5.8      3.355      5.585
REMARK  8 active torsions:
REMARK  status: ('A' for Active; 'I' for Inactive)
REMARK       I    between atoms: C_2  and  N_11 
REMARK    1  A    between atoms: C_2  and  C_12 
REMARK    2  A    between atoms: N_5  and  C_22 
REMARK       I    between atoms: N_5  and  C_23 
REMARK    3  A    between atoms: C_6  and  C_7 
REMARK    4  A    between atoms: C_6  and  C_19 
REMARK    5  A    between atoms: C_7  and  C_23 
REMARK    6  A    between atoms: C_7  and  N_14 
REMARK    7  A    between atoms: C_12  and  C_22 
REMARK    8  A    between atoms: C_21  and  C_22 
ROOT
HETATM    1  H           1     -20.590  -4.623  -4.552  0.00  0.00     0.163 HD
HETATM    2  N           1     -20.965  -5.475  -4.948  0.00  0.00    -0.344 N 
HETATM    3  O           1     -21.801  -7.516  -4.598  0.00  0.00    -0.271 OA
HETATM    4  C           1     -21.354  -6.499  -4.125  0.00  0.00     0.249 C 
ENDROOT
BRANCH   2   5
HETATM    5  C           1     -21.090  -5.613  -6.386  0.00  0.00     0.194 C 
BRANCH   5   6
HETATM    6  C           1     -21.680  -4.335  -6.968  0.00  0.00     0.138 C 
BRANCH   6   7
HETATM    7  C           1     -23.177  -4.483  -7.095  0.00  0.00     0.217 C 
HETATM    8  O           1     -23.807  -5.023  -6.217  0.00  0.00    -0.274 OA
HETATM    9  N           1     -23.820  -4.006  -8.205  0.00  0.00    -0.370 N 
HETATM   10  H           1     -23.292  -3.554  -8.940  0.00  0.00     0.159 HD
HETATM   11  H           1     -24.824  -4.106  -8.290  0.00  0.00     0.159 HD
ENDBRANCH   6   7
ENDBRANCH   5   6
BRANCH   5  12
HETATM   12  C           1     -19.728  -5.858  -6.988  0.00  0.00     0.197 C 
HETATM   13  O           1     -19.097  -4.914  -7.511  0.00  0.00    -0.646 OA
HETATM   14  O           1     -19.231  -7.005  -6.963  0.00  0.00    -0.646 OA
ENDBRANCH   5  12
ENDBRANCH   2   5
BRANCH   4  15
HETATM   15  C           1     -21.223  -6.355  -2.629  0.00  0.00     0.275 C 
BRANCH  15  16
HETATM   16  C           1     -20.789  -7.685  -2.027  0.00  0.00     0.046 C 
BRANCH  16  17
HETATM   17  C           1     -21.887  -8.211  -1.111  0.00  0.00    -0.020 C 
HETATM   18  C           1     -21.382  -8.227   0.326  0.00  0.00     0.009 C 
HETATM   19  C           1     -22.265  -9.625  -1.532  0.00  0.00     0.009 C 
ENDBRANCH  16  17
ENDBRANCH  15  16
BRANCH  15  20
HETATM   20  N           1     -22.547  -5.953  -2.049  0.00  0.00    -0.066 N 
HETATM   21  H           1     -23.252  -5.870  -2.815  0.00  0.00     0.275 HD
HETATM   22  H           1     -22.449  -5.032  -1.564  0.00  0.00     0.275 HD
HETATM   23  H           1     -22.861  -6.676  -1.363  0.00  0.00     0.275 HD
ENDBRANCH  15  20
ENDBRANCH   4  15
TORSDOF 8
ENDMDL
MODEL 5
REMARK VINA RESULT:      -5.5      3.737      7.081
REMARK  8 active torsions:
REMARK  status: ('A' for Active; 'I' for Inactive)
REMARK       I    between atoms: C_2  and  N_11 
REMARK    1  A    between atoms: C_2  and  C_12 
REMARK    2  A    between atoms: N_5  and  C_22 
REMARK       I    between atoms: N_5  and  C_23 
REMARK    3  A    between atoms: C_6  and  C_7 
REMARK    4  A    between atoms: C_6  and  C_19 
REMARK    5  A    between atoms: C_7  and  C_23 
REMARK    6  A    between atoms: C_7  and  N_14 
REMARK    7  A    between atoms: C_12  and  C_22 
REMARK    8  A    between atoms: C_21  and  C_22 
ROOT
HETATM    1  H           1     -21.843  -7.194  -6.741  0.00  0.00     0.163 HD
HETATM    2  N           1     -21.291  -6.703  -6.050  0.00  0.00    -0.344 N 
HETATM    3  O           1     -20.417  -4.770  -5.351  0.00  0.00    -0.271 OA
HETATM    4  C           1     -21.077  -5.356  -6.175  0.00  0.00     0.249 C 
ENDROOT
BRANCH   2   5
HETATM    5  C           1     -20.725  -7.426  -4.928  0.00  0.00     0.194 C 
BRANCH   5   6
HETATM    6  C           1     -21.823  -7.740  -3.921  0.00  0.00     0.138 C 
BRANCH   6   7
HETATM    7  C           1     -21.560  -6.992  -2.637  0.00  0.00     0.217 C 
HETATM    8  O           1     -20.670  -7.349  -1.902  0.00  0.00    -0.274 OA
HETATM    9  N           1     -22.328  -5.909  -2.306  0.00  0.00    -0.370 N 
HETATM   10  H           1     -23.073  -5.610  -2.922  0.00  0.00     0.159 HD
HETATM   11  H           1     -22.151  -5.407  -1.445  0.00  0.00     0.159 HD
ENDBRANCH   6   7
ENDBRANCH   5   6
BRANCH   5  12
HETATM   12  C           1     -20.109  -8.713  -5.419  0.00  0.00     0.197 C 
HETATM   13  O           1     -18.883  -8.767  -5.661  0.00  0.00    -0.646 OA
HETATM   14  O           1     -20.824  -9.725  -5.584  0.00  0.00    -0.646 OA
ENDBRANCH   5  12
ENDBRANCH   2   5
BRANCH   4  15
HETATM   15  C           1     -21.667  -4.604  -7.343  0.00  0.00     0.275 C 
BRANCH  15  16
HETATM   16  C           1     -20.863  -4.908  -8.601  0.00  0.00     0.046 C 
BRANCH  16  17
HETATM   17  C           1     -21.410  -4.090  -9.764  0.00  0.00    -0.020 C 
HETATM   18  C           1     -22.780  -4.626 -10.160  0.00  0.00     0.009 C 
HETATM   19  C           1     -20.461  -4.195 -10.950  0.00  0.00     0.009 C 
ENDBRANCH  16  17
ENDBRANCH  15  16
BRANCH  15  20
HETATM   20  N           1     -21.618  -3.131  -7.063  0.00  0.00    -0.066 N 
HETATM   21  H           1     -21.657  -2.971  -6.032  0.00  0.00     0.275 HD
HETATM   22  H           1     -22.432  -2.663  -7.520  0.00  0.00     0.275 HD
HETATM   23  H           1     -20.729  -2.733  -7.444  0.00  0.00     0.275 HD
ENDBRANCH  15  20
ENDBRANCH   4  15
TORSDOF 8
ENDMDL
MODEL 6
REMARK VINA RESULT:      -5.5      5.235      8.470
REMARK  8 active torsions:
REMARK  status: ('A' for Active; 'I' for Inactive)
REMARK       I    between atoms: C_2  and  N_11 
REMARK    1  A    between atoms: C_2  and  C_12 
REMARK    2  A    between atoms: N_5  and  C_22 
REMARK       I    between atoms: N_5  and  C_23 
REMARK    3  A    between atoms: C_6  and  C_7 
REMARK    4  A    between atoms: C_6  and  C_19 
REMARK    5  A    between atoms: C_7  and  C_23 
REMARK    6  A    between atoms: C_7  and  N_14 
REMARK    7  A    between atoms: C_12  and  C_22 
REMARK    8  A    between atoms: C_21  and  C_22 
ROOT
HETATM    1  H           1     -22.289  -7.254  -3.077  0.00  0.00     0.163 HD
HETATM    2  N           1     -21.413  -7.711  -3.297  0.00  0.00    -0.344 N 
HETATM    3  O           1     -19.713  -7.956  -4.724  0.00  0.00    -0.271 OA
HETATM    4  C           1     -20.757  -7.409  -4.461  0.00  0.00     0.249 C 
ENDROOT
BRANCH   2   5
HETATM    5  C           1     -20.855  -8.687  -2.381  0.00  0.00     0.194 C 
BRANCH   5   6
HETATM    6  C           1     -20.857  -8.116  -0.969  0.00  0.00     0.138 C 
BRANCH   6   7
HETATM    7  C           1     -22.233  -7.591  -0.640  0.00  0.00     0.217 C 
HETATM    8  O           1     -22.584  -6.514  -1.060  0.00  0.00    -0.274 OA
HETATM    9  N           1     -23.082  -8.334   0.134  0.00  0.00    -0.370 N 
HETATM   10  H           1     -22.787  -9.235   0.486  0.00  0.00     0.159 HD
HETATM   11  H           1     -24.005  -7.981   0.355  0.00  0.00     0.159 HD
ENDBRANCH   6   7
ENDBRANCH   5   6
BRANCH   5  12
HETATM   12  C           1     -21.689  -9.944  -2.417  0.00  0.00     0.197 C 
HETATM   13  O           1     -21.691 -10.720  -1.437  0.00  0.00    -0.646 OA
HETATM   14  O           1     -22.376 -10.209  -3.427  0.00  0.00    -0.646 OA
ENDBRANCH   5  12
ENDBRANCH   2   5
BRANCH   4  15
HETATM   15  C           1     -21.339  -6.394  -5.414  0.00  0.00     0.275 C 
BRANCH  15  16
HETATM   16  C           1     -20.576  -5.082  -5.286  0.00  0.00     0.046 C 
BRANCH  16  17
HETATM   17  C           1     -20.213  -4.568  -6.673  0.00  0.00    -0.020 C 
HETATM   18  C           1     -21.297  -3.614  -7.159  0.00  0.00     0.009 C 
HETATM   19  C           1     -20.100  -5.742  -7.637  0.00  0.00     0.009 C 
ENDBRANCH  16  17
ENDBRANCH  15  16
BRANCH  15  20
HETATM   20  N           1     -22.783  -6.167  -5.080  0.00  0.00    -0.066 N 
HETATM   21  H           1     -22.869  -5.339  -4.449  0.00  0.00     0.275 HD
HETATM   22  H           1     -23.167  -7.012  -4.600  0.00  0.00     0.275 HD
HETATM   23  H           1     -23.320  -5.992  -5.960  0.00  0.00     0.275 HD
ENDBRANCH  15  20
ENDBRANCH   4  15
TORSDOF 8
ENDMDL
MODEL 7
REMARK VINA RESULT:      -5.5      3.937      6.962
REMARK  8 active torsions:
REMARK  status: ('A' for Active; 'I' for Inactive)
REMARK       I    between atoms: C_2  and  N_11 
REMARK    1  A    between atoms: C_2  and  C_12 
REMARK    2  A    between atoms: N_5  and  C_22 
REMARK       I    between atoms: N_5  and  C_23 
REMARK    3  A    between atoms: C_6  and  C_7 
REMARK    4  A    between atoms: C_6  and  C_19 
REMARK    5  A    between atoms: C_7  and  C_23 
REMARK    6  A    between atoms: C_7  and  N_14 
REMARK    7  A    between atoms: C_12  and  C_22 
REMARK    8  A    between atoms: C_21  and  C_22 
ROOT
HETATM    1  H           1     -19.912  -6.417  -4.676  0.00  0.00     0.163 HD
HETATM    2  N           1     -20.917  -6.542  -4.669  0.00  0.00    -0.344 N 
HETATM    3  O           1     -22.903  -5.947  -5.498  0.00  0.00    -0.271 OA
HETATM    4  C           1     -21.704  -5.799  -5.507  0.00  0.00     0.249 C 
ENDROOT
BRANCH   2   5
HETATM    5  C           1     -21.521  -7.506  -3.770  0.00  0.00     0.194 C 
BRANCH   5   6
HETATM    6  C           1     -20.662  -8.762  -3.722  0.00  0.00     0.138 C 
BRANCH   6   7
HETATM    7  C           1     -20.243  -9.141  -5.122  0.00  0.00     0.217 C 
HETATM    8  O           1     -19.254  -8.648  -5.610  0.00  0.00    -0.274 OA
HETATM    9  N           1     -20.984 -10.041  -5.838  0.00  0.00    -0.370 N 
HETATM   10  H           1     -21.813 -10.453  -5.429  0.00  0.00     0.159 HD
HETATM   11  H           1     -20.704 -10.295  -6.777  0.00  0.00     0.159 HD
ENDBRANCH   6   7
ENDBRANCH   5   6
BRANCH   5  12
HETATM   12  C           1     -21.620  -6.910  -2.387  0.00  0.00     0.197 C 
HETATM   13  O           1     -20.989  -7.426  -1.438  0.00  0.00    -0.646 OA
HETATM   14  O           1     -22.332  -5.902  -2.190  0.00  0.00    -0.646 OA
ENDBRANCH   5  12
ENDBRANCH   2   5
BRANCH   4  15
HETATM   15  C           1     -21.075  -4.795  -6.442  0.00  0.00     0.275 C 
BRANCH  15  16
HETATM   16  C           1     -21.281  -5.244  -7.883  0.00  0.00     0.046 C 
BRANCH  16  17
HETATM   17  C           1     -21.718  -4.054  -8.728  0.00  0.00    -0.020 C 
HETATM   18  C           1     -23.235  -4.060  -8.865  0.00  0.00     0.009 C 
HETATM   19  C           1     -21.083  -4.152 -10.109  0.00  0.00     0.009 C 
ENDBRANCH  16  17
ENDBRANCH  15  16
BRANCH  15  20
HETATM   20  N           1     -19.606  -4.698  -6.154  0.00  0.00    -0.066 N 
HETATM   21  H           1     -19.158  -5.628  -6.314  0.00  0.00     0.275 HD
HETATM   22  H           1     -19.464  -4.409  -5.160  0.00  0.00     0.275 HD
HETATM   23  H           1     -19.173  -3.989  -6.789  0.00  0.00     0.275 HD
ENDBRANCH  15  20
ENDBRANCH   4  15
TORSDOF 8
ENDMDL
MODEL 8
REMARK VINA RESULT:      -5.4      2.511      4.434
REMARK  8 active torsions:
REMARK  status: ('A' for Active; 'I' for Inactive)
REMARK       I    between atoms: C_2  and  N_11 
REMARK    1  A    between atoms: C_2  and  C_12 
REMARK    2  A    between atoms: N_5  and  C_22 
REMARK       I    between atoms: N_5  and  C_23 
REMARK    3  A    between atoms: C_6  and  C_7 
REMARK    4  A    between atoms: C_6  and  C_19 
REMARK    5  A    between atoms: C_7  and  C_23 
REMARK    6  A    between atoms: C_7  and  N_14 
REMARK    7  A    between atoms: C_12  and  C_22 
REMARK    8  A    between atoms: C_21  and  C_22 
ROOT
HETATM    1  H           1     -21.177  -4.384  -5.503  0.00  0.00     0.163 HD
HETATM    2  N           1     -21.216  -5.185  -6.120  0.00  0.00    -0.344 N 
HETATM    3  O           1     -21.227  -7.408  -6.337  0.00  0.00    -0.271 OA
HETATM    4  C           1     -21.182  -6.452  -5.600  0.00  0.00     0.249 C 
ENDROOT
BRANCH   2   5
HETATM    5  C           1     -21.307  -4.992  -7.554  0.00  0.00     0.194 C 
BRANCH   5   6
HETATM    6  C           1     -22.177  -3.776  -7.848  0.00  0.00     0.138 C 
BRANCH   6   7
HETATM    7  C           1     -23.226  -4.142  -8.868  0.00  0.00     0.217 C 
HETATM    8  O           1     -22.968  -4.935  -9.742  0.00  0.00    -0.274 OA
HETATM    9  N           1     -24.470  -3.575  -8.805  0.00  0.00    -0.370 N 
HETATM   10  H           1     -24.686  -2.910  -8.073  0.00  0.00     0.159 HD
HETATM   11  H           1     -25.174  -3.820  -9.490  0.00  0.00     0.159 HD
ENDBRANCH   6   7
ENDBRANCH   5   6
BRANCH   5  12
HETATM   12  C           1     -19.926  -4.771  -8.120  0.00  0.00     0.197 C 
HETATM   13  O           1     -19.743  -4.814  -9.356  0.00  0.00    -0.646 OA
HETATM   14  O           1     -18.965  -4.545  -7.353  0.00  0.00    -0.646 OA
ENDBRANCH   5  12
ENDBRANCH   2   5
BRANCH   4  15
HETATM   15  C           1     -21.087  -6.653  -4.108  0.00  0.00     0.275 C 
BRANCH  15  16
HETATM   16  C           1     -20.976  -8.141  -3.801  0.00  0.00     0.046 C 
BRANCH  16  17
HETATM   17  C           1     -20.223  -8.335  -2.492  0.00  0.00    -0.020 C 
HETATM   18  C           1     -19.040  -9.268  -2.722  0.00  0.00     0.009 C 
HETATM   19  C           1     -21.156  -8.945  -1.454  0.00  0.00     0.009 C 
ENDBRANCH  16  17
ENDBRANCH  15  16
BRANCH  15  20
HETATM   20  N           1     -22.315  -6.098  -3.451  0.00  0.00    -0.066 N 
HETATM   21  H           1     -22.133  -5.116  -3.144  0.00  0.00     0.275 HD
HETATM   22  H           1     -22.561  -6.683  -2.621  0.00  0.00     0.275 HD
HETATM   23  H           1     -23.109  -6.108  -4.132  0.00  0.00     0.275 HD
ENDBRANCH  15  20
ENDBRANCH   4  15
TORSDOF 8
ENDMDL
MODEL 9
REMARK VINA RESULT:      -5.3      6.649      8.567
REMARK  8 active torsions:
REMARK  status: ('A' for Active; 'I' for Inactive)
REMARK       I    between atoms: C_2  and  N_11 
REMARK    1  A    between atoms: C_2  and  C_12 
REMARK    2  A    between atoms: N_5  and  C_22 
REMARK       I    between atoms: N_5  and  C_23 
REMARK    3  A    between atoms: C_6  and  C_7 
REMARK    4  A    between atoms: C_6  and  C_19 
REMARK    5  A    between atoms: C_7  and  C_23 
REMARK    6  A    between atoms: C_7  and  N_14 
REMARK    7  A    between atoms: C_12  and  C_22 
REMARK    8  A    between atoms: C_21  and  C_22 
ROOT
HETATM    1  H           1     -22.754  -8.370  -1.793  0.00  0.00     0.163 HD
HETATM    2  N           1     -21.785  -8.525  -2.041  0.00  0.00    -0.344 N 
HETATM    3  O           1     -19.860  -9.564  -1.591  0.00  0.00    -0.271 OA
HETATM    4  C           1     -21.017  -9.380  -1.296  0.00  0.00     0.249 C 
ENDROOT
BRANCH   2   5
HETATM    5  C           1     -21.211  -7.842  -3.183  0.00  0.00     0.194 C 
BRANCH   5   6
HETATM    6  C           1     -21.593  -8.579  -4.460  0.00  0.00     0.138 C 
BRANCH   6   7
HETATM    7  C           1     -20.372  -9.245  -5.043  0.00  0.00     0.217 C 
HETATM    8  O           1     -20.493 -10.069  -5.919  0.00  0.00    -0.274 OA
HETATM    9  N           1     -19.127  -8.918  -4.580  0.00  0.00    -0.370 N 
HETATM   10  H           1     -19.025  -8.228  -3.847  0.00  0.00     0.159 HD
HETATM   11  H           1     -18.307  -9.365  -4.972  0.00  0.00     0.159 HD
ENDBRANCH   6   7
ENDBRANCH   5   6
BRANCH   5  12
HETATM   12  C           1     -21.737  -6.429  -3.240  0.00  0.00     0.197 C 
HETATM   13  O           1     -21.543  -5.730  -4.259  0.00  0.00    -0.646 OA
HETATM   14  O           1     -22.367  -5.957  -2.269  0.00  0.00    -0.646 OA
ENDBRANCH   5  12
ENDBRANCH   2   5
BRANCH   4  15
HETATM   15  C           1     -21.616 -10.092  -0.107  0.00  0.00     0.275 C 
BRANCH  15  16
HETATM   16  C           1     -23.100  -9.764  -0.013  0.00  0.00     0.046 C 
BRANCH  16  17
HETATM   17  C           1     -23.914 -11.037  -0.203  0.00  0.00    -0.020 C 
HETATM   18  C           1     -23.283 -12.166   0.602  0.00  0.00     0.009 C 
HETATM   19  C           1     -23.932 -11.414  -1.679  0.00  0.00     0.009 C 
ENDBRANCH  16  17
ENDBRANCH  15  16
BRANCH  15  20
HETATM   20  N           1     -20.924  -9.639   1.144  0.00  0.00    -0.066 N 
HETATM   21  H           1     -21.516  -8.931   1.633  0.00  0.00     0.275 HD
HETATM   22  H           1     -20.002  -9.213   0.898  0.00  0.00     0.275 HD
HETATM   23  H           1     -20.771 -10.460   1.774  0.00  0.00     0.275 HD
ENDBRANCH  15  20
ENDBRANCH   4  15
TORSDOF 8
ENDMDL
