MODEL 1
REMARK VINA RESULT:      -5.2      0.000      0.000
REMARK  9 active torsions:
REMARK  status: ('A' for Active; 'I' for Inactive)
REMARK    1  A    between atoms: N_2  and  C_5 
REMARK    2  A    between atoms: C_5  and  C_8 
REMARK    3  A    between atoms: C_5  and  C_12 
REMARK    4  A    between atoms: N_6  and  C_7 
REMARK       I    between atoms: N_6  and  C_8 
REMARK    5  A    between atoms: C_7  and  C_16 
REMARK    6  A    between atoms: C_7  and  C_13 
REMARK    7  A    between atoms: S_11  and  C_14 
REMARK    8  A    between atoms: C_12  and  C_14 
REMARK    9  A    between atoms: Se_15  and  C_16 
ROOT
HETATM    1  H           1     -22.279  -5.649  -9.475  0.00  0.00     0.163 HD
HETATM    2  O           1     -21.907  -3.601  -7.128  0.00  0.00    -0.271 OA
HETATM    3  N           1     -22.338  -4.766  -8.983  0.00  0.00    -0.345 N 
HETATM    4  C           1     -21.837  -4.655  -7.714  0.00  0.00     0.249 C 
ENDROOT
BRANCH   4   5
HETATM    5  C           1     -21.196  -5.848  -7.048  0.00  0.00     0.275 C 
BRANCH   5   6
HETATM    6  N           1     -19.810  -6.037  -7.589  0.00  0.00    -0.066 N 
HETATM    7  H           1     -19.254  -5.166  -7.434  0.00  0.00     0.275 HD
HETATM    8  H           1     -19.350  -6.835  -7.096  0.00  0.00     0.275 HD
HETATM    9  H           1     -19.861  -6.242  -8.612  0.00  0.00     0.275 HD
ENDBRANCH   5   6
BRANCH   5  10
HETATM   10  C           1     -21.126  -5.614  -5.545  0.00  0.00     0.053 C 
BRANCH  10  11
HETATM   11  C           1     -22.099  -6.550  -4.839  0.00  0.00     0.076 C 
BRANCH  11  12
HETATM   12  S           1     -21.295  -7.272  -3.381  0.00  0.00    -0.173 SA
HETATM   13  C           1     -22.083  -6.184  -2.160  0.00  0.00     0.089 C 
ENDBRANCH  11  12
ENDBRANCH  10  11
ENDBRANCH   5  10
ENDBRANCH   4   5
BRANCH   3  14
HETATM   14  C           1     -22.954  -3.620  -9.623  0.00  0.00     0.185 C 
BRANCH  14  15
HETATM   15  C           1     -22.258  -3.346 -10.950  0.00  0.00     0.039 C 
BRANCH  15  16
HETATM   16 Se           1     -20.495  -4.177 -10.943  0.00  0.00     0.000 Se
HETATM   17  H           1     -20.987  -5.497 -11.368  0.00  0.00     0.000 HD
ENDBRANCH  15  16
ENDBRANCH  14  15
BRANCH  14  18
HETATM   18  C           1     -24.414  -3.908  -9.870  0.00  0.00     0.196 C 
HETATM   19  O           1     -25.214  -2.965 -10.055  0.00  0.00    -0.646 OA
HETATM   20  O           1     -24.824  -5.088  -9.891  0.00  0.00    -0.646 OA
ENDBRANCH  14  18
ENDBRANCH   3  14
TORSDOF 9
ENDMDL
MODEL 2
REMARK VINA RESULT:      -4.9      1.344      1.557
REMARK  9 active torsions:
REMARK  status: ('A' for Active; 'I' for Inactive)
REMARK    1  A    between atoms: N_2  and  C_5 
REMARK    2  A    between atoms: C_5  and  C_8 
REMARK    3  A    between atoms: C_5  and  C_12 
REMARK    4  A    between atoms: N_6  and  C_7 
REMARK       I    between atoms: N_6  and  C_8 
REMARK    5  A    between atoms: C_7  and  C_16 
REMARK    6  A    between atoms: C_7  and  C_13 
REMARK    7  A    between atoms: S_11  and  C_14 
REMARK    8  A    between atoms: C_12  and  C_14 
REMARK    9  A    between atoms: Se_15  and  C_16 
ROOT
HETATM    1  H           1     -21.698  -5.517  -9.998  0.00  0.00     0.163 HD
HETATM    2  O           1     -21.883  -3.316  -7.771  0.00  0.00    -0.271 OA
HETATM    3  N           1     -21.963  -4.641  -9.566  0.00  0.00    -0.345 N 
HETATM    4  C           1     -21.566  -4.362  -8.287  0.00  0.00     0.249 C 
ENDROOT
BRANCH   4   5
HETATM    5  C           1     -20.733  -5.359  -7.520  0.00  0.00     0.275 C 
BRANCH   5   6
HETATM    6  N           1     -19.339  -4.828  -7.361  0.00  0.00    -0.066 N 
HETATM    7  H           1     -19.101  -4.772  -6.345  0.00  0.00     0.275 HD
HETATM    8  H           1     -18.666  -5.467  -7.841  0.00  0.00     0.275 HD
HETATM    9  H           1     -19.279  -3.875  -7.787  0.00  0.00     0.275 HD
ENDBRANCH   5   6
BRANCH   5  10
HETATM   10  C           1     -21.348  -5.586  -6.145  0.00  0.00     0.053 C 
BRANCH  10  11
HETATM   11  C           1     -20.482  -6.560  -5.356  0.00  0.00     0.076 C 
BRANCH  11  12
HETATM   12  S           1     -21.524  -7.500  -4.205  0.00  0.00    -0.173 SA
HETATM   13  C           1     -21.568  -6.240  -2.900  0.00  0.00     0.089 C 
ENDBRANCH  11  12
ENDBRANCH  10  11
ENDBRANCH   5  10
ENDBRANCH   4   5
BRANCH   3  14
HETATM   14  C           1     -22.764  -3.683 -10.303  0.00  0.00     0.185 C 
BRANCH  14  15
HETATM   15  C           1     -22.611  -3.937 -11.797  0.00  0.00     0.039 C 
BRANCH  15  16
HETATM   16 Se           1     -23.839  -2.787 -12.781  0.00  0.00     0.000 Se
HETATM   17  H           1     -23.770  -3.578 -14.021  0.00  0.00     0.000 HD
ENDBRANCH  15  16
ENDBRANCH  14  15
BRANCH  14  18
HETATM   18  C           1     -24.214  -3.835  -9.912  0.00  0.00     0.196 C 
HETATM   19  O           1     -24.768  -4.953  -9.991  0.00  0.00    -0.646 OA
HETATM   20  O           1     -24.860  -2.844  -9.510  0.00  0.00    -0.646 OA
ENDBRANCH  14  18
ENDBRANCH   3  14
TORSDOF 9
ENDMDL
MODEL 3
REMARK VINA RESULT:      -4.8      2.269      6.131
REMARK  9 active torsions:
REMARK  status: ('A' for Active; 'I' for Inactive)
REMARK    1  A    between atoms: N_2  and  C_5 
REMARK    2  A    between atoms: C_5  and  C_8 
REMARK    3  A    between atoms: C_5  and  C_12 
REMARK    4  A    between atoms: N_6  and  C_7 
REMARK       I    between atoms: N_6  and  C_8 
REMARK    5  A    between atoms: C_7  and  C_16 
REMARK    6  A    between atoms: C_7  and  C_13 
REMARK    7  A    between atoms: S_11  and  C_14 
REMARK    8  A    between atoms: C_12  and  C_14 
REMARK    9  A    between atoms: Se_15  and  C_16 
ROOT
HETATM    1  H           1     -22.661  -5.713  -6.788  0.00  0.00     0.163 HD
HETATM    2  O           1     -21.688  -3.250  -8.469  0.00  0.00    -0.271 OA
HETATM    3  N           1     -22.060  -4.948  -7.068  0.00  0.00    -0.345 N 
HETATM    4  C           1     -22.405  -4.163  -8.134  0.00  0.00     0.249 C 
ENDROOT
BRANCH   4   5
HETATM    5  C           1     -23.681  -4.436  -8.893  0.00  0.00     0.275 C 
BRANCH   5   6
HETATM    6  N           1     -24.589  -3.247  -8.785  0.00  0.00    -0.066 N 
HETATM    7  H           1     -25.333  -3.310  -9.516  0.00  0.00     0.275 HD
HETATM    8  H           1     -25.032  -3.232  -7.839  0.00  0.00     0.275 HD
HETATM    9  H           1     -24.036  -2.372  -8.925  0.00  0.00     0.275 HD
ENDBRANCH   5   6
BRANCH   5  10
HETATM   10  C           1     -23.356  -4.695 -10.358  0.00  0.00     0.053 C 
BRANCH  10  11
HETATM   11  C           1     -24.073  -3.669 -11.226  0.00  0.00     0.076 C 
BRANCH  11  12
HETATM   12  S           1     -22.900  -2.954 -12.413  0.00  0.00    -0.173 SA
HETATM   13  C           1     -21.464  -3.933 -11.887  0.00  0.00     0.089 C 
ENDBRANCH  11  12
ENDBRANCH  10  11
ENDBRANCH   5  10
ENDBRANCH   4   5
BRANCH   3  14
HETATM   14  C           1     -20.834  -4.686  -6.340  0.00  0.00     0.185 C 
BRANCH  14  15
HETATM   15  C           1     -20.904  -5.355  -4.973  0.00  0.00     0.039 C 
BRANCH  15  16
HETATM   16 Se           1     -22.290  -6.725  -4.989  0.00  0.00     0.000 Se
HETATM   17  H           1     -23.122  -6.036  -5.989  0.00  0.00     0.000 HD
ENDBRANCH  15  16
ENDBRANCH  14  15
BRANCH  14  18
HETATM   18  C           1     -19.663  -5.240  -7.113  0.00  0.00     0.196 C 
HETATM   19  O           1     -19.638  -6.449  -7.428  0.00  0.00    -0.646 OA
HETATM   20  O           1     -18.718  -4.490  -7.438  0.00  0.00    -0.646 OA
ENDBRANCH  14  18
ENDBRANCH   3  14
TORSDOF 9
ENDMDL
MODEL 4
REMARK VINA RESULT:      -4.7      2.876      6.434
REMARK  9 active torsions:
REMARK  status: ('A' for Active; 'I' for Inactive)
REMARK    1  A    between atoms: N_2  and  C_5 
REMARK    2  A    between atoms: C_5  and  C_8 
REMARK    3  A    between atoms: C_5  and  C_12 
REMARK    4  A    between atoms: N_6  and  C_7 
REMARK       I    between atoms: N_6  and  C_8 
REMARK    5  A    between atoms: C_7  and  C_16 
REMARK    6  A    between atoms: C_7  and  C_13 
REMARK    7  A    between atoms: S_11  and  C_14 
REMARK    8  A    between atoms: C_12  and  C_14 
REMARK    9  A    between atoms: Se_15  and  C_16 
ROOT
HETATM    1  H           1     -19.880  -6.748  -4.842  0.00  0.00     0.163 HD
HETATM    2  O           1     -22.662  -5.595  -5.718  0.00  0.00    -0.271 OA
HETATM    3  N           1     -20.885  -6.632  -4.851  0.00  0.00    -0.345 N 
HETATM    4  C           1     -21.462  -5.732  -5.706  0.00  0.00     0.249 C 
ENDROOT
BRANCH   4   5
HETATM    5  C           1     -20.599  -4.912  -6.633  0.00  0.00     0.275 C 
BRANCH   5   6
HETATM    6  N           1     -20.057  -5.792  -7.720  0.00  0.00    -0.066 N 
HETATM    7  H           1     -19.853  -5.215  -8.567  0.00  0.00     0.275 HD
HETATM    8  H           1     -19.177  -6.250  -7.391  0.00  0.00     0.275 HD
HETATM    9  H           1     -20.763  -6.525  -7.959  0.00  0.00     0.275 HD
ENDBRANCH   5   6
BRANCH   5  10
HETATM   10  C           1     -21.434  -3.798  -7.252  0.00  0.00     0.053 C 
BRANCH  10  11
HETATM   11  C           1     -21.653  -4.090  -8.731  0.00  0.00     0.076 C 
BRANCH  11  12
HETATM   12  S           1     -23.429  -4.038  -9.102  0.00  0.00    -0.173 SA
HETATM   13  C           1     -23.258  -3.467 -10.816  0.00  0.00     0.089 C 
ENDBRANCH  11  12
ENDBRANCH  10  11
ENDBRANCH   5  10
ENDBRANCH   4   5
BRANCH   3  14
HETATM   14  C           1     -21.714  -7.421  -3.960  0.00  0.00     0.185 C 
BRANCH  14  15
HETATM   15  C           1     -21.226  -8.864  -3.959  0.00  0.00     0.039 C 
BRANCH  15  16
HETATM   16 Se           1     -19.463  -8.955  -4.786  0.00  0.00     0.000 Se
HETATM   17  H           1     -18.872  -9.765  -3.709  0.00  0.00     0.000 HD
ENDBRANCH  15  16
ENDBRANCH  14  15
BRANCH  14  18
HETATM   18  C           1     -21.625  -6.858  -2.563  0.00  0.00     0.196 C 
HETATM   19  O           1     -22.328  -5.876  -2.240  0.00  0.00    -0.646 OA
HETATM   20  O           1     -20.850  -7.373  -1.729  0.00  0.00    -0.646 OA
ENDBRANCH  14  18
ENDBRANCH   3  14
TORSDOF 9
ENDMDL
MODEL 5
REMARK VINA RESULT:      -4.7      3.588      4.750
REMARK  9 active torsions:
REMARK  status: ('A' for Active; 'I' for Inactive)
REMARK    1  A    between atoms: N_2  and  C_5 
REMARK    2  A    between atoms: C_5  and  C_8 
REMARK    3  A    between atoms: C_5  and  C_12 
REMARK    4  A    between atoms: N_6  and  C_7 
REMARK       I    between atoms: N_6  and  C_8 
REMARK    5  A    between atoms: C_7  and  C_16 
REMARK    6  A    between atoms: C_7  and  C_13 
REMARK    7  A    between atoms: S_11  and  C_14 
REMARK    8  A    between atoms: C_12  and  C_14 
REMARK    9  A    between atoms: Se_15  and  C_16 
ROOT
HETATM    1  H           1     -20.613  -4.626  -4.521  0.00  0.00     0.163 HD
HETATM    2  O           1     -21.929  -7.438  -4.967  0.00  0.00    -0.271 OA
HETATM    3  N           1     -21.018  -5.401  -5.031  0.00  0.00    -0.345 N 
HETATM    4  C           1     -21.444  -6.514  -4.358  0.00  0.00     0.249 C 
ENDROOT
BRANCH   4   5
HETATM    5  C           1     -21.308  -6.588  -2.857  0.00  0.00     0.275 C 
BRANCH   5   6
HETATM    6  N           1     -22.475  -5.899  -2.216  0.00  0.00    -0.066 N 
HETATM    7  H           1     -23.112  -5.530  -2.958  0.00  0.00     0.275 HD
HETATM    8  H           1     -22.996  -6.580  -1.619  0.00  0.00     0.275 HD
HETATM    9  H           1     -22.132  -5.109  -1.625  0.00  0.00     0.275 HD
ENDBRANCH   5   6
BRANCH   5  10
HETATM   10  C           1     -21.277  -8.047  -2.420  0.00  0.00     0.053 C 
BRANCH  10  11
HETATM   11  C           1     -20.965  -8.125  -0.931  0.00  0.00     0.076 C 
BRANCH  11  12
HETATM   12  S           1     -22.069  -9.332  -0.144  0.00  0.00    -0.173 SA
HETATM   13  C           1     -23.192  -8.117   0.603  0.00  0.00     0.089 C 
ENDBRANCH  11  12
ENDBRANCH  10  11
ENDBRANCH   5  10
ENDBRANCH   4   5
BRANCH   3  14
HETATM   14  C           1     -21.149  -5.330  -6.473  0.00  0.00     0.185 C 
BRANCH  14  15
HETATM   15  C           1     -21.632  -3.941  -6.870  0.00  0.00     0.039 C 
BRANCH  15  16
HETATM   16 Se           1     -22.538  -4.036  -8.593  0.00  0.00     0.000 Se
HETATM   17  H           1     -21.644  -3.069  -9.248  0.00  0.00     0.000 HD
ENDBRANCH  15  16
ENDBRANCH  14  15
BRANCH  14  18
HETATM   18  C           1     -19.809  -5.599  -7.112  0.00  0.00     0.196 C 
HETATM   19  O           1     -19.392  -6.773  -7.218  0.00  0.00    -0.646 OA
HETATM   20  O           1     -19.116  -4.650  -7.536  0.00  0.00    -0.646 OA
ENDBRANCH  14  18
ENDBRANCH   3  14
TORSDOF 9
ENDMDL
MODEL 6
REMARK VINA RESULT:      -4.5      3.105      6.313
REMARK  9 active torsions:
REMARK  status: ('A' for Active; 'I' for Inactive)
REMARK    1  A    between atoms: N_2  and  C_5 
REMARK    2  A    between atoms: C_5  and  C_8 
REMARK    3  A    between atoms: C_5  and  C_12 
REMARK    4  A    between atoms: N_6  and  C_7 
REMARK       I    between atoms: N_6  and  C_8 
REMARK    5  A    between atoms: C_7  and  C_16 
REMARK    6  A    between atoms: C_7  and  C_13 
REMARK    7  A    between atoms: S_11  and  C_14 
REMARK    8  A    between atoms: C_12  and  C_14 
REMARK    9  A    between atoms: Se_15  and  C_16 
ROOT
HETATM    1  H           1     -22.199  -6.122  -6.571  0.00  0.00     0.163 HD
HETATM    2  O           1     -19.605  -4.529  -5.817  0.00  0.00    -0.271 OA
HETATM    3  N           1     -21.378  -5.867  -6.037  0.00  0.00    -0.345 N 
HETATM    4  C           1     -20.584  -4.834  -6.455  0.00  0.00     0.249 C 
ENDROOT
BRANCH   4   5
HETATM    5  C           1     -20.931  -4.075  -7.713  0.00  0.00     0.275 C 
BRANCH   5   6
HETATM    6  N           1     -20.204  -4.680  -8.876  0.00  0.00    -0.066 N 
HETATM    7  H           1     -20.021  -5.692  -8.686  0.00  0.00     0.275 HD
HETATM    8  H           1     -20.789  -4.590  -9.738  0.00  0.00     0.275 HD
HETATM    9  H           1     -19.296  -4.183  -9.017  0.00  0.00     0.275 HD
ENDBRANCH   5   6
BRANCH   5  10
HETATM   10  C           1     -22.432  -4.154  -7.957  0.00  0.00     0.053 C 
BRANCH  10  11
HETATM   11  C           1     -22.706  -4.115  -9.455  0.00  0.00     0.076 C 
BRANCH  11  12
HETATM   12  S           1     -24.398  -3.527  -9.746  0.00  0.00    -0.173 SA
HETATM   13  C           1     -24.197  -3.210 -11.522  0.00  0.00     0.089 C 
ENDBRANCH  11  12
ENDBRANCH  10  11
ENDBRANCH   5  10
ENDBRANCH   4   5
BRANCH   3  14
HETATM   14  C           1     -21.045  -6.595  -4.828  0.00  0.00     0.185 C 
BRANCH  14  15
HETATM   15  C           1     -22.299  -6.772  -3.981  0.00  0.00     0.039 C 
BRANCH  15  16
HETATM   16 Se           1     -21.907  -6.293  -2.133  0.00  0.00     0.000 Se
HETATM   17  H           1     -20.452  -6.459  -2.276  0.00  0.00     0.000 HD
ENDBRANCH  15  16
ENDBRANCH  14  15
BRANCH  14  18
HETATM   18  C           1     -20.490  -7.949  -5.196  0.00  0.00     0.196 C 
HETATM   19  O           1     -21.091  -8.667  -6.025  0.00  0.00    -0.646 OA
HETATM   20  O           1     -19.430  -8.353  -4.673  0.00  0.00    -0.646 OA
ENDBRANCH  14  18
ENDBRANCH   3  14
TORSDOF 9
ENDMDL
MODEL 7
REMARK VINA RESULT:      -4.3      2.646      3.492
REMARK  9 active torsions:
REMARK  status: ('A' for Active; 'I' for Inactive)
REMARK    1  A    between atoms: N_2  and  C_5 
REMARK    2  A    between atoms: C_5  and  C_8 
REMARK    3  A    between atoms: C_5  and  C_12 
REMARK    4  A    between atoms: N_6  and  C_7 
REMARK       I    between atoms: N_6  and  C_8 
REMARK    5  A    between atoms: C_7  and  C_16 
REMARK    6  A    between atoms: C_7  and  C_13 
REMARK    7  A    between atoms: S_11  and  C_14 
REMARK    8  A    between atoms: C_12  and  C_14 
REMARK    9  A    between atoms: Se_15  and  C_16 
ROOT
HETATM    1  H           1     -21.666  -4.143  -6.265  0.00  0.00     0.163 HD
HETATM    2  O           1     -21.090  -7.172  -6.843  0.00  0.00    -0.271 OA
HETATM    3  N           1     -21.531  -4.983  -6.813  0.00  0.00    -0.345 N 
HETATM    4  C           1     -21.250  -6.169  -6.189  0.00  0.00     0.249 C 
ENDROOT
BRANCH   4   5
HETATM    5  C           1     -21.141  -6.223  -4.685  0.00  0.00     0.275 C 
BRANCH   5   6
HETATM    6  N           1     -22.509  -6.111  -4.081  0.00  0.00    -0.066 N 
HETATM    7  H           1     -22.816  -7.049  -3.736  0.00  0.00     0.275 HD
HETATM    8  H           1     -22.483  -5.440  -3.281  0.00  0.00     0.275 HD
HETATM    9  H           1     -23.182  -5.768  -4.803  0.00  0.00     0.275 HD
ENDBRANCH   5   6
BRANCH   5  10
HETATM   10  C           1     -20.509  -7.545  -4.268  0.00  0.00     0.053 C 
BRANCH  10  11
HETATM   11  C           1     -21.387  -8.220  -3.222  0.00  0.00     0.076 C 
BRANCH  11  12
HETATM   12  S           1     -20.586  -8.109  -1.597  0.00  0.00    -0.173 SA
HETATM   13  C           1     -20.956  -9.807  -1.075  0.00  0.00     0.089 C 
ENDBRANCH  11  12
ENDBRANCH  10  11
ENDBRANCH   5  10
ENDBRANCH   4   5
BRANCH   3  14
HETATM   14  C           1     -21.636  -4.931  -8.258  0.00  0.00     0.185 C 
BRANCH  14  15
HETATM   15  C           1     -22.768  -3.990  -8.650  0.00  0.00     0.039 C 
BRANCH  15  16
HETATM   16 Se           1     -23.714  -4.717 -10.191  0.00  0.00     0.000 Se
HETATM   17  H           1     -23.213  -3.698 -11.126  0.00  0.00     0.000 HD
ENDBRANCH  15  16
ENDBRANCH  14  15
BRANCH  14  18
HETATM   18  C           1     -20.338  -4.426  -8.837  0.00  0.00     0.196 C 
HETATM   19  O           1     -20.108  -4.553 -10.060  0.00  0.00    -0.646 OA
HETATM   20  O           1     -19.493  -3.880  -8.096  0.00  0.00    -0.646 OA
ENDBRANCH  14  18
ENDBRANCH   3  14
TORSDOF 9
ENDMDL
MODEL 8
REMARK VINA RESULT:      -4.3      5.019      8.154
REMARK  9 active torsions:
REMARK  status: ('A' for Active; 'I' for Inactive)
REMARK    1  A    between atoms: N_2  and  C_5 
REMARK    2  A    between atoms: C_5  and  C_8 
REMARK    3  A    between atoms: C_5  and  C_12 
REMARK    4  A    between atoms: N_6  and  C_7 
REMARK       I    between atoms: N_6  and  C_8 
REMARK    5  A    between atoms: C_7  and  C_16 
REMARK    6  A    between atoms: C_7  and  C_13 
REMARK    7  A    between atoms: S_11  and  C_14 
REMARK    8  A    between atoms: C_12  and  C_14 
REMARK    9  A    between atoms: Se_15  and  C_16 
ROOT
HETATM    1  H           1     -20.461  -7.595  -1.960  0.00  0.00     0.163 HD
HETATM    2  O           1     -21.992  -9.741  -3.661  0.00  0.00    -0.271 OA
HETATM    3  N           1     -21.108  -8.349  -2.156  0.00  0.00    -0.345 N 
HETATM    4  C           1     -21.220  -8.841  -3.427  0.00  0.00     0.249 C 
ENDROOT
BRANCH   4   5
HETATM    5  C           1     -20.379  -8.262  -4.539  0.00  0.00     0.275 C 
BRANCH   5   6
HETATM    6  N           1     -19.897  -9.369  -5.428  0.00  0.00    -0.066 N 
HETATM    7  H           1     -18.852  -9.373  -5.444  0.00  0.00     0.275 HD
HETATM    8  H           1     -20.241 -10.285  -5.062  0.00  0.00     0.275 HD
HETATM    9  H           1     -20.260  -9.222  -6.396  0.00  0.00     0.275 HD
ENDBRANCH   5   6
BRANCH   5  10
HETATM   10  C           1     -21.216  -7.285  -5.354  0.00  0.00     0.053 C 
BRANCH  10  11
HETATM   11  C           1     -21.096  -5.890  -4.755  0.00  0.00     0.076 C 
BRANCH  11  12
HETATM   12  S           1     -20.243  -4.799  -5.928  0.00  0.00    -0.173 SA
HETATM   13  C           1     -20.728  -5.700  -7.427  0.00  0.00     0.089 C 
ENDBRANCH  11  12
ENDBRANCH  10  11
ENDBRANCH   5  10
ENDBRANCH   4   5
BRANCH   3  14
HETATM   14  C           1     -21.916  -8.905  -1.088  0.00  0.00     0.185 C 
BRANCH  14  15
HETATM   15  C           1     -21.015  -9.630  -0.096  0.00  0.00     0.039 C 
BRANCH  15  16
HETATM   16 Se           1     -21.668 -11.447   0.168  0.00  0.00     0.000 Se
HETATM   17  H           1     -20.452 -12.085  -0.360  0.00  0.00     0.000 HD
ENDBRANCH  15  16
ENDBRANCH  14  15
BRANCH  14  18
HETATM   18  C           1     -22.651  -7.792  -0.382  0.00  0.00     0.196 C 
HETATM   19  O           1     -22.627  -6.633  -0.850  0.00  0.00    -0.646 OA
HETATM   20  O           1     -23.283  -8.029   0.669  0.00  0.00    -0.646 OA
ENDBRANCH  14  18
ENDBRANCH   3  14
TORSDOF 9
ENDMDL
MODEL 9
REMARK VINA RESULT:      -4.2      3.195      6.952
REMARK  9 active torsions:
REMARK  status: ('A' for Active; 'I' for Inactive)
REMARK    1  A    between atoms: N_2  and  C_5 
REMARK    2  A    between atoms: C_5  and  C_8 
REMARK    3  A    between atoms: C_5  and  C_12 
REMARK    4  A    between atoms: N_6  and  C_7 
REMARK       I    between atoms: N_6  and  C_8 
REMARK    5  A    between atoms: C_7  and  C_16 
REMARK    6  A    between atoms: C_7  and  C_13 
REMARK    7  A    between atoms: S_11  and  C_14 
REMARK    8  A    between atoms: C_12  and  C_14 
REMARK    9  A    between atoms: Se_15  and  C_16 
ROOT
HETATM    1  H           1     -20.868  -8.071  -6.693  0.00  0.00     0.163 HD
HETATM    2  O           1     -20.594  -5.295  -5.260  0.00  0.00    -0.271 OA
HETATM    3  N           1     -20.663  -7.417  -5.948  0.00  0.00    -0.345 N 
HETATM    4  C           1     -20.838  -6.075  -6.149  0.00  0.00     0.249 C 
ENDROOT
BRANCH   4   5
HETATM    5  C           1     -21.335  -5.569  -7.481  0.00  0.00     0.275 C 
BRANCH   5   6
HETATM    6  N           1     -22.192  -4.357  -7.265  0.00  0.00    -0.066 N 
HETATM    7  H           1     -21.607  -3.580  -6.884  0.00  0.00     0.275 HD
HETATM    8  H           1     -22.612  -4.061  -8.175  0.00  0.00     0.275 HD
HETATM    9  H           1     -22.954  -4.585  -6.588  0.00  0.00     0.275 HD
ENDBRANCH   5   6
BRANCH   5  10
HETATM   10  C           1     -20.149  -5.200  -8.361  0.00  0.00     0.053 C 
BRANCH  10  11
HETATM   11  C           1     -20.439  -3.890  -9.083  0.00  0.00     0.076 C 
BRANCH  11  12
HETATM   12  S           1     -20.561  -4.197 -10.868  0.00  0.00    -0.173 SA
HETATM   13  C           1     -22.168  -3.385 -11.100  0.00  0.00     0.089 C 
ENDBRANCH  11  12
ENDBRANCH  10  11
ENDBRANCH   5  10
ENDBRANCH   4   5
BRANCH   3  14
HETATM   14  C           1     -20.185  -7.904  -4.669  0.00  0.00     0.185 C 
BRANCH  14  15
HETATM   15  C           1     -21.363  -8.405  -3.845  0.00  0.00     0.039 C 
BRANCH  15  16
HETATM   16 Se           1     -21.074  -7.972  -1.966  0.00  0.00     0.000 Se
HETATM   17  H           1     -21.519  -9.286  -1.475  0.00  0.00     0.000 HD
ENDBRANCH  15  16
ENDBRANCH  14  15
BRANCH  14  18
HETATM   18  C           1     -19.210  -9.033  -4.894  0.00  0.00     0.196 C 
HETATM   19  O           1     -19.318  -9.759  -5.906  0.00  0.00    -0.646 OA
HETATM   20  O           1     -18.295  -9.243  -4.069  0.00  0.00    -0.646 OA
ENDBRANCH  14  18
ENDBRANCH   3  14
TORSDOF 9
ENDMDL
