MODEL 1
REMARK VINA RESULT:      -5.6      0.000      0.000
REMARK  5 active torsions:
REMARK  status: ('A' for Active; 'I' for Inactive)
REMARK       I    between atoms: C_1  and  N_8 
REMARK    1  A    between atoms: C_1  and  C_2 
REMARK    2  A    between atoms: C_2  and  N_5 
REMARK    3  A    between atoms: N_8  and  C_12 
REMARK    4  A    between atoms: C_10  and  C_12 
REMARK    5  A    between atoms: C_12  and  C_13 
ROOT
HETATM    1  C           1     -21.625  -4.462  -7.563  0.00  0.00     0.243 C 
HETATM    2  O           1     -21.569  -3.304  -7.226  0.00  0.00    -0.272 OA
HETATM    3  N           1     -22.150  -4.797  -8.781  0.00  0.00    -0.345 N 
HETATM    4  H           1     -22.196  -5.768  -9.064  0.00  0.00     0.163 HD
ENDROOT
BRANCH   3   5
HETATM    5  C           1     -22.641  -3.760  -9.669  0.00  0.00     0.189 C 
BRANCH   5   6
HETATM    6  C           1     -22.056  -3.965 -11.060  0.00  0.00     0.010 C 
HETATM    7  C           1     -22.393  -2.764 -11.934  0.00  0.00     0.012 C 
HETATM    8  C           1     -20.544  -4.110 -10.958  0.00  0.00     0.012 C 
ENDBRANCH   5   6
BRANCH   5   9
HETATM    9  C           1     -24.146  -3.831  -9.739  0.00  0.00     0.197 C 
HETATM   10  O           1     -24.833  -2.817  -9.492  0.00  0.00    -0.646 OA
HETATM   11  O           1     -24.708  -4.906 -10.046  0.00  0.00    -0.646 OA
ENDBRANCH   5   9
ENDBRANCH   3   5
BRANCH   1  12
HETATM   12  C           1     -21.114  -5.542  -6.639  0.00  0.00     0.332 C 
BRANCH  12  13
HETATM   13  N           1     -19.999  -6.288  -7.311  0.00  0.00    -0.071 N 
HETATM   14  H           1     -19.496  -5.648  -7.965  0.00  0.00     0.274 HD
HETATM   15  H           1     -20.393  -7.095  -7.845  0.00  0.00     0.274 HD
HETATM   16  H           1     -19.332  -6.641  -6.588  0.00  0.00     0.274 HD
ENDBRANCH  12  13
ENDBRANCH   1  12
TORSDOF 5
ENDMDL
MODEL 2
REMARK VINA RESULT:      -5.5      2.850      4.986
REMARK  5 active torsions:
REMARK  status: ('A' for Active; 'I' for Inactive)
REMARK       I    between atoms: C_1  and  N_8 
REMARK    1  A    between atoms: C_1  and  C_2 
REMARK    2  A    between atoms: C_2  and  N_5 
REMARK    3  A    between atoms: N_8  and  C_12 
REMARK    4  A    between atoms: C_10  and  C_12 
REMARK    5  A    between atoms: C_12  and  C_13 
ROOT
HETATM    1  C           1     -23.796  -2.852 -13.212  0.00  0.00     0.243 C 
HETATM    2  O           1     -24.192  -3.948 -13.528  0.00  0.00    -0.272 OA
HETATM    3  N           1     -23.233  -2.656 -11.981  0.00  0.00    -0.345 N 
HETATM    4  H           1     -22.899  -1.737 -11.717  0.00  0.00     0.163 HD
ENDROOT
BRANCH   3   5
HETATM    5  C           1     -23.112  -3.764 -11.053  0.00  0.00     0.189 C 
BRANCH   5   6
HETATM    6  C           1     -21.857  -3.586 -10.210  0.00  0.00     0.010 C 
HETATM    7  C           1     -21.819  -4.653  -9.124  0.00  0.00     0.012 C 
HETATM    8  C           1     -20.626  -3.719 -11.097  0.00  0.00     0.012 C 
ENDBRANCH   5   6
BRANCH   5   9
HETATM    9  C           1     -24.323  -3.801 -10.155  0.00  0.00     0.197 C 
HETATM   10  O           1     -24.908  -4.883  -9.937  0.00  0.00    -0.646 OA
HETATM   11  O           1     -24.742  -2.747  -9.627  0.00  0.00    -0.646 OA
ENDBRANCH   5   9
ENDBRANCH   3   5
BRANCH   1  12
HETATM   12  C           1     -23.921  -1.697 -14.178  0.00  0.00     0.332 C 
BRANCH  12  13
HETATM   13  N           1     -22.955  -1.885 -15.309  0.00  0.00    -0.071 N 
HETATM   14  H           1     -22.492  -0.975 -15.527  0.00  0.00     0.274 HD
HETATM   15  H           1     -23.470  -2.227 -16.153  0.00  0.00     0.274 HD
HETATM   16  H           1     -22.231  -2.589 -15.036  0.00  0.00     0.274 HD
ENDBRANCH  12  13
ENDBRANCH   1  12
TORSDOF 5
ENDMDL
MODEL 3
REMARK VINA RESULT:      -5.4     13.194     14.658
REMARK  5 active torsions:
REMARK  status: ('A' for Active; 'I' for Inactive)
REMARK       I    between atoms: C_1  and  N_8 
REMARK    1  A    between atoms: C_1  and  C_2 
REMARK    2  A    between atoms: C_2  and  N_5 
REMARK    3  A    between atoms: N_8  and  C_12 
REMARK    4  A    between atoms: C_10  and  C_12 
REMARK    5  A    between atoms: C_12  and  C_13 
ROOT
HETATM    1  C           1     -37.179  -0.009 -10.665  0.00  0.00     0.243 C 
HETATM    2  O           1     -38.021  -0.847 -10.883  0.00  0.00    -0.272 OA
HETATM    3  N           1     -36.013  -0.007 -11.380  0.00  0.00    -0.345 N 
HETATM    4  H           1     -35.308   0.696 -11.198  0.00  0.00     0.163 HD
ENDROOT
BRANCH   3   5
HETATM    5  C           1     -35.786  -1.013 -12.400  0.00  0.00     0.189 C 
BRANCH   5   6
HETATM    6  C           1     -35.589  -0.332 -13.749  0.00  0.00     0.010 C 
HETATM    7  C           1     -36.946   0.025 -14.340  0.00  0.00     0.012 C 
HETATM    8  C           1     -34.767   0.935 -13.562  0.00  0.00     0.012 C 
ENDBRANCH   5   6
BRANCH   5   9
HETATM    9  C           1     -34.555  -1.811 -12.053  0.00  0.00     0.197 C 
HETATM   10  O           1     -33.930  -1.571 -10.997  0.00  0.00    -0.646 OA
HETATM   11  O           1     -34.158  -2.715 -12.821  0.00  0.00    -0.646 OA
ENDBRANCH   5   9
ENDBRANCH   3   5
BRANCH   1  12
HETATM   12  C           1     -37.415   1.039  -9.603  0.00  0.00     0.332 C 
BRANCH  12  13
HETATM   13  N           1     -36.227   1.101  -8.690  0.00  0.00    -0.071 N 
HETATM   14  H           1     -35.956   0.134  -8.404  0.00  0.00     0.274 HD
HETATM   15  H           1     -36.468   1.662  -7.842  0.00  0.00     0.274 HD
HETATM   16  H           1     -35.427   1.553  -9.190  0.00  0.00     0.274 HD
ENDBRANCH  12  13
ENDBRANCH   1  12
TORSDOF 5
ENDMDL
MODEL 4
REMARK VINA RESULT:      -5.4     12.714     14.453
REMARK  5 active torsions:
REMARK  status: ('A' for Active; 'I' for Inactive)
REMARK       I    between atoms: C_1  and  N_8 
REMARK    1  A    between atoms: C_1  and  C_2 
REMARK    2  A    between atoms: C_2  and  N_5 
REMARK    3  A    between atoms: N_8  and  C_12 
REMARK    4  A    between atoms: C_10  and  C_12 
REMARK    5  A    between atoms: C_12  and  C_13 
ROOT
HETATM    1  C           1     -35.426  -0.236 -13.307  0.00  0.00     0.243 C 
HETATM    2  O           1     -36.438  -0.697 -13.779  0.00  0.00    -0.272 OA
HETATM    3  N           1     -34.970  -0.682 -12.097  0.00  0.00    -0.345 N 
HETATM    4  H           1     -34.121  -0.296 -11.702  0.00  0.00     0.163 HD
ENDROOT
BRANCH   3   5
HETATM    5  C           1     -35.701  -1.709 -11.379  0.00  0.00     0.189 C 
BRANCH   5   6
HETATM    6  C           1     -34.722  -2.576 -10.599  0.00  0.00     0.010 C 
HETATM    7  C           1     -34.957  -4.041 -10.942  0.00  0.00     0.012 C 
HETATM    8  C           1     -33.296  -2.191 -10.968  0.00  0.00     0.012 C 
ENDBRANCH   5   6
BRANCH   5   9
HETATM    9  C           1     -36.672  -1.060 -10.425  0.00  0.00     0.197 C 
HETATM   10  O           1     -37.890  -1.026 -10.699  0.00  0.00    -0.646 OA
HETATM   11  O           1     -36.257  -0.555  -9.359  0.00  0.00    -0.646 OA
ENDBRANCH   5   9
ENDBRANCH   3   5
BRANCH   1  12
HETATM   12  C           1     -34.665   0.833 -14.054  0.00  0.00     0.332 C 
BRANCH  12  13
HETATM   13  N           1     -35.580   1.508 -15.031  0.00  0.00    -0.071 N 
HETATM   14  H           1     -36.196   0.796 -15.482  0.00  0.00     0.274 HD
HETATM   15  H           1     -35.012   1.993 -15.762  0.00  0.00     0.274 HD
HETATM   16  H           1     -36.170   2.210 -14.528  0.00  0.00     0.274 HD
ENDBRANCH  12  13
ENDBRANCH   1  12
TORSDOF 5
ENDMDL
MODEL 5
REMARK VINA RESULT:      -5.1     11.446     13.083
REMARK  5 active torsions:
REMARK  status: ('A' for Active; 'I' for Inactive)
REMARK       I    between atoms: C_1  and  N_8 
REMARK    1  A    between atoms: C_1  and  C_2 
REMARK    2  A    between atoms: C_2  and  N_5 
REMARK    3  A    between atoms: N_8  and  C_12 
REMARK    4  A    between atoms: C_10  and  C_12 
REMARK    5  A    between atoms: C_12  and  C_13 
ROOT
HETATM    1  C           1     -33.815  -4.434 -15.366  0.00  0.00     0.243 C 
HETATM    2  O           1     -34.959  -4.800 -15.490  0.00  0.00    -0.272 OA
HETATM    3  N           1     -33.371  -3.971 -14.158  0.00  0.00    -0.345 N 
HETATM    4  H           1     -32.411  -3.666 -14.054  0.00  0.00     0.163 HD
ENDROOT
BRANCH   3   5
HETATM    5  C           1     -34.274  -3.919 -13.025  0.00  0.00     0.189 C 
BRANCH   5   6
HETATM    6  C           1     -33.563  -4.443 -11.784  0.00  0.00     0.010 C 
HETATM    7  C           1     -34.199  -5.757 -11.352  0.00  0.00     0.012 C 
HETATM    8  C           1     -32.091  -4.671 -12.101  0.00  0.00     0.012 C 
ENDBRANCH   5   6
BRANCH   5   9
HETATM    9  C           1     -34.707  -2.492 -12.794  0.00  0.00     0.197 C 
HETATM   10  O           1     -34.650  -1.999 -11.647  0.00  0.00    -0.646 OA
HETATM   11  O           1     -35.123  -1.803 -13.750  0.00  0.00    -0.646 OA
ENDBRANCH   5   9
ENDBRANCH   3   5
BRANCH   1  12
HETATM   12  C           1     -32.874  -4.489 -16.546  0.00  0.00     0.332 C 
BRANCH  12  13
HETATM   13  N           1     -33.078  -3.277 -17.405  0.00  0.00    -0.071 N 
HETATM   14  H           1     -33.946  -3.395 -17.974  0.00  0.00     0.274 HD
HETATM   15  H           1     -32.257  -3.158 -18.041  0.00  0.00     0.274 HD
HETATM   16  H           1     -33.173  -2.432 -16.798  0.00  0.00     0.274 HD
ENDBRANCH  12  13
ENDBRANCH   1  12
TORSDOF 5
ENDMDL
MODEL 6
REMARK VINA RESULT:      -5.1     12.041     13.838
REMARK  5 active torsions:
REMARK  status: ('A' for Active; 'I' for Inactive)
REMARK       I    between atoms: C_1  and  N_8 
REMARK    1  A    between atoms: C_1  and  C_2 
REMARK    2  A    between atoms: C_2  and  N_5 
REMARK    3  A    between atoms: N_8  and  C_12 
REMARK    4  A    between atoms: C_10  and  C_12 
REMARK    5  A    between atoms: C_12  and  C_13 
ROOT
HETATM    1  C           1     -35.625  -0.952 -13.334  0.00  0.00     0.243 C 
HETATM    2  O           1     -34.854  -0.628 -14.204  0.00  0.00    -0.272 OA
HETATM    3  N           1     -35.373  -2.061 -12.573  0.00  0.00    -0.345 N 
HETATM    4  H           1     -36.019  -2.332 -11.842  0.00  0.00     0.163 HD
ENDROOT
BRANCH   3   5
HETATM    5  C           1     -34.179  -2.848 -12.812  0.00  0.00     0.189 C 
BRANCH   5   6
HETATM    6  C           1     -33.648  -3.380 -11.487  0.00  0.00     0.010 C 
HETATM    7  C           1     -32.375  -4.178 -11.735  0.00  0.00     0.012 C 
HETATM    8  C           1     -33.344  -2.214 -10.558  0.00  0.00     0.012 C 
ENDBRANCH   5   6
BRANCH   5   9
HETATM    9  C           1     -34.514  -4.004 -13.723  0.00  0.00     0.197 C 
HETATM   10  O           1     -35.099  -5.009 -13.267  0.00  0.00    -0.646 OA
HETATM   11  O           1     -34.205  -3.955 -14.934  0.00  0.00    -0.646 OA
ENDBRANCH   5   9
ENDBRANCH   3   5
BRANCH   1  12
HETATM   12  C           1     -36.869  -0.132 -13.084  0.00  0.00     0.332 C 
BRANCH  12  13
HETATM   13  N           1     -37.405   0.373 -14.390  0.00  0.00    -0.071 N 
HETATM   14  H           1     -36.963   1.291 -14.617  0.00  0.00     0.274 HD
HETATM   15  H           1     -38.441   0.492 -14.319  0.00  0.00     0.274 HD
HETATM   16  H           1     -37.186  -0.316 -15.146  0.00  0.00     0.274 HD
ENDBRANCH  12  13
ENDBRANCH   1  12
TORSDOF 5
ENDMDL
MODEL 7
REMARK VINA RESULT:      -5.1     11.762     13.447
REMARK  5 active torsions:
REMARK  status: ('A' for Active; 'I' for Inactive)
REMARK       I    between atoms: C_1  and  N_8 
REMARK    1  A    between atoms: C_1  and  C_2 
REMARK    2  A    between atoms: C_2  and  N_5 
REMARK    3  A    between atoms: N_8  and  C_12 
REMARK    4  A    between atoms: C_10  and  C_12 
REMARK    5  A    between atoms: C_12  and  C_13 
ROOT
HETATM    1  C           1     -33.732  -2.365 -11.454  0.00  0.00     0.243 C 
HETATM    2  O           1     -33.302  -1.699 -10.543  0.00  0.00    -0.272 OA
HETATM    3  N           1     -34.679  -1.845 -12.295  0.00  0.00    -0.345 N 
HETATM    4  H           1     -35.039  -2.403 -13.059  0.00  0.00     0.163 HD
ENDROOT
BRANCH   3   5
HETATM    5  C           1     -35.166  -0.494 -12.092  0.00  0.00     0.189 C 
BRANCH   5   6
HETATM    6  C           1     -35.559   0.111 -13.433  0.00  0.00     0.010 C 
HETATM    7  C           1     -34.599   1.242 -13.780  0.00  0.00     0.012 C 
HETATM    8  C           1     -35.491  -0.961 -14.512  0.00  0.00     0.012 C 
ENDBRANCH   5   6
BRANCH   5   9
HETATM    9  C           1     -36.368  -0.526 -11.181  0.00  0.00     0.197 C 
HETATM   10  O           1     -37.460  -0.963 -11.602  0.00  0.00    -0.646 OA
HETATM   11  O           1     -36.272  -0.115 -10.004  0.00  0.00    -0.646 OA
ENDBRANCH   5   9
ENDBRANCH   3   5
BRANCH   1  12
HETATM   12  C           1     -33.225  -3.771 -11.666  0.00  0.00     0.332 C 
BRANCH  12  13
HETATM   13  N           1     -33.530  -4.206 -13.069  0.00  0.00    -0.071 N 
HETATM   14  H           1     -32.911  -5.006 -13.328  0.00  0.00     0.274 HD
HETATM   15  H           1     -33.365  -3.409 -13.724  0.00  0.00     0.274 HD
HETATM   16  H           1     -34.530  -4.505 -13.131  0.00  0.00     0.274 HD
ENDBRANCH  12  13
ENDBRANCH   1  12
TORSDOF 5
ENDMDL
MODEL 8
REMARK VINA RESULT:      -5.0     11.844     13.688
REMARK  5 active torsions:
REMARK  status: ('A' for Active; 'I' for Inactive)
REMARK       I    between atoms: C_1  and  N_8 
REMARK    1  A    between atoms: C_1  and  C_2 
REMARK    2  A    between atoms: C_2  and  N_5 
REMARK    3  A    between atoms: N_8  and  C_12 
REMARK    4  A    between atoms: C_10  and  C_12 
REMARK    5  A    between atoms: C_12  and  C_13 
ROOT
HETATM    1  C           1     -34.066  -3.043 -12.313  0.00  0.00     0.243 C 
HETATM    2  O           1     -34.621  -3.576 -13.243  0.00  0.00    -0.272 OA
HETATM    3  N           1     -34.496  -1.822 -11.868  0.00  0.00    -0.345 N 
HETATM    4  H           1     -34.032  -1.375 -11.087  0.00  0.00     0.163 HD
ENDROOT
BRANCH   3   5
HETATM    5  C           1     -35.618  -1.168 -12.514  0.00  0.00     0.189 C 
BRANCH   5   6
HETATM    6  C           1     -36.424  -0.400 -11.476  0.00  0.00     0.010 C 
HETATM    7  C           1     -37.841  -0.186 -11.991  0.00  0.00     0.012 C 
HETATM    8  C           1     -36.470  -1.195 -10.179  0.00  0.00     0.012 C 
ENDBRANCH   5   6
BRANCH   5   9
HETATM    9  C           1     -35.105  -0.213 -13.563  0.00  0.00     0.197 C 
HETATM   10  O           1     -34.727   0.932 -13.236  0.00  0.00    -0.646 OA
HETATM   11  O           1     -35.057  -0.567 -14.762  0.00  0.00    -0.646 OA
ENDBRANCH   5   9
ENDBRANCH   3   5
BRANCH   1  12
HETATM   12  C           1     -32.898  -3.723 -11.639  0.00  0.00     0.332 C 
BRANCH  12  13
HETATM   13  N           1     -33.092  -5.209 -11.684  0.00  0.00    -0.071 N 
HETATM   14  H           1     -32.197  -5.669 -11.961  0.00  0.00     0.274 HD
HETATM   15  H           1     -33.835  -5.442 -12.381  0.00  0.00     0.274 HD
HETATM   16  H           1     -33.382  -5.551 -10.740  0.00  0.00     0.274 HD
ENDBRANCH  12  13
ENDBRANCH   1  12
TORSDOF 5
ENDMDL
MODEL 9
REMARK VINA RESULT:      -4.9      9.839     11.502
REMARK  5 active torsions:
REMARK  status: ('A' for Active; 'I' for Inactive)
REMARK       I    between atoms: C_1  and  N_8 
REMARK    1  A    between atoms: C_1  and  C_2 
REMARK    2  A    between atoms: C_2  and  N_5 
REMARK    3  A    between atoms: N_8  and  C_12 
REMARK    4  A    between atoms: C_10  and  C_12 
REMARK    5  A    between atoms: C_12  and  C_13 
ROOT
HETATM    1  C           1     -27.625  -6.150 -19.061  0.00  0.00     0.243 C 
HETATM    2  O           1     -28.252  -5.152 -19.326  0.00  0.00    -0.272 OA
HETATM    3  N           1     -27.930  -6.873 -17.941  0.00  0.00    -0.345 N 
HETATM    4  H           1     -27.406  -7.710 -17.720  0.00  0.00     0.163 HD
ENDROOT
BRANCH   3   5
HETATM    5  C           1     -29.007  -6.441 -17.070  0.00  0.00     0.189 C 
BRANCH   5   6
HETATM    6  C           1     -30.207  -7.361 -17.252  0.00  0.00     0.010 C 
HETATM    7  C           1     -31.485  -6.534 -17.249  0.00  0.00     0.012 C 
HETATM    8  C           1     -30.083  -8.100 -18.577  0.00  0.00     0.012 C 
ENDBRANCH   5   6
BRANCH   5   9
HETATM    9  C           1     -28.543  -6.495 -15.635  0.00  0.00     0.197 C 
HETATM   10  O           1     -28.730  -5.517 -14.881  0.00  0.00    -0.646 OA
HETATM   11  O           1     -27.972  -7.519 -15.201  0.00  0.00    -0.646 OA
ENDBRANCH   5   9
ENDBRANCH   3   5
BRANCH   1  12
HETATM   12  C           1     -26.504  -6.600 -19.968  0.00  0.00     0.332 C 
BRANCH  12  13
HETATM   13  N           1     -26.877  -7.900 -20.616  0.00  0.00    -0.071 N 
HETATM   14  H           1     -26.502  -8.692 -20.049  0.00  0.00     0.274 HD
HETATM   15  H           1     -26.474  -7.937 -21.579  0.00  0.00     0.274 HD
HETATM   16  H           1     -27.919  -7.974 -20.672  0.00  0.00     0.274 HD
ENDBRANCH  12  13
ENDBRANCH   1  12
TORSDOF 5
ENDMDL
