MODEL 1
REMARK VINA RESULT:      -7.1      0.000      0.000
REMARK  11 active torsions:
REMARK  status: ('A' for Active; 'I' for Inactive)
REMARK    1  A    between atoms: C_2  and  O_3 
REMARK    2  A    between atoms: N_11  and  C_18 
REMARK    3  A    between atoms: O_14  and  P_15 
REMARK    4  A    between atoms: P_15  and  O_16 
REMARK    5  A    between atoms: O_16  and  C_17 
REMARK    6  A    between atoms: C_17  and  C_18 
REMARK    7  A    between atoms: C_18  and  C_19 
REMARK       I    between atoms: C_19  and  N_20 
REMARK    8  A    between atoms: N_20  and  C_24 
REMARK    9  A    between atoms: C_23  and  C_24 
REMARK   10  A    between atoms: C_24  and  C_25 
REMARK   11  A    between atoms: C_25  and  C_28 
ROOT
HETATM    1  H           1     -21.233  -5.262  -9.538  0.00  0.00     0.163 HD
HETATM    2  O           1     -23.427  -4.195  -7.565  0.00  0.00    -0.271 OA
HETATM    3  C           1     -22.936  -4.530  -8.616  0.00  0.00     0.251 C 
HETATM    4  N           1     -21.644  -4.982  -8.656  0.00  0.00    -0.344 N 
ENDROOT
BRANCH   4   5
HETATM    5  C           1     -20.865  -5.058  -7.436  0.00  0.00     0.189 C 
BRANCH   5   6
HETATM    6  C           1     -19.564  -4.317  -7.623  0.00  0.00     0.197 C 
HETATM    7  O           1     -18.554  -4.652  -6.967  0.00  0.00    -0.646 OA
HETATM    8  O           1     -19.496  -3.368  -8.434  0.00  0.00    -0.646 OA
ENDBRANCH   5   6
BRANCH   5   9
HETATM    9  C           1     -20.577  -6.517  -7.109  0.00  0.00     0.074 C 
BRANCH   9  10
HETATM   10  C           1     -20.941  -6.791  -5.683  0.00  0.00    -0.056 A 
HETATM   11  C           1     -21.012  -5.742  -4.767  0.00  0.00     0.010 A 
HETATM   12  C           1     -21.352  -5.997  -3.438  0.00  0.00     0.037 A 
HETATM   13  C           1     -21.622  -7.302  -3.026  0.00  0.00     0.065 A 
HETATM   14  C           1     -21.551  -8.352  -3.942  0.00  0.00     0.037 A 
HETATM   15  C           1     -21.211  -8.096  -5.271  0.00  0.00     0.010 A 
BRANCH  13  16
HETATM   16  O           1     -21.952  -7.550  -1.735  0.00  0.00    -0.361 OA
HETATM   17  H           1     -22.919  -7.492  -1.656  0.00  0.00     0.217 HD
ENDBRANCH  13  16
ENDBRANCH   9  10
ENDBRANCH   5   9
ENDBRANCH   4   5
BRANCH   3  18
HETATM   18  C           1     -23.746  -4.450  -9.887  0.00  0.00     0.298 C 
BRANCH  18  19
HETATM   19  N           1     -25.204  -4.360  -9.545  0.00  0.00    -0.064 N 
HETATM   20  H           1     -25.727  -5.112 -10.048  0.00  0.00     0.275 HD
HETATM   21  H           1     -25.572  -3.426  -9.833  0.00  0.00     0.275 HD
HETATM   22  H           1     -25.329  -4.480  -8.514  0.00  0.00     0.275 HD
ENDBRANCH  18  19
BRANCH  18  23
HETATM   23  C           1     -23.334  -3.214 -10.676  0.00  0.00     0.224 C 
BRANCH  23  24
HETATM   24  O           1     -24.292  -2.947 -11.663  0.00  0.00    -0.287 OA
BRANCH  24  25
HETATM   25  P           1     -23.794  -3.095 -13.192  0.00  0.00     0.406 P 
HETATM   26  O           1     -24.489  -4.237 -13.829  0.00  0.00    -0.624 OA
HETATM   27  O           1     -24.104  -1.853 -13.934  0.00  0.00    -0.624 OA
BRANCH  25  28
HETATM   28  O           1     -22.200  -3.354 -13.217  0.00  0.00    -0.300 OA
HETATM   29  H           1     -22.081  -4.088 -13.797  0.00  0.00     0.223 HD
ENDBRANCH  25  28
ENDBRANCH  24  25
ENDBRANCH  23  24
ENDBRANCH  18  23
ENDBRANCH   3  18
TORSDOF 11
ENDMDL
MODEL 2
REMARK VINA RESULT:      -7.0      3.717      8.649
REMARK  11 active torsions:
REMARK  status: ('A' for Active; 'I' for Inactive)
REMARK    1  A    between atoms: C_2  and  O_3 
REMARK    2  A    between atoms: N_11  and  C_18 
REMARK    3  A    between atoms: O_14  and  P_15 
REMARK    4  A    between atoms: P_15  and  O_16 
REMARK    5  A    between atoms: O_16  and  C_17 
REMARK    6  A    between atoms: C_17  and  C_18 
REMARK    7  A    between atoms: C_18  and  C_19 
REMARK       I    between atoms: C_19  and  N_20 
REMARK    8  A    between atoms: N_20  and  C_24 
REMARK    9  A    between atoms: C_23  and  C_24 
REMARK   10  A    between atoms: C_24  and  C_25 
REMARK   11  A    between atoms: C_25  and  C_28 
ROOT
HETATM    1  H           1     -20.750  -4.421  -4.678  0.00  0.00     0.163 HD
HETATM    2  O           1     -21.631  -7.407  -5.067  0.00  0.00    -0.271 OA
HETATM    3  C           1     -21.329  -6.398  -4.476  0.00  0.00     0.251 C 
HETATM    4  N           1     -21.003  -5.266  -5.175  0.00  0.00    -0.344 N 
ENDROOT
BRANCH   4   5
HETATM    5  C           1     -21.021  -5.279  -6.624  0.00  0.00     0.189 C 
BRANCH   5   6
HETATM    6  C           1     -19.627  -5.532  -7.142  0.00  0.00     0.197 C 
HETATM    7  O           1     -19.273  -6.692  -7.445  0.00  0.00    -0.646 OA
HETATM    8  O           1     -18.824  -4.582  -7.268  0.00  0.00    -0.646 OA
ENDBRANCH   5   6
BRANCH   5   9
HETATM    9  C           1     -21.518  -3.934  -7.137  0.00  0.00     0.074 C 
BRANCH   9  10
HETATM   10  C           1     -22.082  -4.102  -8.514  0.00  0.00    -0.056 A 
HETATM   11  C           1     -23.453  -4.284  -8.688  0.00  0.00     0.010 A 
HETATM   12  C           1     -23.979  -4.440  -9.971  0.00  0.00     0.037 A 
HETATM   13  C           1     -23.132  -4.413 -11.079  0.00  0.00     0.065 A 
HETATM   14  C           1     -21.760  -4.231 -10.905  0.00  0.00     0.037 A 
HETATM   15  C           1     -21.235  -4.075  -9.621  0.00  0.00     0.010 A 
BRANCH  13  16
HETATM   16  O           1     -23.643  -4.565 -12.325  0.00  0.00    -0.361 OA
HETATM   17  H           1     -24.153  -3.767 -12.540  0.00  0.00     0.217 HD
ENDBRANCH  13  16
ENDBRANCH   9  10
ENDBRANCH   5   9
ENDBRANCH   4   5
BRANCH   3  18
HETATM   18  C           1     -21.310  -6.385  -2.967  0.00  0.00     0.298 C 
BRANCH  18  19
HETATM   19  N           1     -22.619  -5.861  -2.456  0.00  0.00    -0.064 N 
HETATM   20  H           1     -23.193  -6.654  -2.090  0.00  0.00     0.275 HD
HETATM   21  H           1     -23.133  -5.389  -3.234  0.00  0.00     0.275 HD
HETATM   22  H           1     -22.444  -5.174  -1.688  0.00  0.00     0.275 HD
ENDBRANCH  18  19
BRANCH  18  23
HETATM   23  C           1     -21.094  -7.801  -2.449  0.00  0.00     0.224 C 
BRANCH  23  24
HETATM   24  O           1     -20.769  -7.757  -1.086  0.00  0.00    -0.287 OA
BRANCH  24  25
HETATM   25  P           1     -21.809  -8.483  -0.087  0.00  0.00     0.406 P 
HETATM   26  O           1     -23.001  -7.624   0.095  0.00  0.00    -0.624 OA
HETATM   27  O           1     -22.221  -9.783  -0.663  0.00  0.00    -0.624 OA
BRANCH  25  28
HETATM   28  O           1     -21.100  -8.729   1.343  0.00  0.00    -0.300 OA
HETATM   29  H           1     -21.791  -8.635   1.977  0.00  0.00     0.223 HD
ENDBRANCH  25  28
ENDBRANCH  24  25
ENDBRANCH  23  24
ENDBRANCH  18  23
ENDBRANCH   3  18
TORSDOF 11
ENDMDL
MODEL 3
REMARK VINA RESULT:      -7.0     11.587     13.156
REMARK  11 active torsions:
REMARK  status: ('A' for Active; 'I' for Inactive)
REMARK    1  A    between atoms: C_2  and  O_3 
REMARK    2  A    between atoms: N_11  and  C_18 
REMARK    3  A    between atoms: O_14  and  P_15 
REMARK    4  A    between atoms: P_15  and  O_16 
REMARK    5  A    between atoms: O_16  and  C_17 
REMARK    6  A    between atoms: C_17  and  C_18 
REMARK    7  A    between atoms: C_18  and  C_19 
REMARK       I    between atoms: C_19  and  N_20 
REMARK    8  A    between atoms: N_20  and  C_24 
REMARK    9  A    between atoms: C_23  and  C_24 
REMARK   10  A    between atoms: C_24  and  C_25 
REMARK   11  A    between atoms: C_25  and  C_28 
ROOT
HETATM    1  H           1     -32.679  -3.256 -14.488  0.00  0.00     0.163 HD
HETATM    2  O           1     -35.013  -5.144 -15.399  0.00  0.00    -0.271 OA
HETATM    3  C           1     -33.985  -4.516 -15.483  0.00  0.00     0.251 C 
HETATM    4  N           1     -33.541  -3.782 -14.416  0.00  0.00    -0.344 N 
ENDROOT
BRANCH   4   5
HETATM    5  C           1     -34.305  -3.759 -13.184  0.00  0.00     0.189 C 
BRANCH   5   6
HETATM    6  C           1     -35.030  -2.441 -13.067  0.00  0.00     0.197 C 
HETATM    7  O           1     -34.912  -1.581 -13.967  0.00  0.00    -0.646 OA
HETATM    8  O           1     -35.749  -2.209 -12.072  0.00  0.00    -0.646 OA
ENDBRANCH   5   6
BRANCH   5   9
HETATM    9  C           1     -33.362  -3.928 -12.000  0.00  0.00     0.074 C 
BRANCH   9  10
HETATM   10  C           1     -33.690  -5.199 -11.279  0.00  0.00    -0.056 A 
HETATM   11  C           1     -34.922  -5.343 -10.643  0.00  0.00     0.010 A 
HETATM   12  C           1     -35.227  -6.527  -9.971  0.00  0.00     0.037 A 
HETATM   13  C           1     -34.298  -7.567  -9.936  0.00  0.00     0.065 A 
HETATM   14  C           1     -33.064  -7.423 -10.572  0.00  0.00     0.037 A 
HETATM   15  C           1     -32.761  -6.238 -11.244  0.00  0.00     0.010 A 
BRANCH  13  16
HETATM   16  O           1     -34.594  -8.717  -9.284  0.00  0.00    -0.361 OA
HETATM   17  H           1     -33.768  -9.213  -9.159  0.00  0.00     0.217 HD
ENDBRANCH  13  16
ENDBRANCH   9  10
ENDBRANCH   5   9
ENDBRANCH   4   5
BRANCH   3  18
HETATM   18  C           1     -33.189  -4.540 -16.765  0.00  0.00     0.298 C 
BRANCH  18  19
HETATM   19  N           1     -33.215  -3.179 -17.395  0.00  0.00    -0.064 N 
HETATM   20  H           1     -34.197  -2.819 -17.406  0.00  0.00     0.275 HD
HETATM   21  H           1     -32.856  -3.241 -18.374  0.00  0.00     0.275 HD
HETATM   22  H           1     -32.612  -2.527 -16.844  0.00  0.00     0.275 HD
ENDBRANCH  18  19
BRANCH  18  23
HETATM   23  C           1     -31.748  -4.930 -16.462  0.00  0.00     0.224 C 
BRANCH  23  24
HETATM   24  O           1     -31.425  -6.105 -17.154  0.00  0.00    -0.287 OA
BRANCH  24  25
HETATM   25  P           1     -29.853  -6.462 -17.249  0.00  0.00     0.406 P 
HETATM   26  O           1     -29.265  -5.785 -18.427  0.00  0.00    -0.624 OA
HETATM   27  O           1     -29.168  -6.000 -16.022  0.00  0.00    -0.624 OA
BRANCH  25  28
HETATM   28  O           1     -29.671  -8.059 -17.400  0.00  0.00    -0.300 OA
HETATM   29  H           1     -30.417  -8.344 -17.901  0.00  0.00     0.223 HD
ENDBRANCH  25  28
ENDBRANCH  24  25
ENDBRANCH  23  24
ENDBRANCH  18  23
ENDBRANCH   3  18
TORSDOF 11
ENDMDL
MODEL 4
REMARK VINA RESULT:      -6.8      2.680      4.168
REMARK  11 active torsions:
REMARK  status: ('A' for Active; 'I' for Inactive)
REMARK    1  A    between atoms: C_2  and  O_3 
REMARK    2  A    between atoms: N_11  and  C_18 
REMARK    3  A    between atoms: O_14  and  P_15 
REMARK    4  A    between atoms: P_15  and  O_16 
REMARK    5  A    between atoms: O_16  and  C_17 
REMARK    6  A    between atoms: C_17  and  C_18 
REMARK    7  A    between atoms: C_18  and  C_19 
REMARK       I    between atoms: C_19  and  N_20 
REMARK    8  A    between atoms: N_20  and  C_24 
REMARK    9  A    between atoms: C_23  and  C_24 
REMARK   10  A    between atoms: C_24  and  C_25 
REMARK   11  A    between atoms: C_25  and  C_28 
ROOT
HETATM    1  H           1     -20.309  -7.148  -7.051  0.00  0.00     0.163 HD
HETATM    2  O           1     -20.436  -4.809  -4.963  0.00  0.00    -0.271 OA
HETATM    3  C           1     -20.443  -5.343  -6.047  0.00  0.00     0.251 C 
HETATM    4  N           1     -20.303  -6.701  -6.142  0.00  0.00    -0.344 N 
ENDROOT
BRANCH   4   5
HETATM    5  C           1     -20.145  -7.500  -4.942  0.00  0.00     0.189 C 
BRANCH   5   6
HETATM    6  C           1     -19.100  -8.561  -5.179  0.00  0.00     0.197 C 
HETATM    7  O           1     -18.601  -8.704  -6.316  0.00  0.00    -0.646 OA
HETATM    8  O           1     -18.732  -9.297  -4.238  0.00  0.00    -0.646 OA
ENDBRANCH   5   6
BRANCH   5   9
HETATM    9  C           1     -21.472  -8.160  -4.595  0.00  0.00     0.074 C 
BRANCH   9  10
HETATM   10  C           1     -21.709  -8.061  -3.120  0.00  0.00    -0.056 A 
HETATM   11  C           1     -21.700  -9.212  -2.333  0.00  0.00     0.010 A 
HETATM   12  C           1     -21.920  -9.119  -0.958  0.00  0.00     0.037 A 
HETATM   13  C           1     -22.148  -7.874  -0.372  0.00  0.00     0.065 A 
HETATM   14  C           1     -22.158  -6.723  -1.159  0.00  0.00     0.037 A 
HETATM   15  C           1     -21.937  -6.816  -2.534  0.00  0.00     0.010 A 
BRANCH  13  16
HETATM   16  O           1     -22.362  -7.784   0.963  0.00  0.00    -0.361 OA
HETATM   17  H           1     -23.269  -7.463   1.101  0.00  0.00     0.217 HD
ENDBRANCH  13  16
ENDBRANCH   9  10
ENDBRANCH   5   9
ENDBRANCH   4   5
BRANCH   3  18
HETATM   18  C           1     -20.607  -4.512  -7.296  0.00  0.00     0.298 C 
BRANCH  18  19
HETATM   19  N           1     -19.303  -4.457  -8.034  0.00  0.00    -0.064 N 
HETATM   20  H           1     -18.911  -3.489  -7.978  0.00  0.00     0.275 HD
HETATM   21  H           1     -19.459  -4.712  -9.036  0.00  0.00     0.275 HD
HETATM   22  H           1     -18.630  -5.130  -7.604  0.00  0.00     0.275 HD
ENDBRANCH  18  19
BRANCH  18  23
HETATM   23  C           1     -21.669  -5.141  -8.189  0.00  0.00     0.224 C 
BRANCH  23  24
HETATM   24  O           1     -22.861  -4.410  -8.087  0.00  0.00    -0.287 OA
BRANCH  24  25
HETATM   25  P           1     -23.542  -3.969  -9.483  0.00  0.00     0.406 P 
HETATM   26  O           1     -22.540  -3.274 -10.323  0.00  0.00    -0.624 OA
HETATM   27  O           1     -24.034  -5.171 -10.193  0.00  0.00    -0.624 OA
BRANCH  25  28
HETATM   28  O           1     -24.780  -2.975  -9.188  0.00  0.00    -0.300 OA
HETATM   29  H           1     -24.403  -2.111  -9.187  0.00  0.00     0.223 HD
ENDBRANCH  25  28
ENDBRANCH  24  25
ENDBRANCH  23  24
ENDBRANCH  18  23
ENDBRANCH   3  18
TORSDOF 11
ENDMDL
MODEL 5
REMARK VINA RESULT:      -6.7     10.569     13.405
REMARK  11 active torsions:
REMARK  status: ('A' for Active; 'I' for Inactive)
REMARK    1  A    between atoms: C_2  and  O_3 
REMARK    2  A    between atoms: N_11  and  C_18 
REMARK    3  A    between atoms: O_14  and  P_15 
REMARK    4  A    between atoms: P_15  and  O_16 
REMARK    5  A    between atoms: O_16  and  C_17 
REMARK    6  A    between atoms: C_17  and  C_18 
REMARK    7  A    between atoms: C_18  and  C_19 
REMARK       I    between atoms: C_19  and  N_20 
REMARK    8  A    between atoms: N_20  and  C_24 
REMARK    9  A    between atoms: C_23  and  C_24 
REMARK   10  A    between atoms: C_24  and  C_25 
REMARK   11  A    between atoms: C_25  and  C_28 
ROOT
HETATM    1  H           1     -29.333  -5.240 -16.564  0.00  0.00     0.163 HD
HETATM    2  O           1     -30.287  -7.781 -18.138  0.00  0.00    -0.271 OA
HETATM    3  C           1     -30.371  -6.708 -17.589  0.00  0.00     0.251 C 
HETATM    4  N           1     -29.261  -6.139 -17.024  0.00  0.00    -0.344 N 
ENDROOT
BRANCH   4   5
HETATM    5  C           1     -27.985  -6.824 -17.084  0.00  0.00     0.189 C 
BRANCH   5   6
HETATM    6  C           1     -27.533  -7.168 -15.687  0.00  0.00     0.197 C 
HETATM    7  O           1     -26.322  -7.375 -15.455  0.00  0.00    -0.646 OA
HETATM    8  O           1     -28.368  -7.244 -14.760  0.00  0.00    -0.646 OA
ENDBRANCH   5   6
BRANCH   5   9
HETATM    9  C           1     -26.954  -5.918 -17.745  0.00  0.00     0.074 C 
BRANCH   9  10
HETATM   10  C           1     -26.342  -6.626 -18.913  0.00  0.00    -0.056 A 
HETATM   11  C           1     -27.142  -7.033 -19.980  0.00  0.00     0.010 A 
HETATM   12  C           1     -26.571  -7.693 -21.069  0.00  0.00     0.037 A 
HETATM   13  C           1     -25.200  -7.946 -21.089  0.00  0.00     0.065 A 
HETATM   14  C           1     -24.399  -7.539 -20.022  0.00  0.00     0.037 A 
HETATM   15  C           1     -24.971  -6.879 -18.933  0.00  0.00     0.010 A 
BRANCH  13  16
HETATM   16  O           1     -24.645  -8.587 -22.147  0.00  0.00    -0.361 OA
HETATM   17  H           1     -25.154  -8.352 -22.941  0.00  0.00     0.217 HD
ENDBRANCH  13  16
ENDBRANCH   9  10
ENDBRANCH   5   9
ENDBRANCH   4   5
BRANCH   3  18
HETATM   18  C           1     -31.700  -5.995 -17.526  0.00  0.00     0.298 C 
BRANCH  18  19
HETATM   19  N           1     -32.795  -6.997 -17.316  0.00  0.00    -0.064 N 
HETATM   20  H           1     -33.690  -6.624 -17.708  0.00  0.00     0.275 HD
HETATM   21  H           1     -32.911  -7.177 -16.293  0.00  0.00     0.275 HD
HETATM   22  H           1     -32.550  -7.890 -17.800  0.00  0.00     0.275 HD
ENDBRANCH  18  19
BRANCH  18  23
HETATM   23  C           1     -31.690  -5.004 -16.369  0.00  0.00     0.224 C 
BRANCH  23  24
HETATM   24  O           1     -32.624  -3.988 -16.614  0.00  0.00    -0.287 OA
BRANCH  24  25
HETATM   25  P           1     -33.936  -3.989 -15.674  0.00  0.00     0.406 P 
HETATM   26  O           1     -33.525  -3.890 -14.255  0.00  0.00    -0.624 OA
HETATM   27  O           1     -34.793  -2.835 -16.021  0.00  0.00    -0.624 OA
BRANCH  25  28
HETATM   28  O           1     -34.760  -5.359 -15.900  0.00  0.00    -0.300 OA
HETATM   29  H           1     -35.129  -5.564 -15.058  0.00  0.00     0.223 HD
ENDBRANCH  25  28
ENDBRANCH  24  25
ENDBRANCH  23  24
ENDBRANCH  18  23
ENDBRANCH   3  18
TORSDOF 11
ENDMDL
MODEL 6
REMARK VINA RESULT:      -6.6      4.996      7.485
REMARK  11 active torsions:
REMARK  status: ('A' for Active; 'I' for Inactive)
REMARK    1  A    between atoms: C_2  and  O_3 
REMARK    2  A    between atoms: N_11  and  C_18 
REMARK    3  A    between atoms: O_14  and  P_15 
REMARK    4  A    between atoms: P_15  and  O_16 
REMARK    5  A    between atoms: O_16  and  C_17 
REMARK    6  A    between atoms: C_17  and  C_18 
REMARK    7  A    between atoms: C_18  and  C_19 
REMARK       I    between atoms: C_19  and  N_20 
REMARK    8  A    between atoms: N_20  and  C_24 
REMARK    9  A    between atoms: C_23  and  C_24 
REMARK   10  A    between atoms: C_24  and  C_25 
REMARK   11  A    between atoms: C_25  and  C_28 
ROOT
HETATM    1  H           1     -20.236  -7.655  -2.782  0.00  0.00     0.163 HD
HETATM    2  O           1     -22.081 -10.036  -3.657  0.00  0.00    -0.271 OA
HETATM    3  C           1     -21.173  -9.243  -3.722  0.00  0.00     0.251 C 
HETATM    4  N           1     -20.998  -8.319  -2.726  0.00  0.00    -0.344 N 
ENDROOT
BRANCH   4   5
HETATM    5  C           1     -21.903  -8.293  -1.595  0.00  0.00     0.189 C 
BRANCH   5   6
HETATM    6  C           1     -22.307  -6.868  -1.308  0.00  0.00     0.197 C 
HETATM    7  O           1     -22.360  -6.034  -2.237  0.00  0.00    -0.646 OA
HETATM    8  O           1     -22.589  -6.521  -0.140  0.00  0.00    -0.646 OA
ENDBRANCH   5   6
BRANCH   5   9
HETATM    9  C           1     -21.207  -8.881  -0.375  0.00  0.00     0.074 C 
BRANCH   9  10
HETATM   10  C           1     -21.842 -10.189  -0.019  0.00  0.00    -0.056 A 
HETATM   11  C           1     -23.192 -10.406  -0.292  0.00  0.00     0.010 A 
HETATM   12  C           1     -23.784 -11.625   0.039  0.00  0.00     0.037 A 
HETATM   13  C           1     -23.024 -12.627   0.643  0.00  0.00     0.065 A 
HETATM   14  C           1     -21.673 -12.410   0.916  0.00  0.00     0.037 A 
HETATM   15  C           1     -21.082 -11.191   0.585  0.00  0.00     0.010 A 
BRANCH  13  16
HETATM   16  O           1     -23.599 -13.812   0.965  0.00  0.00    -0.361 OA
HETATM   17  H           1     -24.351 -13.630   1.552  0.00  0.00     0.217 HD
ENDBRANCH  13  16
ENDBRANCH   9  10
ENDBRANCH   5   9
ENDBRANCH   4   5
BRANCH   3  18
HETATM   18  C           1     -20.230  -9.270  -4.900  0.00  0.00     0.298 C 
BRANCH  18  19
HETATM   19  N           1     -20.873 -10.006  -6.038  0.00  0.00    -0.064 N 
HETATM   20  H           1     -21.114  -9.329  -6.798  0.00  0.00     0.275 HD
HETATM   21  H           1     -21.743 -10.476  -5.701  0.00  0.00     0.275 HD
HETATM   22  H           1     -20.211 -10.724  -6.408  0.00  0.00     0.275 HD
ENDBRANCH  18  19
BRANCH  18  23
HETATM   23  C           1     -19.915  -7.844  -5.332  0.00  0.00     0.224 C 
BRANCH  23  24
HETATM   24  O           1     -20.921  -7.382  -6.192  0.00  0.00    -0.287 OA
BRANCH  24  25
HETATM   25  P           1     -21.547  -5.936  -5.839  0.00  0.00     0.406 P 
HETATM   26  O           1     -20.591  -5.177  -5.001  0.00  0.00    -0.624 OA
HETATM   27  O           1     -21.806  -5.192  -7.091  0.00  0.00    -0.624 OA
BRANCH  25  28
HETATM   28  O           1     -22.932  -6.131  -5.032  0.00  0.00    -0.300 OA
HETATM   29  H           1     -23.608  -6.050  -5.684  0.00  0.00     0.223 HD
ENDBRANCH  25  28
ENDBRANCH  24  25
ENDBRANCH  23  24
ENDBRANCH  18  23
ENDBRANCH   3  18
TORSDOF 11
ENDMDL
MODEL 7
REMARK VINA RESULT:      -6.1      2.406      3.861
REMARK  11 active torsions:
REMARK  status: ('A' for Active; 'I' for Inactive)
REMARK    1  A    between atoms: C_2  and  O_3 
REMARK    2  A    between atoms: N_11  and  C_18 
REMARK    3  A    between atoms: O_14  and  P_15 
REMARK    4  A    between atoms: P_15  and  O_16 
REMARK    5  A    between atoms: O_16  and  C_17 
REMARK    6  A    between atoms: C_17  and  C_18 
REMARK    7  A    between atoms: C_18  and  C_19 
REMARK       I    between atoms: C_19  and  N_20 
REMARK    8  A    between atoms: N_20  and  C_24 
REMARK    9  A    between atoms: C_23  and  C_24 
REMARK   10  A    between atoms: C_24  and  C_25 
REMARK   11  A    between atoms: C_25  and  C_28 
ROOT
HETATM    1  H           1     -20.010  -5.715  -5.994  0.00  0.00     0.163 HD
HETATM    2  O           1     -23.100  -5.196  -6.161  0.00  0.00    -0.271 OA
HETATM    3  C           1     -21.928  -5.064  -6.421  0.00  0.00     0.251 C 
HETATM    4  N           1     -20.992  -5.827  -5.775  0.00  0.00    -0.344 N 
ENDROOT
BRANCH   4   5
HETATM    5  C           1     -21.408  -6.793  -4.778  0.00  0.00     0.189 C 
BRANCH   5   6
HETATM    6  C           1     -21.583  -6.101  -3.449  0.00  0.00     0.197 C 
HETATM    7  O           1     -22.669  -6.191  -2.835  0.00  0.00    -0.646 OA
HETATM    8  O           1     -20.643  -5.438  -2.961  0.00  0.00    -0.646 OA
ENDBRANCH   5   6
BRANCH   5   9
HETATM    9  C           1     -20.347  -7.878  -4.650  0.00  0.00     0.074 C 
BRANCH   9  10
HETATM   10  C           1     -20.799  -8.905  -3.658  0.00  0.00    -0.056 A 
HETATM   11  C           1     -20.136  -9.037  -2.440  0.00  0.00     0.010 A 
HETATM   12  C           1     -20.557  -9.993  -1.515  0.00  0.00     0.037 A 
HETATM   13  C           1     -21.643 -10.817  -1.811  0.00  0.00     0.065 A 
HETATM   14  C           1     -22.308 -10.685  -3.031  0.00  0.00     0.037 A 
HETATM   15  C           1     -21.885  -9.728  -3.954  0.00  0.00     0.010 A 
BRANCH  13  16
HETATM   16  O           1     -22.053 -11.746  -0.913  0.00  0.00    -0.361 OA
HETATM   17  H           1     -22.359 -11.280  -0.118  0.00  0.00     0.217 HD
ENDBRANCH  13  16
ENDBRANCH   9  10
ENDBRANCH   5   9
ENDBRANCH   4   5
BRANCH   3  18
HETATM   18  C           1     -21.495  -4.058  -7.459  0.00  0.00     0.298 C 
BRANCH  18  19
HETATM   19  N           1     -20.006  -4.126  -7.630  0.00  0.00    -0.064 N 
HETATM   20  H           1     -19.665  -3.239  -8.067  0.00  0.00     0.275 HD
HETATM   21  H           1     -19.763  -4.934  -8.246  0.00  0.00     0.275 HD
HETATM   22  H           1     -19.553  -4.251  -6.697  0.00  0.00     0.275 HD
ENDBRANCH  18  19
BRANCH  18  23
HETATM   23  C           1     -22.172  -4.373  -8.786  0.00  0.00     0.224 C 
BRANCH  23  24
HETATM   24  O           1     -23.093  -3.362  -9.094  0.00  0.00    -0.287 OA
BRANCH  24  25
HETATM   25  P           1     -24.168  -3.710 -10.248  0.00  0.00     0.406 P 
HETATM   26  O           1     -23.867  -2.913 -11.459  0.00  0.00    -0.624 OA
HETATM   27  O           1     -24.092  -5.151 -10.574  0.00  0.00    -0.624 OA
BRANCH  25  28
HETATM   28  O           1     -25.654  -3.353  -9.725  0.00  0.00    -0.300 OA
HETATM   29  H           1     -25.533  -2.652  -9.107  0.00  0.00     0.223 HD
ENDBRANCH  25  28
ENDBRANCH  24  25
ENDBRANCH  23  24
ENDBRANCH  18  23
ENDBRANCH   3  18
TORSDOF 11
ENDMDL
MODEL 8
REMARK VINA RESULT:      -6.1     10.789     13.491
REMARK  11 active torsions:
REMARK  status: ('A' for Active; 'I' for Inactive)
REMARK    1  A    between atoms: C_2  and  O_3 
REMARK    2  A    between atoms: N_11  and  C_18 
REMARK    3  A    between atoms: O_14  and  P_15 
REMARK    4  A    between atoms: P_15  and  O_16 
REMARK    5  A    between atoms: O_16  and  C_17 
REMARK    6  A    between atoms: C_17  and  C_18 
REMARK    7  A    between atoms: C_18  and  C_19 
REMARK       I    between atoms: C_19  and  N_20 
REMARK    8  A    between atoms: N_20  and  C_24 
REMARK    9  A    between atoms: C_23  and  C_24 
REMARK   10  A    between atoms: C_24  and  C_25 
REMARK   11  A    between atoms: C_25  and  C_28 
ROOT
HETATM    1  H           1     -32.359  -6.659 -16.621  0.00  0.00     0.163 HD
HETATM    2  O           1     -31.384  -3.700 -16.986  0.00  0.00    -0.271 OA
HETATM    3  C           1     -32.141  -4.604 -16.724  0.00  0.00     0.251 C 
HETATM    4  N           1     -31.724  -5.903 -16.841  0.00  0.00    -0.344 N 
ENDROOT
BRANCH   4   5
HETATM    5  C           1     -30.373  -6.193 -17.280  0.00  0.00     0.189 C 
BRANCH   5   6
HETATM    6  C           1     -30.337  -7.556 -17.927  0.00  0.00     0.197 C 
HETATM    7  O           1     -30.906  -7.742 -19.024  0.00  0.00    -0.646 OA
HETATM    8  O           1     -29.738  -8.499 -17.366  0.00  0.00    -0.646 OA
ENDBRANCH   5   6
BRANCH   5   9
HETATM    9  C           1     -29.435  -6.174 -16.081  0.00  0.00     0.074 C 
BRANCH   9  10
HETATM   10  C           1     -28.023  -6.351 -16.548  0.00  0.00    -0.056 A 
HETATM   11  C           1     -27.038  -6.763 -15.652  0.00  0.00     0.010 A 
HETATM   12  C           1     -25.723  -6.929 -16.087  0.00  0.00     0.037 A 
HETATM   13  C           1     -25.395  -6.683 -17.420  0.00  0.00     0.065 A 
HETATM   14  C           1     -26.380  -6.270 -18.318  0.00  0.00     0.037 A 
HETATM   15  C           1     -27.695  -6.105 -17.881  0.00  0.00     0.010 A 
BRANCH  13  16
HETATM   16  O           1     -24.117  -6.843 -17.843  0.00  0.00    -0.361 OA
HETATM   17  H           1     -23.848  -6.030 -18.300  0.00  0.00     0.217 HD
ENDBRANCH  13  16
ENDBRANCH   9  10
ENDBRANCH   5   9
ENDBRANCH   4   5
BRANCH   3  18
HETATM   18  C           1     -33.547  -4.302 -16.267  0.00  0.00     0.298 C 
BRANCH  18  19
HETATM   19  N           1     -33.584  -4.245 -14.768  0.00  0.00    -0.064 N 
HETATM   20  H           1     -33.073  -3.394 -14.439  0.00  0.00     0.275 HD
HETATM   21  H           1     -33.128  -5.099 -14.376  0.00  0.00     0.275 HD
HETATM   22  H           1     -34.577  -4.200 -14.445  0.00  0.00     0.275 HD
ENDBRANCH  18  19
BRANCH  18  23
HETATM   23  C           1     -33.989  -2.960 -16.836  0.00  0.00     0.224 C 
BRANCH  23  24
HETATM   24  O           1     -35.321  -2.713 -16.476  0.00  0.00    -0.287 OA
BRANCH  24  25
HETATM   25  P           1     -35.694  -1.177 -16.150  0.00  0.00     0.406 P 
HETATM   26  O           1     -36.365  -1.101 -14.833  0.00  0.00    -0.624 OA
HETATM   27  O           1     -34.458  -0.365 -16.122  0.00  0.00    -0.624 OA
BRANCH  25  28
HETATM   28  O           1     -36.685  -0.609 -17.292  0.00  0.00    -0.300 OA
HETATM   29  H           1     -37.469  -1.128 -17.215  0.00  0.00     0.223 HD
ENDBRANCH  25  28
ENDBRANCH  24  25
ENDBRANCH  23  24
ENDBRANCH  18  23
ENDBRANCH   3  18
TORSDOF 11
ENDMDL
MODEL 9
REMARK VINA RESULT:      -6.1      4.666      8.743
REMARK  11 active torsions:
REMARK  status: ('A' for Active; 'I' for Inactive)
REMARK    1  A    between atoms: C_2  and  O_3 
REMARK    2  A    between atoms: N_11  and  C_18 
REMARK    3  A    between atoms: O_14  and  P_15 
REMARK    4  A    between atoms: P_15  and  O_16 
REMARK    5  A    between atoms: O_16  and  C_17 
REMARK    6  A    between atoms: C_17  and  C_18 
REMARK    7  A    between atoms: C_18  and  C_19 
REMARK       I    between atoms: C_19  and  N_20 
REMARK    8  A    between atoms: N_20  and  C_24 
REMARK    9  A    between atoms: C_23  and  C_24 
REMARK   10  A    between atoms: C_24  and  C_25 
REMARK   11  A    between atoms: C_25  and  C_28 
ROOT
HETATM    1  H           1     -22.497  -8.984  -3.827  0.00  0.00     0.163 HD
HETATM    2  O           1     -19.941  -8.844  -5.640  0.00  0.00    -0.271 OA
HETATM    3  C           1     -20.893  -9.338  -5.086  0.00  0.00     0.251 C 
HETATM    4  N           1     -21.700  -8.568  -4.291  0.00  0.00    -0.344 N 
ENDROOT
BRANCH   4   5
HETATM    5  C           1     -21.411  -7.158  -4.115  0.00  0.00     0.189 C 
BRANCH   5   6
HETATM    6  C           1     -21.511  -6.803  -2.653  0.00  0.00     0.197 C 
HETATM    7  O           1     -22.325  -5.933  -2.275  0.00  0.00    -0.646 OA
HETATM    8  O           1     -20.781  -7.380  -1.818  0.00  0.00    -0.646 OA
ENDBRANCH   5   6
BRANCH   5   9
HETATM    9  C           1     -22.414  -6.332  -4.910  0.00  0.00     0.074 C 
BRANCH   9  10
HETATM   10  C           1     -21.694  -5.555  -5.968  0.00  0.00    -0.056 A 
HETATM   11  C           1     -22.417  -4.854  -6.932  0.00  0.00     0.010 A 
HETATM   12  C           1     -21.746  -4.129  -7.918  0.00  0.00     0.037 A 
HETATM   13  C           1     -20.352  -4.106  -7.938  0.00  0.00     0.065 A 
HETATM   14  C           1     -19.628  -4.808  -6.973  0.00  0.00     0.037 A 
HETATM   15  C           1     -20.300  -5.532  -5.988  0.00  0.00     0.010 A 
BRANCH  13  16
HETATM   16  O           1     -19.700  -3.403  -8.895  0.00  0.00    -0.361 OA
HETATM   17  H           1     -18.822  -3.800  -9.015  0.00  0.00     0.217 HD
ENDBRANCH  13  16
ENDBRANCH   9  10
ENDBRANCH   5   9
ENDBRANCH   4   5
BRANCH   3  18
HETATM   18  C           1     -21.194 -10.806  -5.268  0.00  0.00     0.298 C 
BRANCH  18  19
HETATM   19  N           1     -19.924 -11.543  -5.572  0.00  0.00    -0.064 N 
HETATM   20  H           1     -20.152 -12.503  -5.918  0.00  0.00     0.275 HD
HETATM   21  H           1     -19.346 -11.613  -4.704  0.00  0.00     0.275 HD
HETATM   22  H           1     -19.388 -11.026  -6.305  0.00  0.00     0.275 HD
ENDBRANCH  18  19
BRANCH  18  23
HETATM   23  C           1     -21.809 -11.361  -3.990  0.00  0.00     0.224 C 
BRANCH  23  24
HETATM   24  O           1     -20.879 -11.271  -2.945  0.00  0.00    -0.287 OA
BRANCH  24  25
HETATM   25  P           1     -21.481 -10.916  -1.490  0.00  0.00     0.406 P 
HETATM   26  O           1     -22.709 -10.104  -1.649  0.00  0.00    -0.624 OA
HETATM   27  O           1     -21.808 -12.169  -0.773  0.00  0.00    -0.624 OA
BRANCH  25  28
HETATM   28  O           1     -20.389 -10.080  -0.643  0.00  0.00    -0.300 OA
HETATM   29  H           1     -19.589 -10.156  -1.135  0.00  0.00     0.223 HD
ENDBRANCH  25  28
ENDBRANCH  24  25
ENDBRANCH  23  24
ENDBRANCH  18  23
ENDBRANCH   3  18
TORSDOF 11
ENDMDL
