MODEL 1
REMARK VINA RESULT:      -6.8      0.000      0.000
REMARK  12 active torsions:
REMARK  status: ('A' for Active; 'I' for Inactive)
REMARK    1  A    between atoms: C_2  and  C_4 
REMARK    2  A    between atoms: C_4  and  C_5 
REMARK    3  A    between atoms: C_4  and  N_11 
REMARK    4  A    between atoms: C_5  and  O_6 
REMARK    5  A    between atoms: O_6  and  P_7 
REMARK    6  A    between atoms: P_7  and  O_9 
REMARK       I    between atoms: N_11  and  C_12 
REMARK    7  A    between atoms: C_12  and  C_13 
REMARK    8  A    between atoms: C_13  and  C_14 
REMARK    9  A    between atoms: C_13  and  N_20 
REMARK   10  A    between atoms: C_14  and  O_15 
REMARK   11  A    between atoms: O_15  and  P_16 
REMARK   12  A    between atoms: P_16  and  O_17 
ROOT
HETATM    1  N           1     -21.765  -4.408  -9.570  0.00  0.00    -0.343 N 
HETATM    2  C           1     -21.488  -4.152  -8.253  0.00  0.00     0.251 C 
HETATM    3  O           1     -21.941  -3.166  -7.721  0.00  0.00    -0.271 OA
HETATM    4  H           1     -21.386  -5.234 -10.015  0.00  0.00     0.163 HD
ENDROOT
BRANCH   2   5
HETATM    5  C           1     -20.615  -5.099  -7.468  0.00  0.00     0.298 C 
BRANCH   5   6
HETATM    6  C           1     -20.792  -4.836  -5.978  0.00  0.00     0.224 C 
BRANCH   6   7
HETATM    7  O           1     -20.584  -6.026  -5.266  0.00  0.00    -0.287 OA
BRANCH   7   8
HETATM    8  P           1     -21.852  -6.589  -4.438  0.00  0.00     0.406 P 
HETATM    9  O           1     -21.793  -8.066  -4.390  0.00  0.00    -0.624 OA
HETATM   10  O           1     -23.103  -6.164  -5.106  0.00  0.00    -0.624 OA
BRANCH   8  11
HETATM   11  O           1     -21.820  -5.999  -2.935  0.00  0.00    -0.300 OA
HETATM   12  H           1     -21.719  -6.753  -2.379  0.00  0.00     0.223 HD
ENDBRANCH   8  11
ENDBRANCH   7   8
ENDBRANCH   6   7
ENDBRANCH   5   6
BRANCH   5  13
HETATM   13  N           1     -19.180  -4.886  -7.846  0.00  0.00    -0.064 N 
HETATM   14  H           1     -18.998  -3.863  -7.962  0.00  0.00     0.275 HD
HETATM   15  H           1     -18.561  -5.266  -7.094  0.00  0.00     0.275 HD
HETATM   16  H           1     -18.980  -5.379  -8.745  0.00  0.00     0.275 HD
ENDBRANCH   5  13
ENDBRANCH   2   5
BRANCH   1  17
HETATM   17  C           1     -22.604  -3.497 -10.324  0.00  0.00     0.210 C 
BRANCH  17  18
HETATM   18  C           1     -24.054  -3.853 -10.106  0.00  0.00     0.198 C 
HETATM   19  O           1     -24.436  -5.035 -10.244  0.00  0.00    -0.646 OA
HETATM   20  O           1     -24.874  -2.965  -9.786  0.00  0.00    -0.646 OA
ENDBRANCH  17  18
BRANCH  17  21
HETATM   21  C           1     -22.270  -3.611 -11.806  0.00  0.00     0.217 C 
BRANCH  21  22
HETATM   22  O           1     -22.700  -2.454 -12.473  0.00  0.00    -0.287 OA
BRANCH  22  23
HETATM   23  P           1     -23.558  -2.691 -13.820  0.00  0.00     0.406 P 
HETATM   24  O           1     -24.383  -3.911 -13.672  0.00  0.00    -0.624 OA
HETATM   25  O           1     -22.638  -2.855 -14.967  0.00  0.00    -0.624 OA
BRANCH  23  26
HETATM   26  O           1     -24.520  -1.420 -14.075  0.00  0.00    -0.300 OA
HETATM   27  H           1     -25.370  -1.788 -14.248  0.00  0.00     0.223 HD
ENDBRANCH  23  26
ENDBRANCH  22  23
ENDBRANCH  21  22
ENDBRANCH  17  21
ENDBRANCH   1  17
TORSDOF 12
ENDMDL
MODEL 2
REMARK VINA RESULT:      -6.6     12.071     15.009
REMARK  12 active torsions:
REMARK  status: ('A' for Active; 'I' for Inactive)
REMARK    1  A    between atoms: C_2  and  C_4 
REMARK    2  A    between atoms: C_4  and  C_5 
REMARK    3  A    between atoms: C_4  and  N_11 
REMARK    4  A    between atoms: C_5  and  O_6 
REMARK    5  A    between atoms: O_6  and  P_7 
REMARK    6  A    between atoms: P_7  and  O_9 
REMARK       I    between atoms: N_11  and  C_12 
REMARK    7  A    between atoms: C_12  and  C_13 
REMARK    8  A    between atoms: C_13  and  C_14 
REMARK    9  A    between atoms: C_13  and  N_20 
REMARK   10  A    between atoms: C_14  and  O_15 
REMARK   11  A    between atoms: O_15  and  P_16 
REMARK   12  A    between atoms: P_16  and  O_17 
ROOT
HETATM    1  N           1     -35.381  -2.498 -11.615  0.00  0.00    -0.343 N 
HETATM    2  C           1     -35.586  -1.145 -11.677  0.00  0.00     0.251 C 
HETATM    3  O           1     -34.642  -0.392 -11.730  0.00  0.00    -0.271 OA
HETATM    4  H           1     -36.172  -3.128 -11.572  0.00  0.00     0.163 HD
ENDROOT
BRANCH   2   5
HETATM    5  C           1     -36.990  -0.594 -11.677  0.00  0.00     0.298 C 
BRANCH   5   6
HETATM    6  C           1     -37.308  -0.013 -13.049  0.00  0.00     0.224 C 
BRANCH   6   7
HETATM    7  O           1     -36.930  -0.927 -14.043  0.00  0.00    -0.287 OA
BRANCH   7   8
HETATM    8  P           1     -36.096  -0.319 -15.285  0.00  0.00     0.406 P 
HETATM    9  O           1     -36.851   0.806 -15.880  0.00  0.00    -0.624 OA
HETATM   10  O           1     -35.891  -1.372 -16.304  0.00  0.00    -0.624 OA
BRANCH   8  11
HETATM   11  O           1     -34.663   0.212 -14.764  0.00  0.00    -0.300 OA
HETATM   12  H           1     -34.696   1.147 -14.866  0.00  0.00     0.223 HD
ENDBRANCH   8  11
ENDBRANCH   7   8
ENDBRANCH   6   7
ENDBRANCH   5   6
BRANCH   5  13
HETATM   13  N           1     -37.105   0.482 -10.639  0.00  0.00    -0.064 N 
HETATM   14  H           1     -36.163   0.668 -10.224  0.00  0.00     0.275 HD
HETATM   15  H           1     -37.467   1.356 -11.082  0.00  0.00     0.275 HD
HETATM   16  H           1     -37.761   0.172  -9.888  0.00  0.00     0.275 HD
ENDBRANCH   5  13
ENDBRANCH   2   5
BRANCH   1  17
HETATM   17  C           1     -34.031  -3.026 -11.615  0.00  0.00     0.210 C 
BRANCH  17  18
HETATM   18  C           1     -33.736  -3.650 -12.957  0.00  0.00     0.198 C 
HETATM   19  O           1     -32.738  -4.390 -13.097  0.00  0.00    -0.646 OA
HETATM   20  O           1     -34.490  -3.428 -13.930  0.00  0.00    -0.646 OA
ENDBRANCH  17  18
BRANCH  17  21
HETATM   21  C           1     -33.900  -4.081 -10.525  0.00  0.00     0.217 C 
BRANCH  21  22
HETATM   22  O           1     -34.972  -4.981 -10.612  0.00  0.00    -0.287 OA
BRANCH  22  23
HETATM   23  P           1     -34.579  -6.539 -10.767  0.00  0.00     0.406 P 
HETATM   24  O           1     -35.135  -7.304  -9.628  0.00  0.00    -0.624 OA
HETATM   25  O           1     -33.106  -6.677 -10.781  0.00  0.00    -0.624 OA
BRANCH  23  26
HETATM   26  O           1     -35.189  -7.113 -12.148  0.00  0.00    -0.300 OA
HETATM   27  H           1     -35.532  -6.357 -12.596  0.00  0.00     0.223 HD
ENDBRANCH  23  26
ENDBRANCH  22  23
ENDBRANCH  21  22
ENDBRANCH  17  21
ENDBRANCH   1  17
TORSDOF 12
ENDMDL
MODEL 3
REMARK VINA RESULT:      -6.4     10.390     12.750
REMARK  12 active torsions:
REMARK  status: ('A' for Active; 'I' for Inactive)
REMARK    1  A    between atoms: C_2  and  C_4 
REMARK    2  A    between atoms: C_4  and  C_5 
REMARK    3  A    between atoms: C_4  and  N_11 
REMARK    4  A    between atoms: C_5  and  O_6 
REMARK    5  A    between atoms: O_6  and  P_7 
REMARK    6  A    between atoms: P_7  and  O_9 
REMARK       I    between atoms: N_11  and  C_12 
REMARK    7  A    between atoms: C_12  and  C_13 
REMARK    8  A    between atoms: C_13  and  C_14 
REMARK    9  A    between atoms: C_13  and  N_20 
REMARK   10  A    between atoms: C_14  and  O_15 
REMARK   11  A    between atoms: O_15  and  P_16 
REMARK   12  A    between atoms: P_16  and  O_17 
ROOT
HETATM    1  N           1     -28.210  -6.680 -18.362  0.00  0.00    -0.343 N 
HETATM    2  C           1     -27.145  -6.348 -17.568  0.00  0.00     0.251 C 
HETATM    3  O           1     -27.315  -6.120 -16.393  0.00  0.00    -0.271 OA
HETATM    4  H           1     -28.067  -6.871 -19.346  0.00  0.00     0.163 HD
ENDROOT
BRANCH   2   5
HETATM    5  C           1     -25.759  -6.266 -18.159  0.00  0.00     0.298 C 
BRANCH   5   6
HETATM    6  C           1     -25.809  -6.659 -19.629  0.00  0.00     0.224 C 
BRANCH   6   7
HETATM    7  O           1     -24.513  -6.947 -20.081  0.00  0.00    -0.287 OA
BRANCH   7   8
HETATM    8  P           1     -24.410  -7.921 -21.364  0.00  0.00     0.406 P 
HETATM    9  O           1     -24.015  -7.132 -22.552  0.00  0.00    -0.624 OA
HETATM   10  O           1     -25.723  -8.559 -21.606  0.00  0.00    -0.624 OA
BRANCH   8  11
HETATM   11  O           1     -23.302  -9.064 -21.086  0.00  0.00    -0.300 OA
HETATM   12  H           1     -23.749  -9.719 -20.579  0.00  0.00     0.223 HD
ENDBRANCH   8  11
ENDBRANCH   7   8
ENDBRANCH   6   7
ENDBRANCH   5   6
BRANCH   5  13
HETATM   13  N           1     -24.846  -7.199 -17.422  0.00  0.00    -0.064 N 
HETATM   14  H           1     -25.272  -7.448 -16.500  0.00  0.00     0.275 HD
HETATM   15  H           1     -24.706  -8.067 -17.986  0.00  0.00     0.275 HD
HETATM   16  H           1     -23.924  -6.732 -17.264  0.00  0.00     0.275 HD
ENDBRANCH   5  13
ENDBRANCH   2   5
BRANCH   1  17
HETATM   17  C           1     -29.541  -6.758 -17.793  0.00  0.00     0.210 C 
BRANCH  17  18
HETATM   18  C           1     -30.351  -7.782 -18.551  0.00  0.00     0.198 C 
HETATM   19  O           1     -29.775  -8.710 -19.159  0.00  0.00    -0.646 OA
HETATM   20  O           1     -31.599  -7.702 -18.571  0.00  0.00    -0.646 OA
ENDBRANCH  17  18
BRANCH  17  21
HETATM   21  C           1     -30.217  -5.398 -17.896  0.00  0.00     0.217 C 
BRANCH  21  22
HETATM   22  O           1     -30.736  -5.036 -16.644  0.00  0.00    -0.287 OA
BRANCH  22  23
HETATM   23  P           1     -32.292  -4.607 -16.619  0.00  0.00     0.406 P 
HETATM   24  O           1     -32.501  -3.454 -17.524  0.00  0.00    -0.624 OA
HETATM   25  O           1     -32.676  -4.227 -15.242  0.00  0.00    -0.624 OA
BRANCH  23  26
HETATM   26  O           1     -33.200  -5.848 -17.111  0.00  0.00    -0.300 OA
HETATM   27  H           1     -33.222  -6.440 -16.378  0.00  0.00     0.223 HD
ENDBRANCH  23  26
ENDBRANCH  22  23
ENDBRANCH  21  22
ENDBRANCH  17  21
ENDBRANCH   1  17
TORSDOF 12
ENDMDL
MODEL 4
REMARK VINA RESULT:      -6.2     11.359     13.616
REMARK  12 active torsions:
REMARK  status: ('A' for Active; 'I' for Inactive)
REMARK    1  A    between atoms: C_2  and  C_4 
REMARK    2  A    between atoms: C_4  and  C_5 
REMARK    3  A    between atoms: C_4  and  N_11 
REMARK    4  A    between atoms: C_5  and  O_6 
REMARK    5  A    between atoms: O_6  and  P_7 
REMARK    6  A    between atoms: P_7  and  O_9 
REMARK       I    between atoms: N_11  and  C_12 
REMARK    7  A    between atoms: C_12  and  C_13 
REMARK    8  A    between atoms: C_13  and  C_14 
REMARK    9  A    between atoms: C_13  and  N_20 
REMARK   10  A    between atoms: C_14  and  O_15 
REMARK   11  A    between atoms: O_15  and  P_16 
REMARK   12  A    between atoms: P_16  and  O_17 
ROOT
HETATM    1  N           1     -33.499  -3.721 -14.419  0.00  0.00    -0.343 N 
HETATM    2  C           1     -33.980  -4.455 -15.469  0.00  0.00     0.251 C 
HETATM    3  O           1     -35.002  -5.089 -15.347  0.00  0.00    -0.271 OA
HETATM    4  H           1     -32.644  -3.190 -14.522  0.00  0.00     0.163 HD
ENDROOT
BRANCH   2   5
HETATM    5  C           1     -33.234  -4.475 -16.781  0.00  0.00     0.298 C 
BRANCH   5   6
HETATM    6  C           1     -31.777  -4.843 -16.531  0.00  0.00     0.224 C 
BRANCH   6   7
HETATM    7  O           1     -31.507  -6.095 -17.103  0.00  0.00    -0.287 OA
BRANCH   7   8
HETATM    8  P           1     -29.947  -6.498 -17.221  0.00  0.00     0.406 P 
HETATM    9  O           1     -29.832  -7.952 -17.466  0.00  0.00    -0.624 OA
HETATM   10  O           1     -29.251  -6.150 -15.962  0.00  0.00    -0.624 OA
BRANCH   8  11
HETATM   11  O           1     -29.273  -5.691 -18.447  0.00  0.00    -0.300 OA
HETATM   12  H           1     -29.896  -5.021 -18.671  0.00  0.00     0.223 HD
ENDBRANCH   8  11
ENDBRANCH   7   8
ENDBRANCH   6   7
ENDBRANCH   5   6
BRANCH   5  13
HETATM   13  N           1     -33.306  -3.119 -17.417  0.00  0.00    -0.064 N 
HETATM   14  H           1     -32.440  -2.579 -17.185  0.00  0.00     0.275 HD
HETATM   15  H           1     -33.382  -3.224 -18.453  0.00  0.00     0.275 HD
HETATM   16  H           1     -34.142  -2.609 -17.054  0.00  0.00     0.275 HD
ENDBRANCH   5  13
ENDBRANCH   2   5
BRANCH   1  17
HETATM   17  C           1     -34.217  -3.702 -13.159  0.00  0.00     0.210 C 
BRANCH  17  18
HETATM   18  C           1     -34.992  -2.412 -13.042  0.00  0.00     0.198 C 
HETATM   19  O           1     -34.893  -1.540 -13.932  0.00  0.00    -0.646 OA
HETATM   20  O           1     -35.733  -2.215 -12.054  0.00  0.00    -0.646 OA
ENDBRANCH  17  18
BRANCH  17  21
HETATM   21  C           1     -33.225  -3.805 -12.009  0.00  0.00     0.217 C 
BRANCH  21  22
HETATM   22  O           1     -33.057  -5.152 -11.654  0.00  0.00    -0.287 OA
BRANCH  22  23
HETATM   23  P           1     -34.399  -5.949 -11.243  0.00  0.00     0.406 P 
HETATM   24  O           1     -35.285  -5.055 -10.464  0.00  0.00    -0.624 OA
HETATM   25  O           1     -34.042  -7.127 -10.422  0.00  0.00    -0.624 OA
BRANCH  23  26
HETATM   26  O           1     -35.167  -6.434 -12.579  0.00  0.00    -0.300 OA
HETATM   27  H           1     -34.494  -6.800 -13.128  0.00  0.00     0.223 HD
ENDBRANCH  23  26
ENDBRANCH  22  23
ENDBRANCH  21  22
ENDBRANCH  17  21
ENDBRANCH   1  17
TORSDOF 12
ENDMDL
MODEL 5
REMARK VINA RESULT:      -6.0      1.764      2.506
REMARK  12 active torsions:
REMARK  status: ('A' for Active; 'I' for Inactive)
REMARK    1  A    between atoms: C_2  and  C_4 
REMARK    2  A    between atoms: C_4  and  C_5 
REMARK    3  A    between atoms: C_4  and  N_11 
REMARK    4  A    between atoms: C_5  and  O_6 
REMARK    5  A    between atoms: O_6  and  P_7 
REMARK    6  A    between atoms: P_7  and  O_9 
REMARK       I    between atoms: N_11  and  C_12 
REMARK    7  A    between atoms: C_12  and  C_13 
REMARK    8  A    between atoms: C_13  and  C_14 
REMARK    9  A    between atoms: C_13  and  N_20 
REMARK   10  A    between atoms: C_14  and  O_15 
REMARK   11  A    between atoms: O_15  and  P_16 
REMARK   12  A    between atoms: P_16  and  O_17 
ROOT
HETATM    1  N           1     -22.741  -4.556  -8.015  0.00  0.00    -0.343 N 
HETATM    2  C           1     -21.743  -4.269  -7.122  0.00  0.00     0.251 C 
HETATM    3  O           1     -21.099  -3.254  -7.241  0.00  0.00    -0.271 OA
HETATM    4  H           1     -23.280  -5.406  -7.915  0.00  0.00     0.163 HD
ENDROOT
BRANCH   2   5
HETATM    5  C           1     -21.446  -5.222  -5.991  0.00  0.00     0.298 C 
BRANCH   5   6
HETATM    6  C           1     -20.541  -6.340  -6.492  0.00  0.00     0.224 C 
BRANCH   6   7
HETATM    7  O           1     -21.234  -7.558  -6.448  0.00  0.00    -0.287 OA
BRANCH   7   8
HETATM    8  P           1     -20.825  -8.565  -5.253  0.00  0.00     0.406 P 
HETATM    9  O           1     -21.769  -8.401  -4.126  0.00  0.00    -0.624 OA
HETATM   10  O           1     -19.451  -8.256  -4.798  0.00  0.00    -0.624 OA
BRANCH   8  11
HETATM   11  O           1     -20.884 -10.088  -5.788  0.00  0.00    -0.300 OA
HETATM   12  H           1     -21.774 -10.215  -6.066  0.00  0.00     0.223 HD
ENDBRANCH   8  11
ENDBRANCH   7   8
ENDBRANCH   6   7
ENDBRANCH   5   6
BRANCH   5  13
HETATM   13  N           1     -22.729  -5.807  -5.481  0.00  0.00    -0.064 N 
HETATM   14  H           1     -23.475  -5.075  -5.493  0.00  0.00     0.275 HD
HETATM   15  H           1     -23.015  -6.605  -6.092  0.00  0.00     0.275 HD
HETATM   16  H           1     -22.591  -6.148  -4.503  0.00  0.00     0.275 HD
ENDBRANCH   5  13
ENDBRANCH   2   5
BRANCH   1  17
HETATM   17  C           1     -23.025  -3.640  -9.102  0.00  0.00     0.210 C 
BRANCH  17  18
HETATM   18  C           1     -24.495  -3.705  -9.441  0.00  0.00     0.198 C 
HETATM   19  O           1     -25.203  -2.679  -9.352  0.00  0.00    -0.646 OA
HETATM   20  O           1     -25.003  -4.786  -9.813  0.00  0.00    -0.646 OA
ENDBRANCH  17  18
BRANCH  17  21
HETATM   21  C           1     -22.204  -4.031 -10.323  0.00  0.00     0.217 C 
BRANCH  21  22
HETATM   22  O           1     -22.293  -3.020 -11.291  0.00  0.00    -0.287 OA
BRANCH  22  23
HETATM   23  P           1     -23.192  -3.359 -12.589  0.00  0.00     0.406 P 
HETATM   24  O           1     -22.428  -3.038 -13.816  0.00  0.00    -0.624 OA
HETATM   25  O           1     -24.431  -2.552 -12.555  0.00  0.00    -0.624 OA
BRANCH  23  26
HETATM   26  O           1     -23.568  -4.930 -12.586  0.00  0.00    -0.300 OA
HETATM   27  H           1     -23.866  -5.110 -13.462  0.00  0.00     0.223 HD
ENDBRANCH  23  26
ENDBRANCH  22  23
ENDBRANCH  21  22
ENDBRANCH  17  21
ENDBRANCH   1  17
TORSDOF 12
ENDMDL
MODEL 6
REMARK VINA RESULT:      -6.0     12.124     14.946
REMARK  12 active torsions:
REMARK  status: ('A' for Active; 'I' for Inactive)
REMARK    1  A    between atoms: C_2  and  C_4 
REMARK    2  A    between atoms: C_4  and  C_5 
REMARK    3  A    between atoms: C_4  and  N_11 
REMARK    4  A    between atoms: C_5  and  O_6 
REMARK    5  A    between atoms: O_6  and  P_7 
REMARK    6  A    between atoms: P_7  and  O_9 
REMARK       I    between atoms: N_11  and  C_12 
REMARK    7  A    between atoms: C_12  and  C_13 
REMARK    8  A    between atoms: C_13  and  C_14 
REMARK    9  A    between atoms: C_13  and  N_20 
REMARK   10  A    between atoms: C_14  and  O_15 
REMARK   11  A    between atoms: O_15  and  P_16 
REMARK   12  A    between atoms: P_16  and  O_17 
ROOT
HETATM    1  N           1     -34.338  -2.928 -13.403  0.00  0.00    -0.343 N 
HETATM    2  C           1     -34.397  -3.849 -14.415  0.00  0.00     0.251 C 
HETATM    3  O           1     -34.893  -4.933 -14.218  0.00  0.00    -0.271 OA
HETATM    4  H           1     -33.923  -2.020 -13.569  0.00  0.00     0.163 HD
ENDROOT
BRANCH   2   5
HETATM    5  C           1     -33.841  -3.511 -15.777  0.00  0.00     0.298 C 
BRANCH   5   6
HETATM    6  C           1     -34.858  -2.682 -16.550  0.00  0.00     0.224 C 
BRANCH   6   7
HETATM    7  O           1     -34.711  -1.329 -16.214  0.00  0.00    -0.287 OA
BRANCH   7   8
HETATM    8  P           1     -36.074  -0.526 -15.889  0.00  0.00     0.406 P 
HETATM    9  O           1     -35.819   0.929 -15.967  0.00  0.00    -0.624 OA
HETATM   10  O           1     -36.539  -0.876 -14.528  0.00  0.00    -0.624 OA
BRANCH   8  11
HETATM   11  O           1     -37.208  -0.931 -16.965  0.00  0.00    -0.300 OA
HETATM   12  H           1     -37.090  -1.854 -17.108  0.00  0.00     0.223 HD
ENDBRANCH   8  11
ENDBRANCH   7   8
ENDBRANCH   6   7
ENDBRANCH   5   6
BRANCH   5  13
HETATM   13  N           1     -33.553  -4.777 -16.527  0.00  0.00    -0.064 N 
HETATM   14  H           1     -32.541  -5.019 -16.426  0.00  0.00     0.275 HD
HETATM   15  H           1     -34.136  -5.552 -16.139  0.00  0.00     0.275 HD
HETATM   16  H           1     -33.780  -4.641 -17.538  0.00  0.00     0.275 HD
ENDBRANCH   5  13
ENDBRANCH   2   5
BRANCH   1  17
HETATM   17  C           1     -34.872  -3.254 -12.096  0.00  0.00     0.210 C 
BRANCH  17  18
HETATM   18  C           1     -35.348  -1.992 -11.419  0.00  0.00     0.198 C 
HETATM   19  O           1     -36.503  -1.934 -10.945  0.00  0.00    -0.646 OA
HETATM   20  O           1     -34.587  -1.003 -11.333  0.00  0.00    -0.646 OA
ENDBRANCH  17  18
BRANCH  17  21
HETATM   21  C           1     -33.784  -3.904 -11.251  0.00  0.00     0.217 C 
BRANCH  21  22
HETATM   22  O           1     -34.368  -4.791 -10.335  0.00  0.00    -0.287 OA
BRANCH  22  23
HETATM   23  P           1     -34.278  -6.359 -10.712  0.00  0.00     0.406 P 
HETATM   24  O           1     -34.923  -7.160  -9.647  0.00  0.00    -0.624 OA
HETATM   25  O           1     -32.858  -6.755 -10.834  0.00  0.00    -0.624 OA
BRANCH  23  26
HETATM   26  O           1     -35.035  -6.620 -12.114  0.00  0.00    -0.300 OA
HETATM   27  H           1     -34.348  -6.799 -12.733  0.00  0.00     0.223 HD
ENDBRANCH  23  26
ENDBRANCH  22  23
ENDBRANCH  21  22
ENDBRANCH  17  21
ENDBRANCH   1  17
TORSDOF 12
ENDMDL
MODEL 7
REMARK VINA RESULT:      -5.9      2.234      8.263
REMARK  12 active torsions:
REMARK  status: ('A' for Active; 'I' for Inactive)
REMARK    1  A    between atoms: C_2  and  C_4 
REMARK    2  A    between atoms: C_4  and  C_5 
REMARK    3  A    between atoms: C_4  and  N_11 
REMARK    4  A    between atoms: C_5  and  O_6 
REMARK    5  A    between atoms: O_6  and  P_7 
REMARK    6  A    between atoms: P_7  and  O_9 
REMARK       I    between atoms: N_11  and  C_12 
REMARK    7  A    between atoms: C_12  and  C_13 
REMARK    8  A    between atoms: C_13  and  C_14 
REMARK    9  A    between atoms: C_13  and  N_20 
REMARK   10  A    between atoms: C_14  and  O_15 
REMARK   11  A    between atoms: O_15  and  P_16 
REMARK   12  A    between atoms: P_16  and  O_17 
ROOT
HETATM    1  N           1     -21.383  -5.747  -6.292  0.00  0.00    -0.343 N 
HETATM    2  C           1     -20.566  -4.830  -6.898  0.00  0.00     0.251 C 
HETATM    3  O           1     -19.452  -4.638  -6.472  0.00  0.00    -0.271 OA
HETATM    4  H           1     -22.316  -5.908  -6.650  0.00  0.00     0.163 HD
ENDROOT
BRANCH   2   5
HETATM    5  C           1     -21.058  -4.058  -8.097  0.00  0.00     0.298 C 
BRANCH   5   6
HETATM    6  C           1     -22.539  -4.338  -8.310  0.00  0.00     0.224 C 
BRANCH   6   7
HETATM    7  O           1     -23.116  -3.281  -9.028  0.00  0.00    -0.287 OA
BRANCH   7   8
HETATM    8  P           1     -24.163  -3.698 -10.185  0.00  0.00     0.406 P 
HETATM    9  O           1     -24.055  -5.150 -10.447  0.00  0.00    -0.624 OA
HETATM   10  O           1     -23.855  -2.947 -11.423  0.00  0.00    -0.624 OA
BRANCH   8  11
HETATM   11  O           1     -25.665  -3.348  -9.705  0.00  0.00    -0.300 OA
HETATM   12  H           1     -26.143  -4.155  -9.789  0.00  0.00     0.223 HD
ENDBRANCH   8  11
ENDBRANCH   7   8
ENDBRANCH   6   7
ENDBRANCH   5   6
BRANCH   5  13
HETATM   13  N           1     -20.289  -4.482  -9.313  0.00  0.00    -0.064 N 
HETATM   14  H           1     -19.602  -3.736  -9.569  0.00  0.00     0.275 HD
HETATM   15  H           1     -19.778  -5.370  -9.110  0.00  0.00     0.275 HD
HETATM   16  H           1     -20.951  -4.633 -10.108  0.00  0.00     0.275 HD
ENDBRANCH   5  13
ENDBRANCH   2   5
BRANCH   1  17
HETATM   17  C           1     -20.909  -6.489  -5.140  0.00  0.00     0.210 C 
BRANCH  17  18
HETATM   18  C           1     -20.443  -7.855  -5.579  0.00  0.00     0.198 C 
HETATM   19  O           1     -21.233  -8.823  -5.556  0.00  0.00    -0.646 OA
HETATM   20  O           1     -19.265  -8.019  -5.967  0.00  0.00    -0.646 OA
ENDBRANCH  17  18
BRANCH  17  21
HETATM   21  C           1     -22.042  -6.638  -4.133  0.00  0.00     0.217 C 
BRANCH  21  22
HETATM   22  O           1     -21.558  -6.382  -2.842  0.00  0.00    -0.287 OA
BRANCH  22  23
HETATM   23  P           1     -21.406  -7.666  -1.875  0.00  0.00     0.406 P 
HETATM   24  O           1     -22.169  -7.438  -0.627  0.00  0.00    -0.624 OA
HETATM   25  O           1     -19.978  -7.870  -1.548  0.00  0.00    -0.624 OA
BRANCH  23  26
HETATM   26  O           1     -21.982  -8.975  -2.625  0.00  0.00    -0.300 OA
HETATM   27  H           1     -21.474  -9.694  -2.286  0.00  0.00     0.223 HD
ENDBRANCH  23  26
ENDBRANCH  22  23
ENDBRANCH  21  22
ENDBRANCH  17  21
ENDBRANCH   1  17
TORSDOF 12
ENDMDL
MODEL 8
REMARK VINA RESULT:      -5.7      3.058      4.509
REMARK  12 active torsions:
REMARK  status: ('A' for Active; 'I' for Inactive)
REMARK    1  A    between atoms: C_2  and  C_4 
REMARK    2  A    between atoms: C_4  and  C_5 
REMARK    3  A    between atoms: C_4  and  N_11 
REMARK    4  A    between atoms: C_5  and  O_6 
REMARK    5  A    between atoms: O_6  and  P_7 
REMARK    6  A    between atoms: P_7  and  O_9 
REMARK       I    between atoms: N_11  and  C_12 
REMARK    7  A    between atoms: C_12  and  C_13 
REMARK    8  A    between atoms: C_13  and  C_14 
REMARK    9  A    between atoms: C_13  and  N_20 
REMARK   10  A    between atoms: C_14  and  O_15 
REMARK   11  A    between atoms: O_15  and  P_16 
REMARK   12  A    between atoms: P_16  and  O_17 
ROOT
HETATM    1  N           1     -20.848  -5.403  -5.775  0.00  0.00    -0.343 N 
HETATM    2  C           1     -21.724  -5.994  -4.904  0.00  0.00     0.251 C 
HETATM    3  O           1     -22.815  -6.345  -5.288  0.00  0.00    -0.271 OA
HETATM    4  H           1     -19.935  -5.110  -5.453  0.00  0.00     0.163 HD
ENDROOT
BRANCH   2   5
HETATM    5  C           1     -21.327  -6.207  -3.464  0.00  0.00     0.298 C 
BRANCH   5   6
HETATM    6  C           1     -20.880  -7.650  -3.267  0.00  0.00     0.224 C 
BRANCH   6   7
HETATM    7  O           1     -19.846  -7.945  -4.168  0.00  0.00    -0.287 OA
BRANCH   7   8
HETATM    8  P           1     -19.943  -9.374  -4.914  0.00  0.00     0.406 P 
HETATM    9  O           1     -18.749  -9.567  -5.766  0.00  0.00    -0.624 OA
HETATM   10  O           1     -21.162  -9.411  -5.752  0.00  0.00    -0.624 OA
BRANCH   8  11
HETATM   11  O           1     -20.013 -10.553  -3.812  0.00  0.00    -0.300 OA
HETATM   12  H           1     -19.117 -10.793  -3.653  0.00  0.00     0.223 HD
ENDBRANCH   8  11
ENDBRANCH   7   8
ENDBRANCH   6   7
ENDBRANCH   5   6
BRANCH   5  13
HETATM   13  N           1     -22.501  -5.922  -2.575  0.00  0.00    -0.064 N 
HETATM   14  H           1     -22.642  -6.722  -1.917  0.00  0.00     0.275 HD
HETATM   15  H           1     -22.321  -5.050  -2.029  0.00  0.00     0.275 HD
HETATM   16  H           1     -23.358  -5.798  -3.160  0.00  0.00     0.275 HD
ENDBRANCH   5  13
ENDBRANCH   2   5
BRANCH   1  17
HETATM   17  C           1     -21.230  -5.199  -7.159  0.00  0.00     0.210 C 
BRANCH  17  18
HETATM   18  C           1     -19.994  -4.953  -7.990  0.00  0.00     0.198 C 
HETATM   19  O           1     -20.023  -5.144  -9.225  0.00  0.00    -0.646 OA
HETATM   20  O           1     -18.942  -4.558  -7.442  0.00  0.00    -0.646 OA
ENDBRANCH  17  18
BRANCH  17  21
HETATM   21  C           1     -22.156  -3.993  -7.257  0.00  0.00     0.217 C 
BRANCH  21  22
HETATM   22  O           1     -23.397  -4.396  -7.772  0.00  0.00    -0.287 OA
BRANCH  22  23
HETATM   23  P           1     -23.734  -3.905  -9.272  0.00  0.00     0.406 P 
HETATM   24  O           1     -24.115  -5.072 -10.099  0.00  0.00    -0.624 OA
HETATM   25  O           1     -22.542  -3.255  -9.858  0.00  0.00    -0.624 OA
BRANCH  23  26
HETATM   26  O           1     -24.959  -2.853  -9.231  0.00  0.00    -0.300 OA
HETATM   27  H           1     -25.116  -2.626 -10.133  0.00  0.00     0.223 HD
ENDBRANCH  23  26
ENDBRANCH  22  23
ENDBRANCH  21  22
ENDBRANCH  17  21
ENDBRANCH   1  17
TORSDOF 12
ENDMDL
MODEL 9
REMARK VINA RESULT:      -5.7      1.796      8.347
REMARK  12 active torsions:
REMARK  status: ('A' for Active; 'I' for Inactive)
REMARK    1  A    between atoms: C_2  and  C_4 
REMARK    2  A    between atoms: C_4  and  C_5 
REMARK    3  A    between atoms: C_4  and  N_11 
REMARK    4  A    between atoms: C_5  and  O_6 
REMARK    5  A    between atoms: O_6  and  P_7 
REMARK    6  A    between atoms: P_7  and  O_9 
REMARK       I    between atoms: N_11  and  C_12 
REMARK    7  A    between atoms: C_12  and  C_13 
REMARK    8  A    between atoms: C_13  and  C_14 
REMARK    9  A    between atoms: C_13  and  N_20 
REMARK   10  A    between atoms: C_14  and  O_15 
REMARK   11  A    between atoms: O_15  and  P_16 
REMARK   12  A    between atoms: P_16  and  O_17 
ROOT
HETATM    1  N           1     -22.284  -5.411  -7.071  0.00  0.00    -0.343 N 
HETATM    2  C           1     -22.431  -4.283  -7.834  0.00  0.00     0.251 C 
HETATM    3  O           1     -21.841  -3.271  -7.536  0.00  0.00    -0.271 OA
HETATM    4  H           1     -22.778  -6.258  -7.321  0.00  0.00     0.163 HD
ENDROOT
BRANCH   2   5
HETATM    5  C           1     -23.330  -4.302  -9.045  0.00  0.00     0.298 C 
BRANCH   5   6
HETATM    6  C           1     -22.502  -4.053 -10.298  0.00  0.00     0.224 C 
BRANCH   6   7
HETATM    7  O           1     -23.013  -2.941 -10.983  0.00  0.00    -0.287 OA
BRANCH   7   8
HETATM    8  P           1     -23.856  -3.259 -12.323  0.00  0.00     0.406 P 
HETATM    9  O           1     -23.385  -2.386 -13.420  0.00  0.00    -0.624 OA
HETATM   10  O           1     -25.293  -3.009 -12.072  0.00  0.00    -0.624 OA
BRANCH   8  11
HETATM   11  O           1     -23.645  -4.806 -12.738  0.00  0.00    -0.300 OA
HETATM   12  H           1     -23.850  -4.843 -13.655  0.00  0.00     0.223 HD
ENDBRANCH   8  11
ENDBRANCH   7   8
ENDBRANCH   6   7
ENDBRANCH   5   6
BRANCH   5  13
HETATM   13  N           1     -24.371  -3.231  -8.911  0.00  0.00    -0.064 N 
HETATM   14  H           1     -24.314  -2.586  -9.733  0.00  0.00     0.275 HD
HETATM   15  H           1     -25.319  -3.668  -8.878  0.00  0.00     0.275 HD
HETATM   16  H           1     -24.203  -2.690  -8.033  0.00  0.00     0.275 HD
ENDBRANCH   5  13
ENDBRANCH   2   5
BRANCH   1  17
HETATM   17  C           1     -21.420  -5.391  -5.908  0.00  0.00     0.210 C 
BRANCH  17  18
HETATM   18  C           1     -19.994  -5.641  -6.337  0.00  0.00     0.198 C 
HETATM   19  O           1     -19.683  -6.728  -6.870  0.00  0.00    -0.646 OA
HETATM   20  O           1     -19.125  -4.760  -6.160  0.00  0.00    -0.646 OA
ENDBRANCH  17  18
BRANCH  17  21
HETATM   21  C           1     -21.855  -6.479  -4.935  0.00  0.00     0.217 C 
BRANCH  21  22
HETATM   22  O           1     -20.873  -6.644  -3.946  0.00  0.00    -0.287 OA
BRANCH  22  23
HETATM   23  P           1     -21.330  -7.445  -2.621  0.00  0.00     0.406 P 
HETATM   24  O           1     -22.367  -6.666  -1.907  0.00  0.00    -0.624 OA
HETATM   25  O           1     -20.162  -7.638  -1.734  0.00  0.00    -0.624 OA
BRANCH  23  26
HETATM   26  O           1     -21.933  -8.882  -3.042  0.00  0.00    -0.300 OA
HETATM   27  H           1     -22.348  -9.211  -2.262  0.00  0.00     0.223 HD
ENDBRANCH  23  26
ENDBRANCH  22  23
ENDBRANCH  21  22
ENDBRANCH  17  21
ENDBRANCH   1  17
TORSDOF 12
ENDMDL
