MODEL 1
REMARK VINA RESULT:      -7.8      0.000      0.000
REMARK  9 active torsions:
REMARK  status: ('A' for Active; 'I' for Inactive)
REMARK    1  A    between atoms: C_1  and  C_9 
REMARK    2  A    between atoms: C_1  and  C_18 
REMARK    3  A    between atoms: C_1  and  N_10 
REMARK    4  A    between atoms: C_3  and  C_8 
REMARK    5  A    between atoms: C_6  and  C_7 
REMARK    6  A    between atoms: C_6  and  C_8 
REMARK    7  A    between atoms: C_7  and  C_21 
REMARK    8  A    between atoms: C_8  and  N_12 
REMARK       I    between atoms: C_9  and  N_12 
REMARK    9  A    between atoms: C_18  and  C_25 
ROOT
HETATM    1  C           1     -21.753  -4.568  -7.971  0.00  0.00     0.249 C 
HETATM    2  N           1     -22.204  -4.847  -9.233  0.00  0.00    -0.345 N 
HETATM    3  O           1     -21.867  -3.453  -7.521  0.00  0.00    -0.271 OA
HETATM    4  H           1     -22.107  -5.781  -9.610  0.00  0.00     0.163 HD
ENDROOT
BRANCH   1   5
HETATM    5  C           1     -21.112  -5.654  -7.141  0.00  0.00     0.278 C 
BRANCH   5   6
HETATM    6  C           1     -20.917  -5.156  -5.715  0.00  0.00     0.081 C 
BRANCH   6   7
HETATM    7  C           1     -21.170  -6.277  -4.756  0.00  0.00    -0.056 A 
HETATM    8  C           1     -21.287  -7.585  -5.228  0.00  0.00     0.007 A 
HETATM    9  C           1     -21.523  -8.630  -4.335  0.00  0.00     0.001 A 
HETATM   10  C           1     -21.641  -8.368  -2.970  0.00  0.00     0.000 A 
HETATM   11  C           1     -21.522  -7.060  -2.499  0.00  0.00     0.001 A 
HETATM   12  C           1     -21.287  -6.016  -3.392  0.00  0.00     0.007 A 
ENDBRANCH   6   7
ENDBRANCH   5   6
BRANCH   5  13
HETATM   13  N           1     -19.781  -6.014  -7.732  0.00  0.00    -0.066 N 
HETATM   14  H           1     -19.452  -6.918  -7.324  0.00  0.00     0.275 HD
HETATM   15  H           1     -19.089  -5.262  -7.515  0.00  0.00     0.275 HD
HETATM   16  H           1     -19.876  -6.113  -8.768  0.00  0.00     0.275 HD
ENDBRANCH   5  13
ENDBRANCH   1   5
BRANCH   2  17
HETATM   17  C           1     -22.819  -3.804 -10.030  0.00  0.00     0.186 C 
BRANCH  17  18
HETATM   18  C           1     -24.307  -3.792  -9.780  0.00  0.00     0.196 C 
HETATM   19  O           1     -24.956  -4.860  -9.822  0.00  0.00    -0.646 OA
HETATM   20  O           1     -24.891  -2.716  -9.529  0.00  0.00    -0.646 OA
ENDBRANCH  17  18
BRANCH  17  21
HETATM   21  C           1     -22.556  -4.070 -11.506  0.00  0.00     0.046 C 
BRANCH  21  22
HETATM   22  C           1     -22.725  -2.778 -12.294  0.00  0.00     0.116 C 
BRANCH  22  23
HETATM   23  C           1     -23.816  -2.955 -13.323  0.00  0.00     0.172 C 
HETATM   24  O           1     -23.519  -3.152 -14.521  0.00  0.00    -0.648 OA
HETATM   25  O           1     -25.016  -2.906 -12.976  0.00  0.00    -0.648 OA
ENDBRANCH  22  23
ENDBRANCH  21  22
ENDBRANCH  17  21
ENDBRANCH   2  17
TORSDOF 9
ENDMDL
MODEL 2
REMARK VINA RESULT:      -7.5     11.934     13.637
REMARK  9 active torsions:
REMARK  status: ('A' for Active; 'I' for Inactive)
REMARK    1  A    between atoms: C_1  and  C_9 
REMARK    2  A    between atoms: C_1  and  C_18 
REMARK    3  A    between atoms: C_1  and  N_10 
REMARK    4  A    between atoms: C_3  and  C_8 
REMARK    5  A    between atoms: C_6  and  C_7 
REMARK    6  A    between atoms: C_6  and  C_8 
REMARK    7  A    between atoms: C_7  and  C_21 
REMARK    8  A    between atoms: C_8  and  N_12 
REMARK       I    between atoms: C_9  and  N_12 
REMARK    9  A    between atoms: C_18  and  C_25 
ROOT
HETATM    1  C           1     -34.428  -2.464 -12.206  0.00  0.00     0.249 C 
HETATM    2  N           1     -35.450  -1.766 -12.791  0.00  0.00    -0.345 N 
HETATM    3  O           1     -33.708  -1.920 -11.403  0.00  0.00    -0.271 OA
HETATM    4  H           1     -36.053  -2.221 -13.465  0.00  0.00     0.163 HD
ENDROOT
BRANCH   1   5
HETATM    5  C           1     -34.200  -3.911 -12.566  0.00  0.00     0.278 C 
BRANCH   5   6
HETATM    6  C           1     -33.100  -4.487 -11.684  0.00  0.00     0.081 C 
BRANCH   6   7
HETATM    7  C           1     -33.618  -5.695 -10.966  0.00  0.00    -0.056 A 
HETATM    8  C           1     -34.845  -5.639 -10.305  0.00  0.00     0.007 A 
HETATM    9  C           1     -35.328  -6.763  -9.636  0.00  0.00     0.001 A 
HETATM   10  C           1     -34.584  -7.943  -9.627  0.00  0.00     0.000 A 
HETATM   11  C           1     -33.357  -7.998 -10.288  0.00  0.00     0.001 A 
HETATM   12  C           1     -32.874  -6.874 -10.957  0.00  0.00     0.007 A 
ENDBRANCH   6   7
ENDBRANCH   5   6
BRANCH   5  13
HETATM   13  N           1     -33.788  -4.009 -14.005  0.00  0.00    -0.066 N 
HETATM   14  H           1     -33.029  -3.317 -14.199  0.00  0.00     0.275 HD
HETATM   15  H           1     -34.609  -3.805 -14.618  0.00  0.00     0.275 HD
HETATM   16  H           1     -33.438  -4.974 -14.202  0.00  0.00     0.275 HD
ENDBRANCH   5  13
ENDBRANCH   1   5
BRANCH   2  17
HETATM   17  C           1     -35.669  -0.375 -12.445  0.00  0.00     0.186 C 
BRANCH  17  18
HETATM   18  C           1     -36.685  -0.288 -11.333  0.00  0.00     0.196 C 
HETATM   19  O           1     -36.507   0.509 -10.385  0.00  0.00    -0.646 OA
HETATM   20  O           1     -37.705  -1.009 -11.360  0.00  0.00    -0.646 OA
ENDBRANCH  17  18
BRANCH  17  21
HETATM   21  C           1     -36.188   0.376 -13.665  0.00  0.00     0.046 C 
BRANCH  21  22
HETATM   22  C           1     -35.142   0.332 -14.771  0.00  0.00     0.116 C 
BRANCH  22  23
HETATM   23  C           1     -35.577  -0.644 -15.837  0.00  0.00     0.172 C 
HETATM   24  O           1     -36.342  -0.271 -16.752  0.00  0.00    -0.648 OA
HETATM   25  O           1     -35.170  -1.826 -15.806  0.00  0.00    -0.648 OA
ENDBRANCH  22  23
ENDBRANCH  21  22
ENDBRANCH  17  21
ENDBRANCH   2  17
TORSDOF 9
ENDMDL
MODEL 3
REMARK VINA RESULT:      -7.3      4.009      8.114
REMARK  9 active torsions:
REMARK  status: ('A' for Active; 'I' for Inactive)
REMARK    1  A    between atoms: C_1  and  C_9 
REMARK    2  A    between atoms: C_1  and  C_18 
REMARK    3  A    between atoms: C_1  and  N_10 
REMARK    4  A    between atoms: C_3  and  C_8 
REMARK    5  A    between atoms: C_6  and  C_7 
REMARK    6  A    between atoms: C_6  and  C_8 
REMARK    7  A    between atoms: C_7  and  C_21 
REMARK    8  A    between atoms: C_8  and  N_12 
REMARK       I    between atoms: C_9  and  N_12 
REMARK    9  A    between atoms: C_18  and  C_25 
ROOT
HETATM    1  C           1     -20.982  -6.206  -5.894  0.00  0.00     0.249 C 
HETATM    2  N           1     -21.344  -7.331  -5.204  0.00  0.00    -0.345 N 
HETATM    3  O           1     -19.851  -5.790  -5.822  0.00  0.00    -0.271 OA
HETATM    4  H           1     -22.292  -7.679  -5.263  0.00  0.00     0.163 HD
ENDROOT
BRANCH   1   5
HETATM    5  C           1     -21.998  -5.484  -6.745  0.00  0.00     0.278 C 
BRANCH   5   6
HETATM    6  C           1     -21.428  -4.144  -7.191  0.00  0.00     0.081 C 
BRANCH   6   7
HETATM    7  C           1     -21.466  -4.058  -8.686  0.00  0.00    -0.056 A 
HETATM    8  C           1     -20.326  -4.359  -9.430  0.00  0.00     0.007 A 
HETATM    9  C           1     -20.360  -4.280 -10.822  0.00  0.00     0.001 A 
HETATM   10  C           1     -21.536  -3.899 -11.470  0.00  0.00     0.000 A 
HETATM   11  C           1     -22.676  -3.599 -10.725  0.00  0.00     0.001 A 
HETATM   12  C           1     -22.641  -3.679  -9.333  0.00  0.00     0.007 A 
ENDBRANCH   6   7
ENDBRANCH   5   6
BRANCH   5  13
HETATM   13  N           1     -23.246  -5.254  -5.945  0.00  0.00    -0.066 N 
HETATM   14  H           1     -23.805  -4.488  -6.384  0.00  0.00     0.275 HD
HETATM   15  H           1     -22.991  -4.982  -4.969  0.00  0.00     0.275 HD
HETATM   16  H           1     -23.813  -6.131  -5.925  0.00  0.00     0.275 HD
ENDBRANCH   5  13
ENDBRANCH   1   5
BRANCH   2  17
HETATM   17  C           1     -20.367  -8.025  -4.386  0.00  0.00     0.186 C 
BRANCH  17  18
HETATM   18  C           1     -19.837  -9.218  -5.141  0.00  0.00     0.196 C 
HETATM   19  O           1     -18.620  -9.503  -5.085  0.00  0.00    -0.646 OA
HETATM   20  O           1     -20.613  -9.924  -5.821  0.00  0.00    -0.646 OA
ENDBRANCH  17  18
BRANCH  17  21
HETATM   21  C           1     -21.026  -8.493  -3.096  0.00  0.00     0.046 C 
BRANCH  21  22
HETATM   22  C           1     -20.827  -7.442  -2.012  0.00  0.00     0.116 C 
BRANCH  22  23
HETATM   23  C           1     -22.110  -6.671  -1.816  0.00  0.00     0.172 C 
HETATM   24  O           1     -22.753  -6.787  -0.750  0.00  0.00    -0.648 OA
HETATM   25  O           1     -22.530  -5.916  -2.719  0.00  0.00    -0.648 OA
ENDBRANCH  22  23
ENDBRANCH  21  22
ENDBRANCH  17  21
ENDBRANCH   2  17
TORSDOF 9
ENDMDL
MODEL 4
REMARK VINA RESULT:      -7.2     12.512     14.492
REMARK  9 active torsions:
REMARK  status: ('A' for Active; 'I' for Inactive)
REMARK    1  A    between atoms: C_1  and  C_9 
REMARK    2  A    between atoms: C_1  and  C_18 
REMARK    3  A    between atoms: C_1  and  N_10 
REMARK    4  A    between atoms: C_3  and  C_8 
REMARK    5  A    between atoms: C_6  and  C_7 
REMARK    6  A    between atoms: C_6  and  C_8 
REMARK    7  A    between atoms: C_7  and  C_21 
REMARK    8  A    between atoms: C_8  and  N_12 
REMARK       I    between atoms: C_9  and  N_12 
REMARK    9  A    between atoms: C_18  and  C_25 
ROOT
HETATM    1  C           1     -35.505  -0.179 -12.153  0.00  0.00     0.249 C 
HETATM    2  N           1     -35.962  -0.644 -13.357  0.00  0.00    -0.345 N 
HETATM    3  O           1     -35.241   0.992 -12.018  0.00  0.00    -0.271 OA
HETATM    4  H           1     -36.182  -1.625 -13.471  0.00  0.00     0.163 HD
ENDROOT
BRANCH   1   5
HETATM    5  C           1     -35.330  -1.130 -10.995  0.00  0.00     0.278 C 
BRANCH   5   6
HETATM    6  C           1     -35.965  -2.471 -11.337  0.00  0.00     0.081 C 
BRANCH   6   7
HETATM    7  C           1     -34.911  -3.534 -11.346  0.00  0.00    -0.056 A 
HETATM    8  C           1     -33.632  -3.244 -11.823  0.00  0.00     0.007 A 
HETATM    9  C           1     -32.650  -4.234 -11.832  0.00  0.00     0.001 A 
HETATM   10  C           1     -32.946  -5.515 -11.363  0.00  0.00     0.000 A 
HETATM   11  C           1     -34.224  -5.804 -10.886  0.00  0.00     0.001 A 
HETATM   12  C           1     -35.206  -4.814 -10.878  0.00  0.00     0.007 A 
ENDBRANCH   6   7
ENDBRANCH   5   6
BRANCH   5  13
HETATM   13  N           1     -35.992  -0.560  -9.776  0.00  0.00    -0.066 N 
HETATM   14  H           1     -36.901  -1.051  -9.612  0.00  0.00     0.275 HD
HETATM   15  H           1     -36.169   0.460  -9.918  0.00  0.00     0.275 HD
HETATM   16  H           1     -35.370  -0.694  -8.947  0.00  0.00     0.275 HD
ENDBRANCH   5  13
ENDBRANCH   1   5
BRANCH   2  17
HETATM   17  C           1     -36.130   0.270 -14.470  0.00  0.00     0.186 C 
BRANCH  17  18
HETATM   18  C           1     -37.471   0.029 -15.120  0.00  0.00     0.196 C 
HETATM   19  O           1     -37.976   0.907 -15.853  0.00  0.00    -0.646 OA
HETATM   20  O           1     -38.075  -1.048 -14.926  0.00  0.00    -0.646 OA
ENDBRANCH  17  18
BRANCH  17  21
HETATM   21  C           1     -35.024   0.037 -15.490  0.00  0.00     0.046 C 
BRANCH  21  22
HETATM   22  C           1     -35.483  -0.994 -16.512  0.00  0.00     0.116 C 
BRANCH  22  23
HETATM   23  C           1     -34.649  -2.245 -16.375  0.00  0.00     0.172 C 
HETATM   24  O           1     -34.725  -2.938 -15.338  0.00  0.00    -0.648 OA
HETATM   25  O           1     -33.882  -2.589 -17.301  0.00  0.00    -0.648 OA
ENDBRANCH  22  23
ENDBRANCH  21  22
ENDBRANCH  17  21
ENDBRANCH   2  17
TORSDOF 9
ENDMDL
MODEL 5
REMARK VINA RESULT:      -7.1      1.878      3.184
REMARK  9 active torsions:
REMARK  status: ('A' for Active; 'I' for Inactive)
REMARK    1  A    between atoms: C_1  and  C_9 
REMARK    2  A    between atoms: C_1  and  C_18 
REMARK    3  A    between atoms: C_1  and  N_10 
REMARK    4  A    between atoms: C_3  and  C_8 
REMARK    5  A    between atoms: C_6  and  C_7 
REMARK    6  A    between atoms: C_6  and  C_8 
REMARK    7  A    between atoms: C_7  and  C_21 
REMARK    8  A    between atoms: C_8  and  N_12 
REMARK       I    between atoms: C_9  and  N_12 
REMARK    9  A    between atoms: C_18  and  C_25 
ROOT
HETATM    1  C           1     -20.904  -5.906  -6.502  0.00  0.00     0.249 C 
HETATM    2  N           1     -21.492  -4.830  -7.110  0.00  0.00    -0.345 N 
HETATM    3  O           1     -20.573  -6.865  -7.158  0.00  0.00    -0.271 OA
HETATM    4  H           1     -21.771  -4.027  -6.561  0.00  0.00     0.163 HD
ENDROOT
BRANCH   1   5
HETATM    5  C           1     -20.673  -5.896  -5.011  0.00  0.00     0.278 C 
BRANCH   5   6
HETATM    6  C           1     -21.987  -6.167  -4.290  0.00  0.00     0.081 C 
BRANCH   6   7
HETATM    7  C           1     -21.710  -6.846  -2.984  0.00  0.00    -0.056 A 
HETATM    8  C           1     -22.390  -6.446  -1.834  0.00  0.00     0.007 A 
HETATM    9  C           1     -22.132  -7.077  -0.617  0.00  0.00     0.001 A 
HETATM   10  C           1     -21.195  -8.109  -0.551  0.00  0.00     0.000 A 
HETATM   11  C           1     -20.516  -8.508  -1.702  0.00  0.00     0.001 A 
HETATM   12  C           1     -20.774  -7.876  -2.919  0.00  0.00     0.007 A 
ENDBRANCH   6   7
ENDBRANCH   5   6
BRANCH   5  13
HETATM   13  N           1     -20.143  -4.556  -4.596  0.00  0.00    -0.066 N 
HETATM   14  H           1     -19.155  -4.657  -4.271  0.00  0.00     0.275 HD
HETATM   15  H           1     -20.727  -4.175  -3.819  0.00  0.00     0.275 HD
HETATM   16  H           1     -20.177  -3.902  -5.410  0.00  0.00     0.275 HD
ENDBRANCH   5  13
ENDBRANCH   1   5
BRANCH   2  17
HETATM   17  C           1     -21.715  -4.840  -8.543  0.00  0.00     0.186 C 
BRANCH  17  18
HETATM   18  C           1     -20.483  -4.327  -9.247  0.00  0.00     0.196 C 
HETATM   19  O           1     -19.738  -3.498  -8.678  0.00  0.00    -0.646 OA
HETATM   20  O           1     -20.205  -4.730 -10.397  0.00  0.00    -0.646 OA
ENDBRANCH  17  18
BRANCH  17  21
HETATM   21  C           1     -22.900  -3.944  -8.878  0.00  0.00     0.046 C 
BRANCH  21  22
HETATM   22  C           1     -23.487  -4.359 -10.221  0.00  0.00     0.116 C 
BRANCH  22  23
HETATM   23  C           1     -24.650  -3.460 -10.561  0.00  0.00     0.172 C 
HETATM   24  O           1     -24.834  -3.095 -11.743  0.00  0.00    -0.648 OA
HETATM   25  O           1     -25.432  -3.082  -9.662  0.00  0.00    -0.648 OA
ENDBRANCH  22  23
ENDBRANCH  21  22
ENDBRANCH  17  21
ENDBRANCH   2  17
TORSDOF 9
ENDMDL
MODEL 6
REMARK VINA RESULT:      -7.0     12.573     14.705
REMARK  9 active torsions:
REMARK  status: ('A' for Active; 'I' for Inactive)
REMARK    1  A    between atoms: C_1  and  C_9 
REMARK    2  A    between atoms: C_1  and  C_18 
REMARK    3  A    between atoms: C_1  and  N_10 
REMARK    4  A    between atoms: C_3  and  C_8 
REMARK    5  A    between atoms: C_6  and  C_7 
REMARK    6  A    between atoms: C_6  and  C_8 
REMARK    7  A    between atoms: C_7  and  C_21 
REMARK    8  A    between atoms: C_8  and  N_12 
REMARK       I    between atoms: C_9  and  N_12 
REMARK    9  A    between atoms: C_18  and  C_25 
ROOT
HETATM    1  C           1     -36.111  -0.799 -12.732  0.00  0.00     0.249 C 
HETATM    2  N           1     -35.125  -0.815 -13.681  0.00  0.00    -0.345 N 
HETATM    3  O           1     -37.271  -0.837 -13.065  0.00  0.00    -0.271 OA
HETATM    4  H           1     -34.152  -0.782 -13.403  0.00  0.00     0.163 HD
ENDROOT
BRANCH   1   5
HETATM    5  C           1     -35.747  -0.733 -11.269  0.00  0.00     0.278 C 
BRANCH   5   6
HETATM    6  C           1     -36.080  -2.061 -10.601  0.00  0.00     0.081 C 
BRANCH   6   7
HETATM    7  C           1     -35.017  -3.063 -10.926  0.00  0.00    -0.056 A 
HETATM    8  C           1     -33.710  -2.639 -11.167  0.00  0.00     0.007 A 
HETATM    9  C           1     -32.718  -3.572 -11.469  0.00  0.00     0.001 A 
HETATM   10  C           1     -33.034  -4.930 -11.531  0.00  0.00     0.000 A 
HETATM   11  C           1     -34.340  -5.353 -11.289  0.00  0.00     0.001 A 
HETATM   12  C           1     -35.331  -4.420 -10.987  0.00  0.00     0.007 A 
ENDBRANCH   6   7
ENDBRANCH   5   6
BRANCH   5  13
HETATM   13  N           1     -36.526   0.367 -10.610  0.00  0.00    -0.066 N 
HETATM   14  H           1     -37.300  -0.047 -10.042  0.00  0.00     0.275 HD
HETATM   15  H           1     -36.928   0.996 -11.340  0.00  0.00     0.275 HD
HETATM   16  H           1     -35.893   0.916  -9.987  0.00  0.00     0.275 HD
ENDBRANCH   5  13
ENDBRANCH   1   5
BRANCH   2  17
HETATM   17  C           1     -35.474  -0.878 -15.088  0.00  0.00     0.186 C 
BRANCH  17  18
HETATM   18  C           1     -34.907  -2.140 -15.690  0.00  0.00     0.196 C 
HETATM   19  O           1     -34.694  -2.205 -16.920  0.00  0.00    -0.646 OA
HETATM   20  O           1     -34.650  -3.121 -14.959  0.00  0.00    -0.646 OA
ENDBRANCH  17  18
BRANCH  17  21
HETATM   21  C           1     -34.895   0.331 -15.809  0.00  0.00     0.046 C 
BRANCH  21  22
HETATM   22  C           1     -35.495   1.605 -15.229  0.00  0.00     0.116 C 
BRANCH  22  23
HETATM   23  C           1     -36.566   2.126 -16.156  0.00  0.00     0.172 C 
HETATM   24  O           1     -36.326   3.100 -16.903  0.00  0.00    -0.648 OA
HETATM   25  O           1     -37.692   1.584 -16.178  0.00  0.00    -0.648 OA
ENDBRANCH  22  23
ENDBRANCH  21  22
ENDBRANCH  17  21
ENDBRANCH   2  17
TORSDOF 9
ENDMDL
MODEL 7
REMARK VINA RESULT:      -7.0      4.386      8.183
REMARK  9 active torsions:
REMARK  status: ('A' for Active; 'I' for Inactive)
REMARK    1  A    between atoms: C_1  and  C_9 
REMARK    2  A    between atoms: C_1  and  C_18 
REMARK    3  A    between atoms: C_1  and  N_10 
REMARK    4  A    between atoms: C_3  and  C_8 
REMARK    5  A    between atoms: C_6  and  C_7 
REMARK    6  A    between atoms: C_6  and  C_8 
REMARK    7  A    between atoms: C_7  and  C_21 
REMARK    8  A    between atoms: C_8  and  N_12 
REMARK       I    between atoms: C_9  and  N_12 
REMARK    9  A    between atoms: C_18  and  C_25 
ROOT
HETATM    1  C           1     -21.034  -7.250  -5.584  0.00  0.00     0.249 C 
HETATM    2  N           1     -21.677  -8.051  -4.679  0.00  0.00    -0.345 N 
HETATM    3  O           1     -19.853  -7.395  -5.787  0.00  0.00    -0.271 OA
HETATM    4  H           1     -22.667  -7.929  -4.508  0.00  0.00     0.163 HD
ENDROOT
BRANCH   1   5
HETATM    5  C           1     -21.802  -6.184  -6.327  0.00  0.00     0.278 C 
BRANCH   5   6
HETATM    6  C           1     -20.872  -5.024  -6.657  0.00  0.00     0.081 C 
BRANCH   6   7
HETATM    7  C           1     -21.062  -4.622  -8.086  0.00  0.00    -0.056 A 
HETATM    8  C           1     -20.030  -4.808  -9.005  0.00  0.00     0.007 A 
HETATM    9  C           1     -20.206  -4.434 -10.338  0.00  0.00     0.001 A 
HETATM   10  C           1     -21.416  -3.873 -10.750  0.00  0.00     0.000 A 
HETATM   11  C           1     -22.448  -3.689  -9.830  0.00  0.00     0.001 A 
HETATM   12  C           1     -22.271  -4.063  -8.499  0.00  0.00     0.007 A 
ENDBRANCH   6   7
ENDBRANCH   5   6
BRANCH   5  13
HETATM   13  N           1     -22.930  -5.692  -5.470  0.00  0.00    -0.066 N 
HETATM   14  H           1     -23.820  -6.153  -5.766  0.00  0.00     0.275 HD
HETATM   15  H           1     -23.023  -4.656  -5.576  0.00  0.00     0.275 HD
HETATM   16  H           1     -22.734  -5.923  -4.470  0.00  0.00     0.275 HD
ENDBRANCH   5  13
ENDBRANCH   1   5
BRANCH   2  17
HETATM   17  C           1     -20.940  -9.075  -3.965  0.00  0.00     0.186 C 
BRANCH  17  18
HETATM   18  C           1     -21.325 -10.434  -4.495  0.00  0.00     0.196 C 
HETATM   19  O           1     -21.257 -10.668  -5.722  0.00  0.00    -0.646 OA
HETATM   20  O           1     -21.710 -11.326  -3.709  0.00  0.00    -0.646 OA
ENDBRANCH  17  18
BRANCH  17  21
HETATM   21  C           1     -21.271  -8.998  -2.481  0.00  0.00     0.046 C 
BRANCH  21  22
HETATM   22  C           1     -20.846  -7.641  -1.935  0.00  0.00     0.116 C 
BRANCH  22  23
HETATM   23  C           1     -22.067  -6.785  -1.706  0.00  0.00     0.172 C 
HETATM   24  O           1     -22.402  -5.933  -2.558  0.00  0.00    -0.648 OA
HETATM   25  O           1     -22.745  -6.927  -0.665  0.00  0.00    -0.648 OA
ENDBRANCH  22  23
ENDBRANCH  21  22
ENDBRANCH  17  21
ENDBRANCH   2  17
TORSDOF 9
ENDMDL
MODEL 8
REMARK VINA RESULT:      -6.8      3.816      7.785
REMARK  9 active torsions:
REMARK  status: ('A' for Active; 'I' for Inactive)
REMARK    1  A    between atoms: C_1  and  C_9 
REMARK    2  A    between atoms: C_1  and  C_18 
REMARK    3  A    between atoms: C_1  and  N_10 
REMARK    4  A    between atoms: C_3  and  C_8 
REMARK    5  A    between atoms: C_6  and  C_7 
REMARK    6  A    between atoms: C_6  and  C_8 
REMARK    7  A    between atoms: C_7  and  C_21 
REMARK    8  A    between atoms: C_8  and  N_12 
REMARK       I    between atoms: C_9  and  N_12 
REMARK    9  A    between atoms: C_18  and  C_25 
ROOT
HETATM    1  C           1     -21.766  -6.059  -5.132  0.00  0.00     0.249 C 
HETATM    2  N           1     -21.008  -6.722  -4.205  0.00  0.00    -0.345 N 
HETATM    3  O           1     -22.957  -6.250  -5.187  0.00  0.00    -0.271 OA
HETATM    4  H           1     -20.010  -6.564  -4.159  0.00  0.00     0.163 HD
ENDROOT
BRANCH   1   5
HETATM    5  C           1     -21.112  -5.091  -6.087  0.00  0.00     0.278 C 
BRANCH   5   6
HETATM    6  C           1     -20.735  -5.819  -7.370  0.00  0.00     0.081 C 
BRANCH   6   7
HETATM    7  C           1     -21.122  -4.983  -8.551  0.00  0.00    -0.056 A 
HETATM    8  C           1     -20.173  -4.668  -9.522  0.00  0.00     0.007 A 
HETATM    9  C           1     -20.533  -3.889 -10.623  0.00  0.00     0.001 A 
HETATM   10  C           1     -21.843  -3.426 -10.750  0.00  0.00     0.000 A 
HETATM   11  C           1     -22.792  -3.743  -9.778  0.00  0.00     0.001 A 
HETATM   12  C           1     -22.431  -4.521  -8.679  0.00  0.00     0.007 A 
ENDBRANCH   6   7
ENDBRANCH   5   6
BRANCH   5  13
HETATM   13  N           1     -19.877  -4.522  -5.454  0.00  0.00    -0.066 N 
HETATM   14  H           1     -19.501  -3.753  -6.054  0.00  0.00     0.275 HD
HETATM   15  H           1     -19.157  -5.272  -5.358  0.00  0.00     0.275 HD
HETATM   16  H           1     -20.113  -4.143  -4.509  0.00  0.00     0.275 HD
ENDBRANCH   5  13
ENDBRANCH   1   5
BRANCH   2  17
HETATM   17  C           1     -21.636  -7.653  -3.287  0.00  0.00     0.186 C 
BRANCH  17  18
HETATM   18  C           1     -21.818  -6.990  -1.944  0.00  0.00     0.196 C 
HETATM   19  O           1     -22.435  -5.906  -1.861  0.00  0.00    -0.646 OA
HETATM   20  O           1     -21.353  -7.525  -0.914  0.00  0.00    -0.646 OA
ENDBRANCH  17  18
BRANCH  17  21
HETATM   21  C           1     -20.754  -8.884  -3.129  0.00  0.00     0.046 C 
BRANCH  21  22
HETATM   22  C           1     -21.311 -10.022  -3.974  0.00  0.00     0.116 C 
BRANCH  22  23
HETATM   23  C           1     -20.694  -9.977  -5.351  0.00  0.00     0.172 C 
HETATM   24  O           1     -21.186 -10.653  -6.279  0.00  0.00    -0.648 OA
HETATM   25  O           1     -19.690  -9.262  -5.562  0.00  0.00    -0.648 OA
ENDBRANCH  22  23
ENDBRANCH  21  22
ENDBRANCH  17  21
ENDBRANCH   2  17
TORSDOF 9
ENDMDL
MODEL 9
REMARK VINA RESULT:      -6.7     12.214     14.051
REMARK  9 active torsions:
REMARK  status: ('A' for Active; 'I' for Inactive)
REMARK    1  A    between atoms: C_1  and  C_9 
REMARK    2  A    between atoms: C_1  and  C_18 
REMARK    3  A    between atoms: C_1  and  N_10 
REMARK    4  A    between atoms: C_3  and  C_8 
REMARK    5  A    between atoms: C_6  and  C_7 
REMARK    6  A    between atoms: C_6  and  C_8 
REMARK    7  A    between atoms: C_7  and  C_21 
REMARK    8  A    between atoms: C_8  and  N_12 
REMARK       I    between atoms: C_9  and  N_12 
REMARK    9  A    between atoms: C_18  and  C_25 
ROOT
HETATM    1  C           1     -34.673  -2.534 -12.768  0.00  0.00     0.249 C 
HETATM    2  N           1     -35.338  -1.364 -12.514  0.00  0.00    -0.345 N 
HETATM    3  O           1     -34.669  -2.996 -13.884  0.00  0.00    -0.271 OA
HETATM    4  H           1     -35.343  -0.976 -11.579  0.00  0.00     0.163 HD
ENDROOT
BRANCH   1   5
HETATM    5  C           1     -33.948  -3.246 -11.653  0.00  0.00     0.278 C 
BRANCH   5   6
HETATM    6  C           1     -34.960  -3.911 -10.730  0.00  0.00     0.081 C 
BRANCH   6   7
HETATM    7  C           1     -34.576  -5.342 -10.517  0.00  0.00    -0.056 A 
HETATM    8  C           1     -33.391  -5.834 -11.063  0.00  0.00     0.007 A 
HETATM    9  C           1     -33.032  -7.168 -10.865  0.00  0.00     0.001 A 
HETATM   10  C           1     -33.859  -8.009 -10.119  0.00  0.00     0.000 A 
HETATM   11  C           1     -35.044  -7.515  -9.572  0.00  0.00     0.001 A 
HETATM   12  C           1     -35.402  -6.182  -9.771  0.00  0.00     0.007 A 
ENDBRANCH   6   7
ENDBRANCH   5   6
BRANCH   5  13
HETATM   13  N           1     -33.136  -2.255 -10.872  0.00  0.00    -0.066 N 
HETATM   14  H           1     -32.498  -1.739 -11.520  0.00  0.00     0.275 HD
HETATM   15  H           1     -32.569  -2.758 -10.153  0.00  0.00     0.275 HD
HETATM   16  H           1     -33.775  -1.577 -10.400  0.00  0.00     0.275 HD
ENDBRANCH   5  13
ENDBRANCH   1   5
BRANCH   2  17
HETATM   17  C           1     -36.036  -0.680 -13.586  0.00  0.00     0.186 C 
BRANCH  17  18
HETATM   18  C           1     -35.103   0.308 -14.243  0.00  0.00     0.196 C 
HETATM   19  O           1     -34.717   1.316 -13.612  0.00  0.00    -0.646 OA
HETATM   20  O           1     -34.716   0.117 -15.416  0.00  0.00    -0.646 OA
ENDBRANCH  17  18
BRANCH  17  21
HETATM   21  C           1     -37.238   0.061 -13.016  0.00  0.00     0.046 C 
BRANCH  21  22
HETATM   22  C           1     -37.678  -0.605 -11.719  0.00  0.00     0.116 C 
BRANCH  22  23
HETATM   23  C           1     -37.285   0.262 -10.549  0.00  0.00     0.172 C 
HETATM   24  O           1     -36.170   0.111 -10.005  0.00  0.00    -0.648 OA
HETATM   25  O           1     -38.075   1.134 -10.124  0.00  0.00    -0.648 OA
ENDBRANCH  22  23
ENDBRANCH  21  22
ENDBRANCH  17  21
ENDBRANCH   2  17
TORSDOF 9
ENDMDL
