MODEL 1
REMARK VINA RESULT:      -6.8      0.000      0.000
REMARK  8 active torsions:
REMARK  status: ('A' for Active; 'I' for Inactive)
REMARK    1  A    between atoms: C_2  and  C_3 
REMARK    2  A    between atoms: C_3  and  C_6 
REMARK    3  A    between atoms: C_3  and  N_17 
REMARK    4  A    between atoms: C_12  and  C_23 
REMARK       I    between atoms: C_12  and  N_20 
REMARK    5  A    between atoms: N_14  and  C_19 
REMARK       I    between atoms: N_17  and  C_22 
REMARK    6  A    between atoms: C_18  and  C_19 
REMARK    7  A    between atoms: C_18  and  C_23 
REMARK    8  A    between atoms: C_19  and  C_22 
ROOT
HETATM    1  C           1     -21.138  -5.931  -6.822  0.00  0.00     0.275 C 
ENDROOT
BRANCH   1   2
HETATM    2  N           1     -19.729  -6.262  -7.218  0.00  0.00    -0.066 N 
HETATM    3  H           1     -19.245  -6.732  -6.422  0.00  0.00     0.275 HD
HETATM    4  H           1     -19.222  -5.382  -7.466  0.00  0.00     0.275 HD
HETATM    5  H           1     -19.740  -6.900  -8.045  0.00  0.00     0.275 HD
ENDBRANCH   1   2
BRANCH   1   6
HETATM    6  C           1     -21.178  -5.575  -5.342  0.00  0.00     0.052 C 
BRANCH   6   7
HETATM    7  C           1     -22.133  -6.516  -4.619  0.00  0.00     0.105 C 
BRANCH   7   8
HETATM    8  C           1     -21.733  -6.624  -3.168  0.00  0.00     0.215 C 
HETATM    9  N           1     -22.377  -5.872  -2.223  0.00  0.00    -0.370 N 
HETATM   10  H           1     -22.108  -5.945  -1.250  0.00  0.00     0.159 HD
HETATM   11  H           1     -23.121  -5.243  -2.496  0.00  0.00     0.159 HD
HETATM   12  O           1     -20.845  -7.374  -2.842  0.00  0.00    -0.274 OA
ENDBRANCH   7   8
ENDBRANCH   6   7
ENDBRANCH   1   6
BRANCH   1  13
HETATM   13  C           1     -21.626  -4.758  -7.636  0.00  0.00     0.249 C 
HETATM   14  O           1     -21.559  -3.639  -7.185  0.00  0.00    -0.271 OA
HETATM   15  N           1     -22.146  -4.961  -8.886  0.00  0.00    -0.344 N 
HETATM   16  H           1     -22.202  -5.898  -9.265  0.00  0.00     0.163 HD
BRANCH  15  17
HETATM   17  C           1     -22.615  -3.834  -9.668  0.00  0.00     0.189 C 
BRANCH  17  18
HETATM   18  C           1     -24.122  -3.853  -9.722  0.00  0.00     0.197 C 
HETATM   19  O           1     -24.724  -4.901 -10.040  0.00  0.00    -0.646 OA
HETATM   20  O           1     -24.771  -2.819  -9.449  0.00  0.00    -0.646 OA
ENDBRANCH  17  18
BRANCH  17  21
HETATM   21  C           1     -22.055  -3.929 -11.081  0.00  0.00     0.010 C 
HETATM   22  C           1     -22.442  -2.682 -11.865  0.00  0.00     0.012 C 
HETATM   23  C           1     -20.537  -4.038 -11.018  0.00  0.00     0.012 C 
ENDBRANCH  17  21
ENDBRANCH  15  17
ENDBRANCH   1  13
TORSDOF 8
ENDMDL
MODEL 2
REMARK VINA RESULT:      -6.5      2.695      6.821
REMARK  8 active torsions:
REMARK  status: ('A' for Active; 'I' for Inactive)
REMARK    1  A    between atoms: C_2  and  C_3 
REMARK    2  A    between atoms: C_3  and  C_6 
REMARK    3  A    between atoms: C_3  and  N_17 
REMARK    4  A    between atoms: C_12  and  C_23 
REMARK       I    between atoms: C_12  and  N_20 
REMARK    5  A    between atoms: N_14  and  C_19 
REMARK       I    between atoms: N_17  and  C_22 
REMARK    6  A    between atoms: C_18  and  C_19 
REMARK    7  A    between atoms: C_18  and  C_23 
REMARK    8  A    between atoms: C_19  and  C_22 
ROOT
HETATM    1  C           1     -24.005  -3.854 -10.110  0.00  0.00     0.275 C 
ENDROOT
BRANCH   1   2
HETATM    2  N           1     -24.772  -3.197  -9.000  0.00  0.00    -0.066 N 
HETATM    3  H           1     -24.989  -2.210  -9.265  0.00  0.00     0.275 HD
HETATM    4  H           1     -24.198  -3.208  -8.127  0.00  0.00     0.275 HD
HETATM    5  H           1     -25.663  -3.717  -8.837  0.00  0.00     0.275 HD
ENDBRANCH   1   2
BRANCH   1   6
HETATM    6  C           1     -23.641  -2.814 -11.161  0.00  0.00     0.052 C 
BRANCH   6   7
HETATM    7  C           1     -24.326  -3.159 -12.476  0.00  0.00     0.105 C 
BRANCH   7   8
HETATM    8  C           1     -23.299  -3.211 -13.581  0.00  0.00     0.215 C 
HETATM    9  N           1     -21.988  -3.472 -13.285  0.00  0.00    -0.370 N 
HETATM   10  H           1     -21.300  -3.507 -14.026  0.00  0.00     0.159 HD
HETATM   11  H           1     -21.707  -3.630 -12.326  0.00  0.00     0.159 HD
HETATM   12  O           1     -23.634  -3.023 -14.725  0.00  0.00    -0.274 OA
ENDBRANCH   7   8
ENDBRANCH   6   7
ENDBRANCH   1   6
BRANCH   1  13
HETATM   13  C           1     -22.745  -4.470  -9.553  0.00  0.00     0.249 C 
HETATM   14  O           1     -21.863  -4.823 -10.300  0.00  0.00    -0.271 OA
HETATM   15  N           1     -22.601  -4.629  -8.200  0.00  0.00    -0.344 N 
HETATM   16  H           1     -23.339  -4.334  -7.575  0.00  0.00     0.163 HD
BRANCH  15  17
HETATM   17  C           1     -21.390  -5.220  -7.665  0.00  0.00     0.189 C 
BRANCH  17  18
HETATM   18  C           1     -21.743  -6.140  -6.523  0.00  0.00     0.197 C 
HETATM   19  O           1     -22.588  -5.786  -5.673  0.00  0.00    -0.646 OA
HETATM   20  O           1     -21.190  -7.258  -6.426  0.00  0.00    -0.646 OA
ENDBRANCH  17  18
BRANCH  17  21
HETATM   21  C           1     -20.467  -4.119  -7.164  0.00  0.00     0.010 C 
HETATM   22  C           1     -19.857  -4.535  -5.832  0.00  0.00     0.012 C 
HETATM   23  C           1     -19.356  -3.886  -8.180  0.00  0.00     0.012 C 
ENDBRANCH  17  21
ENDBRANCH  15  17
ENDBRANCH   1  13
TORSDOF 8
ENDMDL
MODEL 3
REMARK VINA RESULT:      -6.2      1.411      1.621
REMARK  8 active torsions:
REMARK  status: ('A' for Active; 'I' for Inactive)
REMARK    1  A    between atoms: C_2  and  C_3 
REMARK    2  A    between atoms: C_3  and  C_6 
REMARK    3  A    between atoms: C_3  and  N_17 
REMARK    4  A    between atoms: C_12  and  C_23 
REMARK       I    between atoms: C_12  and  N_20 
REMARK    5  A    between atoms: N_14  and  C_19 
REMARK       I    between atoms: N_17  and  C_22 
REMARK    6  A    between atoms: C_18  and  C_19 
REMARK    7  A    between atoms: C_18  and  C_23 
REMARK    8  A    between atoms: C_19  and  C_22 
ROOT
HETATM    1  C           1     -20.978  -5.529  -6.987  0.00  0.00     0.275 C 
ENDROOT
BRANCH   1   2
HETATM    2  N           1     -19.634  -5.066  -6.509  0.00  0.00    -0.066 N 
HETATM    3  H           1     -18.923  -5.807  -6.699  0.00  0.00     0.275 HD
HETATM    4  H           1     -19.676  -4.877  -5.482  0.00  0.00     0.275 HD
HETATM    5  H           1     -19.367  -4.190  -7.012  0.00  0.00     0.275 HD
ENDBRANCH   1   2
BRANCH   1   6
HETATM    6  C           1     -21.863  -5.844  -5.788  0.00  0.00     0.052 C 
BRANCH   6   7
HETATM    7  C           1     -21.007  -6.399  -4.658  0.00  0.00     0.105 C 
BRANCH   7   8
HETATM    8  C           1     -21.091  -7.906  -4.655  0.00  0.00     0.215 C 
HETATM    9  N           1     -20.376  -8.633  -5.566  0.00  0.00    -0.370 N 
HETATM   10  H           1     -20.432  -9.644  -5.565  0.00  0.00     0.159 HD
HETATM   11  H           1     -19.790  -8.161  -6.244  0.00  0.00     0.159 HD
HETATM   12  O           1     -21.790  -8.469  -3.847  0.00  0.00    -0.274 OA
ENDBRANCH   7   8
ENDBRANCH   6   7
ENDBRANCH   1   6
BRANCH   1  13
HETATM   13  C           1     -21.618  -4.441  -7.814  0.00  0.00     0.249 C 
HETATM   14  O           1     -21.672  -3.311  -7.388  0.00  0.00    -0.271 OA
HETATM   15  N           1     -22.139  -4.733  -9.046  0.00  0.00    -0.344 N 
HETATM   16  H           1     -22.094  -5.679  -9.402  0.00  0.00     0.163 HD
BRANCH  15  17
HETATM   17  C           1     -22.754  -3.688  -9.840  0.00  0.00     0.189 C 
BRANCH  17  18
HETATM   18  C           1     -24.255  -3.827  -9.778  0.00  0.00     0.197 C 
HETATM   19  O           1     -24.966  -2.831  -9.527  0.00  0.00    -0.646 OA
HETATM   20  O           1     -24.788  -4.941  -9.978  0.00  0.00    -0.646 OA
ENDBRANCH  17  18
BRANCH  17  21
HETATM   21  C           1     -22.292  -3.810 -11.285  0.00  0.00     0.010 C 
HETATM   22  C           1     -22.759  -2.592 -12.072  0.00  0.00     0.012 C 
HETATM   23  C           1     -20.771  -3.889 -11.326  0.00  0.00     0.012 C 
ENDBRANCH  17  21
ENDBRANCH  15  17
ENDBRANCH   1  13
TORSDOF 8
ENDMDL
MODEL 4
REMARK VINA RESULT:      -6.0      2.360      6.884
REMARK  8 active torsions:
REMARK  status: ('A' for Active; 'I' for Inactive)
REMARK    1  A    between atoms: C_2  and  C_3 
REMARK    2  A    between atoms: C_3  and  C_6 
REMARK    3  A    between atoms: C_3  and  N_17 
REMARK    4  A    between atoms: C_12  and  C_23 
REMARK       I    between atoms: C_12  and  N_20 
REMARK    5  A    between atoms: N_14  and  C_19 
REMARK       I    between atoms: N_17  and  C_22 
REMARK    6  A    between atoms: C_18  and  C_19 
REMARK    7  A    between atoms: C_18  and  C_23 
REMARK    8  A    between atoms: C_19  and  C_22 
ROOT
HETATM    1  C           1     -23.560  -4.365  -9.170  0.00  0.00     0.275 C 
ENDROOT
BRANCH   1   2
HETATM    2  N           1     -24.509  -3.209  -9.053  0.00  0.00    -0.066 N 
HETATM    3  H           1     -24.172  -2.421  -9.650  0.00  0.00     0.275 HD
HETATM    4  H           1     -24.557  -2.898  -8.057  0.00  0.00     0.275 HD
HETATM    5  H           1     -25.460  -3.505  -9.371  0.00  0.00     0.275 HD
ENDBRANCH   1   2
BRANCH   1   6
HETATM    6  C           1     -22.885  -4.332 -10.535  0.00  0.00     0.052 C 
BRANCH   6   7
HETATM    7  C           1     -23.144  -2.985 -11.197  0.00  0.00     0.105 C 
BRANCH   7   8
HETATM    8  C           1     -23.417  -3.190 -12.667  0.00  0.00     0.215 C 
HETATM    9  N           1     -22.376  -3.270 -13.552  0.00  0.00    -0.370 N 
HETATM   10  H           1     -22.559  -3.407 -14.538  0.00  0.00     0.159 HD
HETATM   11  H           1     -21.423  -3.190 -13.221  0.00  0.00     0.159 HD
HETATM   12  O           1     -24.554  -3.285 -13.062  0.00  0.00    -0.274 OA
ENDBRANCH   7   8
ENDBRANCH   6   7
ENDBRANCH   1   6
BRANCH   1  13
HETATM   13  C           1     -22.513  -4.267  -8.088  0.00  0.00     0.249 C 
HETATM   14  O           1     -21.978  -3.208  -7.859  0.00  0.00    -0.271 OA
HETATM   15  N           1     -22.169  -5.377  -7.365  0.00  0.00    -0.344 N 
HETATM   16  H           1     -22.617  -6.264  -7.556  0.00  0.00     0.163 HD
BRANCH  15  17
HETATM   17  C           1     -21.163  -5.282  -6.325  0.00  0.00     0.189 C 
BRANCH  17  18
HETATM   18  C           1     -19.807  -5.588  -6.909  0.00  0.00     0.197 C 
HETATM   19  O           1     -19.461  -6.774  -7.101  0.00  0.00    -0.646 OA
HETATM   20  O           1     -19.027  -4.655  -7.201  0.00  0.00    -0.646 OA
ENDBRANCH  17  18
BRANCH  17  21
HETATM   21  C           1     -21.479  -6.283  -5.222  0.00  0.00     0.010 C 
HETATM   22  C           1     -20.919  -5.774  -3.900  0.00  0.00     0.012 C 
HETATM   23  C           1     -22.989  -6.448  -5.103  0.00  0.00     0.012 C 
ENDBRANCH  17  21
ENDBRANCH  15  17
ENDBRANCH   1  13
TORSDOF 8
ENDMDL
MODEL 5
REMARK VINA RESULT:      -6.0      1.984      6.669
REMARK  8 active torsions:
REMARK  status: ('A' for Active; 'I' for Inactive)
REMARK    1  A    between atoms: C_2  and  C_3 
REMARK    2  A    between atoms: C_3  and  C_6 
REMARK    3  A    between atoms: C_3  and  N_17 
REMARK    4  A    between atoms: C_12  and  C_23 
REMARK       I    between atoms: C_12  and  N_20 
REMARK    5  A    between atoms: N_14  and  C_19 
REMARK       I    between atoms: N_17  and  C_22 
REMARK    6  A    between atoms: C_18  and  C_19 
REMARK    7  A    between atoms: C_18  and  C_23 
REMARK    8  A    between atoms: C_19  and  C_22 
ROOT
HETATM    1  C           1     -20.418  -5.013  -6.494  0.00  0.00     0.275 C 
ENDROOT
BRANCH   1   2
HETATM    2  N           1     -19.928  -5.854  -7.636  0.00  0.00    -0.066 N 
HETATM    3  H           1     -18.936  -5.605  -7.850  0.00  0.00     0.275 HD
HETATM    4  H           1     -20.522  -5.679  -8.477  0.00  0.00     0.275 HD
HETATM    5  H           1     -19.984  -6.864  -7.375  0.00  0.00     0.275 HD
ENDBRANCH   1   2
BRANCH   1   6
HETATM    6  C           1     -21.237  -3.848  -7.037  0.00  0.00     0.052 C 
BRANCH   6   7
HETATM    7  C           1     -21.423  -4.015  -8.539  0.00  0.00     0.105 C 
BRANCH   7   8
HETATM    8  C           1     -22.896  -4.040  -8.865  0.00  0.00     0.215 C 
HETATM    9  N           1     -23.819  -4.121  -7.858  0.00  0.00    -0.370 N 
HETATM   10  H           1     -24.807  -4.138  -8.077  0.00  0.00     0.159 HD
HETATM   11  H           1     -23.513  -4.165  -6.893  0.00  0.00     0.159 HD
HETATM   12  O           1     -23.260  -3.988 -10.015  0.00  0.00    -0.274 OA
ENDBRANCH   7   8
ENDBRANCH   6   7
ENDBRANCH   1   6
BRANCH   1  13
HETATM   13  C           1     -21.281  -5.855  -5.586  0.00  0.00     0.249 C 
HETATM   14  O           1     -22.484  -5.751  -5.627  0.00  0.00    -0.271 OA
HETATM   15  N           1     -20.699  -6.736  -4.714  0.00  0.00    -0.344 N 
HETATM   16  H           1     -19.692  -6.823  -4.679  0.00  0.00     0.163 HD
BRANCH  15  17
HETATM   17  C           1     -21.528  -7.545  -3.841  0.00  0.00     0.189 C 
BRANCH  17  18
HETATM   18  C           1     -21.611  -6.894  -2.483  0.00  0.00     0.197 C 
HETATM   19  O           1     -22.369  -5.917  -2.303  0.00  0.00    -0.646 OA
HETATM   20  O           1     -20.921  -7.332  -1.536  0.00  0.00    -0.646 OA
ENDBRANCH  17  18
BRANCH  17  21
HETATM   21  C           1     -20.915  -8.932  -3.703  0.00  0.00     0.010 C 
HETATM   22  C           1     -21.993  -9.986  -3.921  0.00  0.00     0.012 C 
HETATM   23  C           1     -19.816  -9.107  -4.742  0.00  0.00     0.012 C 
ENDBRANCH  17  21
ENDBRANCH  15  17
ENDBRANCH   1  13
TORSDOF 8
ENDMDL
MODEL 6
REMARK VINA RESULT:      -5.9      2.456      5.834
REMARK  8 active torsions:
REMARK  status: ('A' for Active; 'I' for Inactive)
REMARK    1  A    between atoms: C_2  and  C_3 
REMARK    2  A    between atoms: C_3  and  C_6 
REMARK    3  A    between atoms: C_3  and  N_17 
REMARK    4  A    between atoms: C_12  and  C_23 
REMARK       I    between atoms: C_12  and  N_20 
REMARK    5  A    between atoms: N_14  and  C_19 
REMARK       I    between atoms: N_17  and  C_22 
REMARK    6  A    between atoms: C_18  and  C_19 
REMARK    7  A    between atoms: C_18  and  C_23 
REMARK    8  A    between atoms: C_19  and  C_22 
ROOT
HETATM    1  C           1     -21.733  -3.600 -10.766  0.00  0.00     0.275 C 
ENDROOT
BRANCH   1   2
HETATM    2  N           1     -20.811  -2.893 -11.715  0.00  0.00    -0.066 N 
HETATM    3  H           1     -19.835  -2.929 -11.344  0.00  0.00     0.275 HD
HETATM    4  H           1     -21.111  -1.897 -11.814  0.00  0.00     0.275 HD
HETATM    5  H           1     -20.846  -3.361 -12.649  0.00  0.00     0.275 HD
ENDBRANCH   1   2
BRANCH   1   6
HETATM    6  C           1     -22.638  -4.544 -11.547  0.00  0.00     0.052 C 
BRANCH   6   7
HETATM    7  C           1     -23.806  -4.970 -10.668  0.00  0.00     0.105 C 
BRANCH   7   8
HETATM    8  C           1     -24.583  -3.750 -10.236  0.00  0.00     0.215 C 
HETATM    9  N           1     -24.624  -3.397  -8.915  0.00  0.00    -0.370 N 
HETATM   10  H           1     -25.145  -2.579  -8.625  0.00  0.00     0.159 HD
HETATM   11  H           1     -24.133  -3.953  -8.226  0.00  0.00     0.159 HD
HETATM   12  O           1     -25.169  -3.086 -11.057  0.00  0.00    -0.274 OA
ENDBRANCH   7   8
ENDBRANCH   6   7
ENDBRANCH   1   6
BRANCH   1  13
HETATM   13  C           1     -20.919  -4.390  -9.771  0.00  0.00     0.249 C 
HETATM   14  O           1     -19.889  -4.919 -10.116  0.00  0.00    -0.271 OA
HETATM   15  N           1     -21.349  -4.508  -8.476  0.00  0.00    -0.344 N 
HETATM   16  H           1     -22.211  -4.066  -8.187  0.00  0.00     0.163 HD
BRANCH  15  17
HETATM   17  C           1     -20.567  -5.268  -7.520  0.00  0.00     0.189 C 
BRANCH  17  18
HETATM   18  C           1     -21.493  -6.046  -6.618  0.00  0.00     0.197 C 
HETATM   19  O           1     -22.483  -5.483  -6.103  0.00  0.00    -0.646 OA
HETATM   20  O           1     -21.270  -7.255  -6.387  0.00  0.00    -0.646 OA
ENDBRANCH  17  18
BRANCH  17  21
HETATM   21  C           1     -19.725  -4.314  -6.682  0.00  0.00     0.010 C 
HETATM   22  C           1     -19.855  -4.684  -5.210  0.00  0.00     0.012 C 
HETATM   23  C           1     -18.266  -4.420  -7.106  0.00  0.00     0.012 C 
ENDBRANCH  17  21
ENDBRANCH  15  17
ENDBRANCH   1  13
TORSDOF 8
ENDMDL
MODEL 7
REMARK VINA RESULT:      -5.8      2.130      6.768
REMARK  8 active torsions:
REMARK  status: ('A' for Active; 'I' for Inactive)
REMARK    1  A    between atoms: C_2  and  C_3 
REMARK    2  A    between atoms: C_3  and  C_6 
REMARK    3  A    between atoms: C_3  and  N_17 
REMARK    4  A    between atoms: C_12  and  C_23 
REMARK       I    between atoms: C_12  and  N_20 
REMARK    5  A    between atoms: N_14  and  C_19 
REMARK       I    between atoms: N_17  and  C_22 
REMARK    6  A    between atoms: C_18  and  C_19 
REMARK    7  A    between atoms: C_18  and  C_23 
REMARK    8  A    between atoms: C_19  and  C_22 
ROOT
HETATM    1  C           1     -22.034  -4.432  -7.036  0.00  0.00     0.275 C 
ENDROOT
BRANCH   1   2
HETATM    2  N           1     -21.553  -3.011  -7.040  0.00  0.00    -0.066 N 
HETATM    3  H           1     -21.876  -2.537  -7.913  0.00  0.00     0.275 HD
HETATM    4  H           1     -20.509  -2.997  -7.001  0.00  0.00     0.275 HD
HETATM    5  H           1     -21.938  -2.509  -6.209  0.00  0.00     0.275 HD
ENDBRANCH   1   2
BRANCH   1   6
HETATM    6  C           1     -22.056  -4.965  -8.463  0.00  0.00     0.052 C 
BRANCH   6   7
HETATM    7  C           1     -22.668  -3.920  -9.386  0.00  0.00     0.105 C 
BRANCH   7   8
HETATM    8  C           1     -23.919  -4.478 -10.020  0.00  0.00     0.215 C 
HETATM    9  N           1     -25.145  -3.986  -9.664  0.00  0.00    -0.370 N 
HETATM   10  H           1     -25.983  -4.361 -10.089  0.00  0.00     0.159 HD
HETATM   11  H           1     -25.214  -3.248  -8.975  0.00  0.00     0.159 HD
HETATM   12  O           1     -23.836  -5.359 -10.842  0.00  0.00    -0.274 OA
ENDBRANCH   7   8
ENDBRANCH   6   7
ENDBRANCH   1   6
BRANCH   1  13
HETATM   13  C           1     -21.104  -5.274  -6.197  0.00  0.00     0.249 C 
HETATM   14  O           1     -19.913  -5.076  -6.232  0.00  0.00    -0.271 OA
HETATM   15  N           1     -21.611  -6.263  -5.398  0.00  0.00    -0.344 N 
HETATM   16  H           1     -22.608  -6.429  -5.369  0.00  0.00     0.163 HD
BRANCH  15  17
HETATM   17  C           1     -20.717  -7.073  -4.592  0.00  0.00     0.189 C 
BRANCH  17  18
HETATM   18  C           1     -20.343  -8.319  -5.355  0.00  0.00     0.197 C 
HETATM   19  O           1     -19.149  -8.536  -5.652  0.00  0.00    -0.646 OA
HETATM   20  O           1     -21.229  -9.136  -5.691  0.00  0.00    -0.646 OA
ENDBRANCH  17  18
BRANCH  17  21
HETATM   21  C           1     -21.415  -7.461  -3.296  0.00  0.00     0.010 C 
HETATM   22  C           1     -20.440  -8.216  -2.402  0.00  0.00     0.012 C 
HETATM   23  C           1     -21.890  -6.203  -2.580  0.00  0.00     0.012 C 
ENDBRANCH  17  21
ENDBRANCH  15  17
ENDBRANCH   1  13
TORSDOF 8
ENDMDL
MODEL 8
REMARK VINA RESULT:      -5.5      2.647      6.957
REMARK  8 active torsions:
REMARK  status: ('A' for Active; 'I' for Inactive)
REMARK    1  A    between atoms: C_2  and  C_3 
REMARK    2  A    between atoms: C_3  and  C_6 
REMARK    3  A    between atoms: C_3  and  N_17 
REMARK    4  A    between atoms: C_12  and  C_23 
REMARK       I    between atoms: C_12  and  N_20 
REMARK    5  A    between atoms: N_14  and  C_19 
REMARK       I    between atoms: N_17  and  C_22 
REMARK    6  A    between atoms: C_18  and  C_19 
REMARK    7  A    between atoms: C_18  and  C_23 
REMARK    8  A    between atoms: C_19  and  C_22 
ROOT
HETATM    1  C           1     -22.007  -5.090  -7.525  0.00  0.00     0.275 C 
ENDROOT
BRANCH   1   2
HETATM    2  N           1     -23.126  -4.476  -6.735  0.00  0.00    -0.066 N 
HETATM    3  H           1     -22.763  -3.660  -6.193  0.00  0.00     0.275 HD
HETATM    4  H           1     -23.517  -5.187  -6.076  0.00  0.00     0.275 HD
HETATM    5  H           1     -23.878  -4.156  -7.386  0.00  0.00     0.275 HD
ENDBRANCH   1   2
BRANCH   1   6
HETATM    6  C           1     -21.268  -3.999  -8.288  0.00  0.00     0.052 C 
BRANCH   6   7
HETATM    7  C           1     -21.763  -3.962  -9.728  0.00  0.00     0.105 C 
BRANCH   7   8
HETATM    8  C           1     -20.583  -4.013 -10.668  0.00  0.00     0.215 C 
HETATM    9  N           1     -20.386  -3.007 -11.574  0.00  0.00    -0.370 N 
HETATM   10  H           1     -19.595  -3.041 -12.205  0.00  0.00     0.159 HD
HETATM   11  H           1     -21.032  -2.228 -11.615  0.00  0.00     0.159 HD
HETATM   12  O           1     -19.813  -4.941 -10.619  0.00  0.00    -0.274 OA
ENDBRANCH   7   8
ENDBRANCH   6   7
ENDBRANCH   1   6
BRANCH   1  13
HETATM   13  C           1     -21.052  -5.784  -6.586  0.00  0.00     0.249 C 
HETATM   14  O           1     -19.867  -5.557  -6.652  0.00  0.00    -0.271 OA
HETATM   15  N           1     -21.528  -6.673  -5.659  0.00  0.00    -0.344 N 
HETATM   16  H           1     -22.519  -6.864  -5.603  0.00  0.00     0.163 HD
BRANCH  15  17
HETATM   17  C           1     -20.609  -7.340  -4.757  0.00  0.00     0.189 C 
BRANCH  17  18
HETATM   18  C           1     -20.189  -8.660  -5.354  0.00  0.00     0.197 C 
HETATM   19  O           1     -21.046  -9.534  -5.605  0.00  0.00    -0.646 OA
HETATM   20  O           1     -18.982  -8.880  -5.597  0.00  0.00    -0.646 OA
ENDBRANCH  17  18
BRANCH  17  21
HETATM   21  C           1     -21.298  -7.583  -3.421  0.00  0.00     0.010 C 
HETATM   22  C           1     -20.311  -8.216  -2.449  0.00  0.00     0.012 C 
HETATM   23  C           1     -21.789  -6.257  -2.855  0.00  0.00     0.012 C 
ENDBRANCH  17  21
ENDBRANCH  15  17
ENDBRANCH   1  13
TORSDOF 8
ENDMDL
MODEL 9
REMARK VINA RESULT:      -5.5      3.744      8.455
REMARK  8 active torsions:
REMARK  status: ('A' for Active; 'I' for Inactive)
REMARK    1  A    between atoms: C_2  and  C_3 
REMARK    2  A    between atoms: C_3  and  C_6 
REMARK    3  A    between atoms: C_3  and  N_17 
REMARK    4  A    between atoms: C_12  and  C_23 
REMARK       I    between atoms: C_12  and  N_20 
REMARK    5  A    between atoms: N_14  and  C_19 
REMARK       I    between atoms: N_17  and  C_22 
REMARK    6  A    between atoms: C_18  and  C_19 
REMARK    7  A    between atoms: C_18  and  C_23 
REMARK    8  A    between atoms: C_19  and  C_22 
ROOT
HETATM    1  C           1     -20.332  -8.182  -4.129  0.00  0.00     0.275 C 
ENDROOT
BRANCH   1   2
HETATM    2  N           1     -20.110  -9.133  -5.268  0.00  0.00    -0.066 N 
HETATM    3  H           1     -19.108  -9.101  -5.558  0.00  0.00     0.275 HD
HETATM    4  H           1     -20.717  -8.859  -6.073  0.00  0.00     0.275 HD
HETATM    5  H           1     -20.354 -10.103  -4.964  0.00  0.00     0.275 HD
ENDBRANCH   1   2
BRANCH   1   6
HETATM    6  C           1     -21.548  -7.313  -4.423  0.00  0.00     0.052 C 
BRANCH   6   7
HETATM    7  C           1     -21.089  -5.940  -4.894  0.00  0.00     0.105 C 
BRANCH   7   8
HETATM    8  C           1     -21.297  -5.822  -6.384  0.00  0.00     0.215 C 
HETATM    9  N           1     -22.062  -4.806  -6.890  0.00  0.00    -0.370 N 
HETATM   10  H           1     -22.202  -4.727  -7.890  0.00  0.00     0.159 HD
HETATM   11  H           1     -22.489  -4.133  -6.265  0.00  0.00     0.159 HD
HETATM   12  O           1     -20.789  -6.624  -7.129  0.00  0.00    -0.274 OA
ENDBRANCH   7   8
ENDBRANCH   6   7
ENDBRANCH   1   6
BRANCH   1  13
HETATM   13  C           1     -20.566  -8.963  -2.860  0.00  0.00     0.249 C 
HETATM   14  O           1     -19.736  -9.751  -2.473  0.00  0.00    -0.271 OA
HETATM   15  N           1     -21.721  -8.781  -2.147  0.00  0.00    -0.344 N 
HETATM   16  H           1     -22.417  -8.122  -2.471  0.00  0.00     0.163 HD
BRANCH  15  17
HETATM   17  C           1     -21.946  -9.532  -0.928  0.00  0.00     0.189 C 
BRANCH  17  18
HETATM   18  C           1     -23.073 -10.512  -1.142  0.00  0.00     0.197 C 
HETATM   19  O           1     -23.955 -10.653  -0.268  0.00  0.00    -0.646 OA
HETATM   20  O           1     -23.126 -11.183  -2.196  0.00  0.00    -0.646 OA
ENDBRANCH  17  18
BRANCH  17  21
HETATM   21  C           1     -22.314  -8.574   0.197  0.00  0.00     0.010 C 
HETATM   22  C           1     -21.206  -8.572   1.243  0.00  0.00     0.012 C 
HETATM   23  C           1     -22.482  -7.170  -0.367  0.00  0.00     0.012 C 
ENDBRANCH  17  21
ENDBRANCH  15  17
ENDBRANCH   1  13
TORSDOF 8
ENDMDL
