MODEL 1
REMARK VINA RESULT:      -8.0      0.000      0.000
REMARK  8 active torsions:
REMARK  status: ('A' for Active; 'I' for Inactive)
REMARK    1  A    between atoms: C_2  and  C_3 
REMARK    2  A    between atoms: C_3  and  C_23 
REMARK    3  A    between atoms: C_4  and  C_5 
REMARK    4  A    between atoms: C_4  and  C_11 
REMARK    5  A    between atoms: C_4  and  N_21 
REMARK       I    between atoms: C_5  and  N_17 
REMARK    6  A    between atoms: O_8  and  C_11 
REMARK    7  A    between atoms: C_13  and  C_23 
REMARK    8  A    between atoms: N_17  and  C_23 
ROOT
HETATM    1  C           1     -35.113   0.245 -14.004  0.00  0.00     0.251 C 
HETATM    2  O           1     -34.329   1.094 -13.658  0.00  0.00    -0.271 OA
HETATM    3  H           1     -34.401  -1.694 -14.133  0.00  0.00     0.163 HD
HETATM    4  N           1     -34.953  -1.048 -13.584  0.00  0.00    -0.344 N 
ENDROOT
BRANCH   4   5
HETATM    5  C           1     -35.574  -1.492 -12.351  0.00  0.00     0.189 C 
BRANCH   5   6
HETATM    6  C           1     -34.499  -1.717 -11.295  0.00  0.00     0.074 C 
BRANCH   6   7
HETATM    7  C           1     -34.154  -3.173 -11.238  0.00  0.00    -0.056 A 
HETATM    8  C           1     -35.069  -4.088 -10.720  0.00  0.00     0.007 A 
HETATM    9  C           1     -34.747  -5.443 -10.667  0.00  0.00     0.001 A 
HETATM   10  C           1     -33.508  -5.884 -11.131  0.00  0.00     0.000 A 
HETATM   11  C           1     -32.591  -4.969 -11.649  0.00  0.00     0.001 A 
HETATM   12  C           1     -32.914  -3.613 -11.702  0.00  0.00     0.007 A 
ENDBRANCH   6   7
ENDBRANCH   5   6
BRANCH   5  13
HETATM   13  C           1     -36.542  -0.440 -11.868  0.00  0.00     0.197 C 
HETATM   14  O           1     -36.158   0.445 -11.072  0.00  0.00    -0.646 OA
HETATM   15  O           1     -37.727  -0.452 -12.264  0.00  0.00    -0.646 OA
ENDBRANCH   5  13
ENDBRANCH   4   5
BRANCH   1  16
HETATM   16  C           1     -36.272   0.607 -14.901  0.00  0.00     0.302 C 
BRANCH  16  17
HETATM   17  C           1     -36.569  -0.553 -15.842  0.00  0.00     0.153 C 
HETATM   18  C           1     -38.075  -0.683 -16.028  0.00  0.00     0.042 C 
BRANCH  17  19
HETATM   19  O           1     -35.964  -0.315 -17.084  0.00  0.00    -0.393 OA
HETATM   20  H           1     -36.632   0.032 -17.652  0.00  0.00     0.210 HD
ENDBRANCH  17  19
ENDBRANCH  16  17
BRANCH  16  21
HETATM   21  N           1     -35.920   1.824 -15.705  0.00  0.00    -0.064 N 
HETATM   22  H           1     -36.386   1.772 -16.639  0.00  0.00     0.275 HD
HETATM   23  H           1     -34.884   1.868 -15.835  0.00  0.00     0.275 HD
HETATM   24  H           1     -36.245   2.679 -15.202  0.00  0.00     0.275 HD
ENDBRANCH  16  21
ENDBRANCH   1  16
TORSDOF 8
ENDMDL
MODEL 2
REMARK VINA RESULT:      -7.8      1.679      2.260
REMARK  8 active torsions:
REMARK  status: ('A' for Active; 'I' for Inactive)
REMARK    1  A    between atoms: C_2  and  C_3 
REMARK    2  A    between atoms: C_3  and  C_23 
REMARK    3  A    between atoms: C_4  and  C_5 
REMARK    4  A    between atoms: C_4  and  C_11 
REMARK    5  A    between atoms: C_4  and  N_21 
REMARK       I    between atoms: C_5  and  N_17 
REMARK    6  A    between atoms: O_8  and  C_11 
REMARK    7  A    between atoms: C_13  and  C_23 
REMARK    8  A    between atoms: N_17  and  C_23 
ROOT
HETATM    1  C           1     -36.754  -0.333 -13.484  0.00  0.00     0.251 C 
HETATM    2  O           1     -37.825  -0.690 -13.913  0.00  0.00    -0.271 OA
HETATM    3  H           1     -36.774   1.035 -11.932  0.00  0.00     0.163 HD
HETATM    4  N           1     -36.636   0.064 -12.180  0.00  0.00    -0.344 N 
ENDROOT
BRANCH   4   5
HETATM    5  C           1     -36.316  -0.907 -11.152  0.00  0.00     0.189 C 
BRANCH   5   6
HETATM    6  C           1     -34.804  -1.078 -11.070  0.00  0.00     0.074 C 
BRANCH   6   7
HETATM    7  C           1     -34.463  -2.535 -11.115  0.00  0.00    -0.056 A 
HETATM    8  C           1     -33.167  -2.939 -11.431  0.00  0.00     0.007 A 
HETATM    9  C           1     -32.849  -4.296 -11.473  0.00  0.00     0.001 A 
HETATM   10  C           1     -33.829  -5.250 -11.200  0.00  0.00     0.000 A 
HETATM   11  C           1     -35.127  -4.847 -10.884  0.00  0.00     0.001 A 
HETATM   12  C           1     -35.444  -3.489 -10.842  0.00  0.00     0.007 A 
ENDBRANCH   6   7
ENDBRANCH   5   6
BRANCH   5  13
HETATM   13  C           1     -36.841  -0.425  -9.823  0.00  0.00     0.197 C 
HETATM   14  O           1     -36.053  -0.235  -8.871  0.00  0.00    -0.646 OA
HETATM   15  O           1     -38.065  -0.216  -9.673  0.00  0.00    -0.646 OA
ENDBRANCH   5  13
ENDBRANCH   4   5
BRANCH   1  16
HETATM   16  C           1     -35.544  -0.325 -14.387  0.00  0.00     0.302 C 
BRANCH  16  17
HETATM   17  C           1     -35.917   0.285 -15.732  0.00  0.00     0.153 C 
HETATM   18  C           1     -36.289  -0.824 -16.707  0.00  0.00     0.042 C 
BRANCH  17  19
HETATM   19  O           1     -37.010   1.148 -15.568  0.00  0.00    -0.393 OA
HETATM   20  H           1     -36.896   1.854 -16.182  0.00  0.00     0.210 HD
ENDBRANCH  17  19
ENDBRANCH  16  17
BRANCH  16  21
HETATM   21  N           1     -35.065  -1.732 -14.593  0.00  0.00    -0.064 N 
HETATM   22  H           1     -34.905  -1.901 -15.612  0.00  0.00     0.275 HD
HETATM   23  H           1     -35.786  -2.400 -14.239  0.00  0.00     0.275 HD
HETATM   24  H           1     -34.171  -1.874 -14.072  0.00  0.00     0.275 HD
ENDBRANCH  16  21
ENDBRANCH   1  16
TORSDOF 8
ENDMDL
MODEL 3
REMARK VINA RESULT:      -7.6     11.667     13.414
REMARK  8 active torsions:
REMARK  status: ('A' for Active; 'I' for Inactive)
REMARK    1  A    between atoms: C_2  and  C_3 
REMARK    2  A    between atoms: C_3  and  C_23 
REMARK    3  A    between atoms: C_4  and  C_5 
REMARK    4  A    between atoms: C_4  and  C_11 
REMARK    5  A    between atoms: C_4  and  N_21 
REMARK       I    between atoms: C_5  and  N_17 
REMARK    6  A    between atoms: O_8  and  C_11 
REMARK    7  A    between atoms: C_13  and  C_23 
REMARK    8  A    between atoms: N_17  and  C_23 
ROOT
HETATM    1  C           1     -23.841  -2.873 -12.186  0.00  0.00     0.251 C 
HETATM    2  O           1     -24.934  -3.180 -12.594  0.00  0.00    -0.271 OA
HETATM    3  H           1     -23.761  -1.862 -10.382  0.00  0.00     0.163 HD
HETATM    4  N           1     -23.619  -2.753 -10.841  0.00  0.00    -0.344 N 
ENDROOT
BRANCH   4   5
HETATM    5  C           1     -23.182  -3.902 -10.073  0.00  0.00     0.189 C 
BRANCH   5   6
HETATM    6  C           1     -23.106  -3.527  -8.599  0.00  0.00     0.074 C 
BRANCH   6   7
HETATM    7  C           1     -21.786  -3.962  -8.040  0.00  0.00    -0.056 A 
HETATM    8  C           1     -21.665  -4.254  -6.683  0.00  0.00     0.007 A 
HETATM    9  C           1     -20.436  -4.659  -6.163  0.00  0.00     0.001 A 
HETATM   10  C           1     -19.327  -4.771  -7.002  0.00  0.00     0.000 A 
HETATM   11  C           1     -19.448  -4.480  -8.361  0.00  0.00     0.001 A 
HETATM   12  C           1     -20.678  -4.075  -8.880  0.00  0.00     0.007 A 
ENDBRANCH   6   7
ENDBRANCH   5   6
BRANCH   5  13
HETATM   13  C           1     -24.165  -5.032 -10.255  0.00  0.00     0.197 C 
HETATM   14  O           1     -25.252  -5.021  -9.638  0.00  0.00    -0.646 OA
HETATM   15  O           1     -23.893  -5.980 -11.023  0.00  0.00    -0.646 OA
ENDBRANCH   5  13
ENDBRANCH   4   5
BRANCH   1  16
HETATM   16  C           1     -22.716  -2.620 -13.161  0.00  0.00     0.302 C 
BRANCH  16  17
HETATM   17  C           1     -23.261  -2.636 -14.583  0.00  0.00     0.153 C 
HETATM   18  C           1     -23.604  -1.216 -15.011  0.00  0.00     0.042 C 
BRANCH  17  19
HETATM   19  O           1     -22.294  -3.165 -15.449  0.00  0.00    -0.393 OA
HETATM   20  H           1     -22.742  -3.752 -16.034  0.00  0.00     0.210 HD
ENDBRANCH  17  19
ENDBRANCH  16  17
BRANCH  16  21
HETATM   21  N           1     -21.677  -3.692 -13.013  0.00  0.00    -0.064 N 
HETATM   22  H           1     -20.732  -3.293 -13.215  0.00  0.00     0.275 HD
HETATM   23  H           1     -21.878  -4.466 -13.685  0.00  0.00     0.275 HD
HETATM   24  H           1     -21.696  -4.063 -12.037  0.00  0.00     0.275 HD
ENDBRANCH  16  21
ENDBRANCH   1  16
TORSDOF 8
ENDMDL
MODEL 4
REMARK VINA RESULT:      -7.1      1.614      2.235
REMARK  8 active torsions:
REMARK  status: ('A' for Active; 'I' for Inactive)
REMARK    1  A    between atoms: C_2  and  C_3 
REMARK    2  A    between atoms: C_3  and  C_23 
REMARK    3  A    between atoms: C_4  and  C_5 
REMARK    4  A    between atoms: C_4  and  C_11 
REMARK    5  A    between atoms: C_4  and  N_21 
REMARK       I    between atoms: C_5  and  N_17 
REMARK    6  A    between atoms: O_8  and  C_11 
REMARK    7  A    between atoms: C_13  and  C_23 
REMARK    8  A    between atoms: N_17  and  C_23 
ROOT
HETATM    1  C           1     -35.619  -0.541 -14.935  0.00  0.00     0.251 C 
HETATM    2  O           1     -36.213   0.506 -15.024  0.00  0.00    -0.271 OA
HETATM    3  H           1     -33.831  -0.521 -13.894  0.00  0.00     0.163 HD
HETATM    4  N           1     -34.809  -0.780 -13.858  0.00  0.00    -0.344 N 
ENDROOT
BRANCH   4   5
HETATM    5  C           1     -35.350  -1.404 -12.666  0.00  0.00     0.189 C 
BRANCH   5   6
HETATM    6  C           1     -34.228  -1.640 -11.664  0.00  0.00     0.074 C 
BRANCH   6   7
HETATM    7  C           1     -34.048  -3.111 -11.453  0.00  0.00    -0.056 A 
HETATM    8  C           1     -32.856  -3.729 -11.826  0.00  0.00     0.007 A 
HETATM    9  C           1     -32.688  -5.099 -11.629  0.00  0.00     0.001 A 
HETATM   10  C           1     -33.715  -5.852 -11.060  0.00  0.00     0.000 A 
HETATM   11  C           1     -34.909  -5.235 -10.687  0.00  0.00     0.001 A 
HETATM   12  C           1     -35.075  -3.864 -10.884  0.00  0.00     0.007 A 
ENDBRANCH   6   7
ENDBRANCH   5   6
BRANCH   5  13
HETATM   13  C           1     -36.391  -0.499 -12.054  0.00  0.00     0.197 C 
HETATM   14  O           1     -37.605  -0.722 -12.251  0.00  0.00    -0.646 OA
HETATM   15  O           1     -36.039   0.472 -11.351  0.00  0.00    -0.646 OA
ENDBRANCH   5  13
ENDBRANCH   4   5
BRANCH   1  16
HETATM   16  C           1     -35.771  -1.589 -16.011  0.00  0.00     0.302 C 
BRANCH  16  17
HETATM   17  C           1     -34.444  -2.311 -16.208  0.00  0.00     0.153 C 
HETATM   18  C           1     -34.531  -3.706 -15.605  0.00  0.00     0.042 C 
BRANCH  17  19
HETATM   19  O           1     -34.166  -2.412 -17.579  0.00  0.00    -0.393 OA
HETATM   20  H           1     -33.722  -1.619 -17.827  0.00  0.00     0.210 HD
ENDBRANCH  17  19
ENDBRANCH  16  17
BRANCH  16  21
HETATM   21  N           1     -36.176  -0.930 -17.296  0.00  0.00    -0.064 N 
HETATM   22  H           1     -36.276  -1.654 -18.043  0.00  0.00     0.275 HD
HETATM   23  H           1     -35.446  -0.239 -17.578  0.00  0.00     0.275 HD
HETATM   24  H           1     -37.088  -0.439 -17.162  0.00  0.00     0.275 HD
ENDBRANCH  16  21
ENDBRANCH   1  16
TORSDOF 8
ENDMDL
MODEL 5
REMARK VINA RESULT:      -6.8      9.857     11.639
REMARK  8 active torsions:
REMARK  status: ('A' for Active; 'I' for Inactive)
REMARK    1  A    between atoms: C_2  and  C_3 
REMARK    2  A    between atoms: C_3  and  C_23 
REMARK    3  A    between atoms: C_4  and  C_5 
REMARK    4  A    between atoms: C_4  and  C_11 
REMARK    5  A    between atoms: C_4  and  N_21 
REMARK       I    between atoms: C_5  and  N_17 
REMARK    6  A    between atoms: O_8  and  C_11 
REMARK    7  A    between atoms: C_13  and  C_23 
REMARK    8  A    between atoms: N_17  and  C_23 
ROOT
HETATM    1  C           1     -28.966  -7.406 -16.821  0.00  0.00     0.251 C 
HETATM    2  O           1     -29.255  -8.501 -16.404  0.00  0.00    -0.271 OA
HETATM    3  H           1     -28.019  -6.121 -15.504  0.00  0.00     0.163 HD
HETATM    4  N           1     -27.894  -6.735 -16.298  0.00  0.00    -0.344 N 
ENDROOT
BRANCH   4   5
HETATM    5  C           1     -26.578  -6.904 -16.882  0.00  0.00     0.189 C 
BRANCH   5   6
HETATM    6  C           1     -26.428  -5.968 -18.075  0.00  0.00     0.074 C 
BRANCH   6   7
HETATM    7  C           1     -25.856  -6.724 -19.234  0.00  0.00    -0.056 A 
HETATM    8  C           1     -26.686  -7.138 -20.274  0.00  0.00     0.007 A 
HETATM    9  C           1     -26.153  -7.842 -21.354  0.00  0.00     0.001 A 
HETATM   10  C           1     -24.790  -8.132 -21.392  0.00  0.00     0.000 A 
HETATM   11  C           1     -23.958  -7.718 -20.351  0.00  0.00     0.001 A 
HETATM   12  C           1     -24.492  -7.014 -19.272  0.00  0.00     0.007 A 
ENDBRANCH   6   7
ENDBRANCH   5   6
BRANCH   5  13
HETATM   13  C           1     -25.524  -6.580 -15.852  0.00  0.00     0.197 C 
HETATM   14  O           1     -25.050  -5.425 -15.785  0.00  0.00    -0.646 OA
HETATM   15  O           1     -25.126  -7.466 -15.065  0.00  0.00    -0.646 OA
ENDBRANCH   5  13
ENDBRANCH   4   5
BRANCH   1  16
HETATM   16  C           1     -29.788  -6.775 -17.918  0.00  0.00     0.302 C 
BRANCH  16  17
HETATM   17  C           1     -30.825  -5.843 -17.305  0.00  0.00     0.153 C 
HETATM   18  C           1     -32.187  -6.525 -17.311  0.00  0.00     0.042 C 
BRANCH  17  19
HETATM   19  O           1     -30.461  -5.539 -15.986  0.00  0.00    -0.393 OA
HETATM   20  H           1     -30.699  -6.283 -15.458  0.00  0.00     0.210 HD
ENDBRANCH  17  19
ENDBRANCH  16  17
BRANCH  16  21
HETATM   21  N           1     -30.483  -7.848 -18.703  0.00  0.00    -0.064 N 
HETATM   22  H           1     -31.494  -7.874 -18.439  0.00  0.00     0.275 HD
HETATM   23  H           1     -30.045  -8.773 -18.491  0.00  0.00     0.275 HD
HETATM   24  H           1     -30.395  -7.645 -19.723  0.00  0.00     0.275 HD
ENDBRANCH  16  21
ENDBRANCH   1  16
TORSDOF 8
ENDMDL
MODEL 6
REMARK VINA RESULT:      -6.8     15.763     18.115
REMARK  8 active torsions:
REMARK  status: ('A' for Active; 'I' for Inactive)
REMARK    1  A    between atoms: C_2  and  C_3 
REMARK    2  A    between atoms: C_3  and  C_23 
REMARK    3  A    between atoms: C_4  and  C_5 
REMARK    4  A    between atoms: C_4  and  C_11 
REMARK    5  A    between atoms: C_4  and  N_21 
REMARK       I    between atoms: C_5  and  N_17 
REMARK    6  A    between atoms: O_8  and  C_11 
REMARK    7  A    between atoms: C_13  and  C_23 
REMARK    8  A    between atoms: N_17  and  C_23 
ROOT
HETATM    1  C           1     -20.369  -6.673  -6.228  0.00  0.00     0.251 C 
HETATM    2  O           1     -19.441  -6.572  -6.994  0.00  0.00    -0.271 OA
HETATM    3  H           1     -21.450  -8.436  -6.289  0.00  0.00     0.163 HD
HETATM    4  N           1     -20.755  -7.906  -5.778  0.00  0.00    -0.344 N 
ENDROOT
BRANCH   4   5
HETATM    5  C           1     -20.170  -8.454  -4.570  0.00  0.00     0.189 C 
BRANCH   5   6
HETATM    6  C           1     -21.201  -9.316  -3.853  0.00  0.00     0.074 C 
BRANCH   6   7
HETATM    7  C           1     -21.646  -8.626  -2.601  0.00  0.00    -0.056 A 
HETATM    8  C           1     -21.717  -7.234  -2.559  0.00  0.00     0.007 A 
HETATM    9  C           1     -22.131  -6.592  -1.393  0.00  0.00     0.001 A 
HETATM   10  C           1     -22.473  -7.341  -0.267  0.00  0.00     0.000 A 
HETATM   11  C           1     -22.401  -8.734  -0.309  0.00  0.00     0.001 A 
HETATM   12  C           1     -21.987  -9.376  -1.476  0.00  0.00     0.007 A 
ENDBRANCH   6   7
ENDBRANCH   5   6
BRANCH   5  13
HETATM   13  C           1     -18.971  -9.297  -4.929  0.00  0.00     0.197 C 
HETATM   14  O           1     -18.000  -9.368  -4.146  0.00  0.00    -0.646 OA
HETATM   15  O           1     -18.950  -9.924  -6.010  0.00  0.00    -0.646 OA
ENDBRANCH   5  13
ENDBRANCH   4   5
BRANCH   1  16
HETATM   16  C           1     -21.103  -5.438  -5.765  0.00  0.00     0.302 C 
BRANCH  16  17
HETATM   17  C           1     -21.875  -4.838  -6.932  0.00  0.00     0.153 C 
HETATM   18  C           1     -21.314  -3.461  -7.259  0.00  0.00     0.042 C 
BRANCH  17  19
HETATM   19  O           1     -21.750  -5.670  -8.054  0.00  0.00    -0.393 OA
HETATM   20  H           1     -22.014  -5.162  -8.802  0.00  0.00     0.210 HD
ENDBRANCH  17  19
ENDBRANCH  16  17
BRANCH  16  21
HETATM   21  N           1     -20.115  -4.432  -5.251  0.00  0.00    -0.064 N 
HETATM   22  H           1     -19.172  -4.631  -5.654  0.00  0.00     0.275 HD
HETATM   23  H           1     -20.067  -4.492  -4.209  0.00  0.00     0.275 HD
HETATM   24  H           1     -20.418  -3.473  -5.532  0.00  0.00     0.275 HD
ENDBRANCH  16  21
ENDBRANCH   1  16
TORSDOF 8
ENDMDL
MODEL 7
REMARK VINA RESULT:      -6.7     17.869     18.923
REMARK  8 active torsions:
REMARK  status: ('A' for Active; 'I' for Inactive)
REMARK    1  A    between atoms: C_2  and  C_3 
REMARK    2  A    between atoms: C_3  and  C_23 
REMARK    3  A    between atoms: C_4  and  C_5 
REMARK    4  A    between atoms: C_4  and  C_11 
REMARK    5  A    between atoms: C_4  and  N_21 
REMARK       I    between atoms: C_5  and  N_17 
REMARK    6  A    between atoms: O_8  and  C_11 
REMARK    7  A    between atoms: C_13  and  C_23 
REMARK    8  A    between atoms: N_17  and  C_23 
ROOT
HETATM    1  C           1     -20.425  -8.683  -5.092  0.00  0.00     0.251 C 
HETATM    2  O           1     -20.693  -8.048  -6.083  0.00  0.00    -0.271 OA
HETATM    3  H           1     -19.406  -7.692  -3.589  0.00  0.00     0.163 HD
HETATM    4  N           1     -20.305  -8.051  -3.884  0.00  0.00    -0.344 N 
ENDROOT
BRANCH   4   5
HETATM    5  C           1     -21.465  -7.894  -3.029  0.00  0.00     0.189 C 
BRANCH   5   6
HETATM    6  C           1     -21.171  -8.496  -1.661  0.00  0.00     0.074 C 
BRANCH   6   7
HETATM    7  C           1     -22.185  -9.554  -1.353  0.00  0.00    -0.056 A 
HETATM    8  C           1     -22.960  -9.462  -0.198  0.00  0.00     0.007 A 
HETATM    9  C           1     -23.904 -10.447   0.088  0.00  0.00     0.001 A 
HETATM   10  C           1     -24.072 -11.526  -0.780  0.00  0.00     0.000 A 
HETATM   11  C           1     -23.296 -11.618  -1.936  0.00  0.00     0.001 A 
HETATM   12  C           1     -22.352 -10.632  -2.222  0.00  0.00     0.007 A 
ENDBRANCH   6   7
ENDBRANCH   5   6
BRANCH   5  13
HETATM   13  C           1     -21.782  -6.426  -2.876  0.00  0.00     0.197 C 
HETATM   14  O           1     -21.278  -5.593  -3.660  0.00  0.00    -0.646 OA
HETATM   15  O           1     -22.549  -6.044  -1.966  0.00  0.00    -0.646 OA
ENDBRANCH   5  13
ENDBRANCH   4   5
BRANCH   1  16
HETATM   16  C           1     -20.224 -10.176  -5.184  0.00  0.00     0.302 C 
BRANCH  16  17
HETATM   17  C           1     -18.776 -10.472  -5.552  0.00  0.00     0.153 C 
HETATM   18  C           1     -18.730 -11.625  -6.546  0.00  0.00     0.042 C 
BRANCH  17  19
HETATM   19  O           1     -18.198  -9.334  -6.131  0.00  0.00    -0.393 OA
HETATM   20  H           1     -18.211  -8.657  -5.476  0.00  0.00     0.210 HD
ENDBRANCH  17  19
ENDBRANCH  16  17
BRANCH  16  21
HETATM   21  N           1     -21.131 -10.739  -6.238  0.00  0.00    -0.064 N 
HETATM   22  H           1     -21.978 -11.152  -5.786  0.00  0.00     0.275 HD
HETATM   23  H           1     -20.626 -11.481  -6.772  0.00  0.00     0.275 HD
HETATM   24  H           1     -21.421  -9.977  -6.890  0.00  0.00     0.275 HD
ENDBRANCH  16  21
ENDBRANCH   1  16
TORSDOF 8
ENDMDL
MODEL 8
REMARK VINA RESULT:      -6.7     17.411     20.110
REMARK  8 active torsions:
REMARK  status: ('A' for Active; 'I' for Inactive)
REMARK    1  A    between atoms: C_2  and  C_3 
REMARK    2  A    between atoms: C_3  and  C_23 
REMARK    3  A    between atoms: C_4  and  C_5 
REMARK    4  A    between atoms: C_4  and  C_11 
REMARK    5  A    between atoms: C_4  and  N_21 
REMARK       I    between atoms: C_5  and  N_17 
REMARK    6  A    between atoms: O_8  and  C_11 
REMARK    7  A    between atoms: C_13  and  C_23 
REMARK    8  A    between atoms: N_17  and  C_23 
ROOT
HETATM    1  C           1     -19.057  -9.655  -3.940  0.00  0.00     0.251 C 
HETATM    2  O           1     -19.212 -10.667  -4.579  0.00  0.00    -0.271 OA
HETATM    3  H           1     -19.096  -7.869  -4.984  0.00  0.00     0.163 HD
HETATM    4  N           1     -19.616  -8.481  -4.368  0.00  0.00    -0.344 N 
ENDROOT
BRANCH   4   5
HETATM    5  C           1     -20.952  -8.115  -3.940  0.00  0.00     0.189 C 
BRANCH   5   6
HETATM    6  C           1     -20.871  -7.355  -2.622  0.00  0.00     0.074 C 
BRANCH   6   7
HETATM    7  C           1     -21.730  -8.033  -1.601  0.00  0.00    -0.056 A 
HETATM    8  C           1     -21.941  -9.409  -1.670  0.00  0.00     0.007 A 
HETATM    9  C           1     -22.741 -10.041  -0.719  0.00  0.00     0.001 A 
HETATM   10  C           1     -23.331  -9.296   0.302  0.00  0.00     0.000 A 
HETATM   11  C           1     -23.120  -7.919   0.372  0.00  0.00     0.001 A 
HETATM   12  C           1     -22.319  -7.288  -0.580  0.00  0.00     0.007 A 
ENDBRANCH   6   7
ENDBRANCH   5   6
BRANCH   5  13
HETATM   13  C           1     -21.593  -7.239  -4.988  0.00  0.00     0.197 C 
HETATM   14  O           1     -21.283  -7.376  -6.191  0.00  0.00    -0.646 OA
HETATM   15  O           1     -22.435  -6.378  -4.653  0.00  0.00    -0.646 OA
ENDBRANCH   5  13
ENDBRANCH   4   5
BRANCH   1  16
HETATM   16  C           1     -18.248  -9.684  -2.666  0.00  0.00     0.302 C 
BRANCH  16  17
HETATM   17  C           1     -16.771  -9.511  -2.998  0.00  0.00     0.153 C 
HETATM   18  C           1     -15.962 -10.588  -2.288  0.00  0.00     0.042 C 
BRANCH  17  19
HETATM   19  O           1     -16.586  -9.626  -4.383  0.00  0.00    -0.393 OA
HETATM   20  H           1     -16.298  -8.783  -4.692  0.00  0.00     0.210 HD
ENDBRANCH  17  19
ENDBRANCH  16  17
BRANCH  16  21
HETATM   21  N           1     -18.452 -10.998  -1.973  0.00  0.00    -0.064 N 
HETATM   22  H           1     -17.561 -11.295  -1.516  0.00  0.00     0.275 HD
HETATM   23  H           1     -18.741 -11.719  -2.672  0.00  0.00     0.275 HD
HETATM   24  H           1     -19.198 -10.897  -1.249  0.00  0.00     0.275 HD
ENDBRANCH  16  21
ENDBRANCH   1  16
TORSDOF 8
ENDMDL
MODEL 9
REMARK VINA RESULT:      -6.6     11.698     13.518
REMARK  8 active torsions:
REMARK  status: ('A' for Active; 'I' for Inactive)
REMARK    1  A    between atoms: C_2  and  C_3 
REMARK    2  A    between atoms: C_3  and  C_23 
REMARK    3  A    between atoms: C_4  and  C_5 
REMARK    4  A    between atoms: C_4  and  C_11 
REMARK    5  A    between atoms: C_4  and  N_21 
REMARK       I    between atoms: C_5  and  N_17 
REMARK    6  A    between atoms: O_8  and  C_11 
REMARK    7  A    between atoms: C_13  and  C_23 
REMARK    8  A    between atoms: N_17  and  C_23 
ROOT
HETATM    1  C           1     -22.350  -3.293 -11.715  0.00  0.00     0.251 C 
HETATM    2  O           1     -21.681  -2.295 -11.603  0.00  0.00    -0.271 OA
HETATM    3  H           1     -21.398  -5.102 -11.393  0.00  0.00     0.163 HD
HETATM    4  N           1     -22.030  -4.416 -11.001  0.00  0.00    -0.344 N 
ENDROOT
BRANCH   4   5
HETATM    5  C           1     -22.597  -4.623  -9.682  0.00  0.00     0.189 C 
BRANCH   5   6
HETATM    6  C           1     -21.990  -3.623  -8.707  0.00  0.00     0.074 C 
BRANCH   6   7
HETATM    7  C           1     -21.493  -4.346  -7.495  0.00  0.00    -0.056 A 
HETATM    8  C           1     -20.153  -4.244  -7.122  0.00  0.00     0.007 A 
HETATM    9  C           1     -19.690  -4.918  -5.992  0.00  0.00     0.001 A 
HETATM   10  C           1     -20.567  -5.695  -5.235  0.00  0.00     0.000 A 
HETATM   11  C           1     -21.908  -5.797  -5.608  0.00  0.00     0.001 A 
HETATM   12  C           1     -22.370  -5.123  -6.738  0.00  0.00     0.007 A 
ENDBRANCH   6   7
ENDBRANCH   5   6
BRANCH   5  13
HETATM   13  C           1     -24.092  -4.427  -9.741  0.00  0.00     0.197 C 
HETATM   14  O           1     -24.603  -3.383  -9.282  0.00  0.00    -0.646 OA
HETATM   15  O           1     -24.818  -5.309 -10.249  0.00  0.00    -0.646 OA
ENDBRANCH   5  13
ENDBRANCH   4   5
BRANCH   1  16
HETATM   16  C           1     -23.540  -3.304 -12.643  0.00  0.00     0.302 C 
BRANCH  16  17
HETATM   17  C           1     -23.358  -2.238 -13.716  0.00  0.00     0.153 C 
HETATM   18  C           1     -22.820  -2.883 -14.986  0.00  0.00     0.042 C 
BRANCH  17  19
HETATM   19  O           1     -24.592  -1.631 -13.987  0.00  0.00    -0.393 OA
HETATM   20  H           1     -25.059  -1.583 -13.170  0.00  0.00     0.210 HD
ENDBRANCH  17  19
ENDBRANCH  16  17
BRANCH  16  21
HETATM   21  N           1     -24.787  -3.016 -11.860  0.00  0.00    -0.064 N 
HETATM   22  H           1     -24.607  -3.179 -10.844  0.00  0.00     0.275 HD
HETATM   23  H           1     -25.554  -3.647 -12.184  0.00  0.00     0.275 HD
HETATM   24  H           1     -25.068  -2.021 -12.009  0.00  0.00     0.275 HD
ENDBRANCH  16  21
ENDBRANCH   1  16
TORSDOF 8
ENDMDL
