MODEL 1
REMARK VINA RESULT:      -8.1      0.000      0.000
REMARK  12 active torsions:
REMARK  status: ('A' for Active; 'I' for Inactive)
REMARK    1  A    between atoms: N_9  and  C_22 
REMARK    2  A    between atoms: O_14  and  P_15 
REMARK    3  A    between atoms: P_15  and  O_16 
REMARK    4  A    between atoms: O_16  and  C_17 
REMARK    5  A    between atoms: C_20  and  C_21 
REMARK    6  A    between atoms: C_21  and  C_22 
REMARK    7  A    between atoms: C_22  and  C_23 
REMARK       I    between atoms: C_23  and  N_24 
REMARK    8  A    between atoms: N_24  and  C_28 
REMARK    9  A    between atoms: C_27  and  C_28 
REMARK   10  A    between atoms: C_28  and  C_29 
REMARK   11  A    between atoms: C_29  and  C_30 
REMARK   12  A    between atoms: C_30  and  C_32 
REMARK       I    between atoms: N_31  and  C_32 
ROOT
HETATM    1  C           1     -21.682  -4.887  -6.966  0.00  0.00     0.278 C 
ENDROOT
BRANCH   1   2
HETATM    2  N           1     -21.239  -3.459  -6.847  0.00  0.00    -0.066 N 
HETATM    3  H           1     -20.206  -3.401  -6.993  0.00  0.00     0.275 HD
HETATM    4  H           1     -21.478  -3.100  -5.895  0.00  0.00     0.275 HD
HETATM    5  H           1     -21.726  -2.882  -7.569  0.00  0.00     0.275 HD
ENDBRANCH   1   2
BRANCH   1   6
HETATM    6  C           1     -21.232  -5.447  -8.310  0.00  0.00     0.081 C 
BRANCH   6   7
HETATM    7  C           1     -21.705  -4.547  -9.409  0.00  0.00    -0.056 A 
HETATM    8  C           1     -20.792  -4.029 -10.327  0.00  0.00     0.010 A 
HETATM    9  C           1     -21.232  -3.191 -11.351  0.00  0.00     0.038 A 
HETATM   10  C           1     -22.585  -2.872 -11.459  0.00  0.00     0.081 A 
HETATM   11  C           1     -23.498  -3.390 -10.540  0.00  0.00     0.038 A 
HETATM   12  C           1     -23.059  -4.228  -9.515  0.00  0.00     0.010 A 
BRANCH  10  13
HETATM   13  O           1     -23.013  -2.058 -12.453  0.00  0.00    -0.247 OA
BRANCH  13  14
HETATM   14  P           1     -23.480  -2.737 -13.842  0.00  0.00     0.411 P 
HETATM   15  O           1     -24.249  -1.755 -14.637  0.00  0.00    -0.624 OA
HETATM   16  O           1     -24.331  -3.914 -13.552  0.00  0.00    -0.624 OA
BRANCH  14  17
HETATM   17  O           1     -22.180  -3.208 -14.676  0.00  0.00    -0.300 OA
HETATM   18  H           1     -21.554  -3.471 -14.024  0.00  0.00     0.223 HD
ENDBRANCH  14  17
ENDBRANCH  13  14
ENDBRANCH  10  13
ENDBRANCH   6   7
ENDBRANCH   1   6
BRANCH   1  19
HETATM   19  C           1     -21.068  -5.698  -5.852  0.00  0.00     0.249 C 
HETATM   20  O           1     -20.643  -5.146  -4.866  0.00  0.00    -0.271 OA
HETATM   21  N           1     -20.993  -7.062  -5.959  0.00  0.00    -0.345 N 
HETATM   22  H           1     -21.349  -7.525  -6.784  0.00  0.00     0.163 HD
BRANCH  21  23
HETATM   23  C           1     -20.404  -7.841  -4.887  0.00  0.00     0.186 C 
BRANCH  23  24
HETATM   24  C           1     -19.811  -9.107  -5.455  0.00  0.00     0.196 C 
HETATM   25  O           1     -18.610  -9.133  -5.803  0.00  0.00    -0.646 OA
HETATM   26  O           1     -20.518 -10.129  -5.576  0.00  0.00    -0.646 OA
ENDBRANCH  23  24
BRANCH  23  27
HETATM   27  C           1     -21.477  -8.196  -3.866  0.00  0.00     0.045 C 
BRANCH  27  28
HETATM   28  C           1     -20.972  -7.875  -2.465  0.00  0.00     0.105 C 
BRANCH  28  29
HETATM   29  C           1     -21.950  -6.957  -1.775  0.00  0.00     0.215 C 
HETATM   30  N           1     -22.380  -5.819  -2.403  0.00  0.00    -0.370 N 
HETATM   31  H           1     -23.035  -5.202  -1.940  0.00  0.00     0.159 HD
HETATM   32  H           1     -22.042  -5.594  -3.331  0.00  0.00     0.159 HD
HETATM   33  O           1     -22.353  -7.225  -0.668  0.00  0.00    -0.274 OA
ENDBRANCH  28  29
ENDBRANCH  27  28
ENDBRANCH  23  27
ENDBRANCH  21  23
ENDBRANCH   1  19
TORSDOF 12
ENDMDL
MODEL 2
REMARK VINA RESULT:      -8.1      1.561      3.031
REMARK  12 active torsions:
REMARK  status: ('A' for Active; 'I' for Inactive)
REMARK    1  A    between atoms: N_9  and  C_22 
REMARK    2  A    between atoms: O_14  and  P_15 
REMARK    3  A    between atoms: P_15  and  O_16 
REMARK    4  A    between atoms: O_16  and  C_17 
REMARK    5  A    between atoms: C_20  and  C_21 
REMARK    6  A    between atoms: C_21  and  C_22 
REMARK    7  A    between atoms: C_22  and  C_23 
REMARK       I    between atoms: C_23  and  N_24 
REMARK    8  A    between atoms: N_24  and  C_28 
REMARK    9  A    between atoms: C_27  and  C_28 
REMARK   10  A    between atoms: C_28  and  C_29 
REMARK   11  A    between atoms: C_29  and  C_30 
REMARK   12  A    between atoms: C_30  and  C_32 
REMARK       I    between atoms: N_31  and  C_32 
ROOT
HETATM    1  C           1     -20.973  -4.919  -6.372  0.00  0.00     0.278 C 
ENDROOT
BRANCH   1   2
HETATM    2  N           1     -19.673  -4.482  -5.763  0.00  0.00    -0.066 N 
HETATM    3  H           1     -19.732  -3.471  -5.504  0.00  0.00     0.275 HD
HETATM    4  H           1     -18.902  -4.620  -6.455  0.00  0.00     0.275 HD
HETATM    5  H           1     -19.480  -5.051  -4.908  0.00  0.00     0.275 HD
ENDBRANCH   1   2
BRANCH   1   6
HETATM    6  C           1     -20.703  -5.603  -7.706  0.00  0.00     0.081 C 
BRANCH   6   7
HETATM    7  C           1     -21.281  -4.781  -8.815  0.00  0.00    -0.056 A 
HETATM    8  C           1     -22.602  -4.339  -8.740  0.00  0.00     0.010 A 
HETATM    9  C           1     -23.141  -3.573  -9.773  0.00  0.00     0.038 A 
HETATM   10  C           1     -22.359  -3.247 -10.881  0.00  0.00     0.081 A 
HETATM   11  C           1     -21.038  -3.689 -10.956  0.00  0.00     0.038 A 
HETATM   12  C           1     -20.498  -4.456  -9.923  0.00  0.00     0.010 A 
BRANCH  10  13
HETATM   13  O           1     -22.883  -2.504 -11.885  0.00  0.00    -0.247 OA
BRANCH  13  14
HETATM   14  P           1     -23.906  -3.222 -12.907  0.00  0.00     0.411 P 
HETATM   15  O           1     -23.643  -2.746 -14.283  0.00  0.00    -0.624 OA
HETATM   16  O           1     -25.297  -2.892 -12.525  0.00  0.00    -0.624 OA
BRANCH  14  17
HETATM   17  O           1     -23.697  -4.822 -12.842  0.00  0.00    -0.300 OA
HETATM   18  H           1     -24.270  -5.170 -13.504  0.00  0.00     0.223 HD
ENDBRANCH  14  17
ENDBRANCH  13  14
ENDBRANCH  10  13
ENDBRANCH   6   7
ENDBRANCH   1   6
BRANCH   1  19
HETATM   19  C           1     -21.664  -5.885  -5.441  0.00  0.00     0.249 C 
HETATM   20  O           1     -22.870  -5.911  -5.385  0.00  0.00    -0.271 OA
HETATM   21  N           1     -20.923  -6.733  -4.661  0.00  0.00    -0.345 N 
HETATM   22  H           1     -19.913  -6.711  -4.708  0.00  0.00     0.163 HD
BRANCH  21  23
HETATM   23  C           1     -21.588  -7.661  -3.768  0.00  0.00     0.186 C 
BRANCH  23  24
HETATM   24  C           1     -21.484  -7.154  -2.350  0.00  0.00     0.196 C 
HETATM   25  O           1     -22.270  -6.271  -1.943  0.00  0.00    -0.646 OA
HETATM   26  O           1     -20.614  -7.618  -1.582  0.00  0.00    -0.646 OA
ENDBRANCH  23  24
BRANCH  23  27
HETATM   27  C           1     -20.924  -9.028  -3.868  0.00  0.00     0.045 C 
BRANCH  27  28
HETATM   28  C           1     -19.729  -8.945  -4.808  0.00  0.00     0.105 C 
BRANCH  28  29
HETATM   29  C           1     -18.477  -9.350  -4.070  0.00  0.00     0.215 C 
HETATM   30  N           1     -18.452  -9.325  -2.701  0.00  0.00    -0.370 N 
HETATM   31  H           1     -17.612  -9.596  -2.205  0.00  0.00     0.159 HD
HETATM   32  H           1     -19.273  -9.036  -2.185  0.00  0.00     0.159 HD
HETATM   33  O           1     -17.497  -9.695  -4.685  0.00  0.00    -0.274 OA
ENDBRANCH  28  29
ENDBRANCH  27  28
ENDBRANCH  23  27
ENDBRANCH  21  23
ENDBRANCH   1  19
TORSDOF 12
ENDMDL
MODEL 3
REMARK VINA RESULT:      -7.9      1.532      2.999
REMARK  12 active torsions:
REMARK  status: ('A' for Active; 'I' for Inactive)
REMARK    1  A    between atoms: N_9  and  C_22 
REMARK    2  A    between atoms: O_14  and  P_15 
REMARK    3  A    between atoms: P_15  and  O_16 
REMARK    4  A    between atoms: O_16  and  C_17 
REMARK    5  A    between atoms: C_20  and  C_21 
REMARK    6  A    between atoms: C_21  and  C_22 
REMARK    7  A    between atoms: C_22  and  C_23 
REMARK       I    between atoms: C_23  and  N_24 
REMARK    8  A    between atoms: N_24  and  C_28 
REMARK    9  A    between atoms: C_27  and  C_28 
REMARK   10  A    between atoms: C_28  and  C_29 
REMARK   11  A    between atoms: C_29  and  C_30 
REMARK   12  A    between atoms: C_30  and  C_32 
REMARK       I    between atoms: N_31  and  C_32 
ROOT
HETATM    1  C           1     -20.957  -4.902  -6.393  0.00  0.00     0.278 C 
ENDROOT
BRANCH   1   2
HETATM    2  N           1     -19.648  -4.479  -5.796  0.00  0.00    -0.066 N 
HETATM    3  H           1     -19.820  -4.010  -4.878  0.00  0.00     0.275 HD
HETATM    4  H           1     -19.169  -3.814  -6.444  0.00  0.00     0.275 HD
HETATM    5  H           1     -19.043  -5.319  -5.651  0.00  0.00     0.275 HD
ENDBRANCH   1   2
BRANCH   1   6
HETATM    6  C           1     -20.706  -5.598  -7.725  0.00  0.00     0.081 C 
BRANCH   6   7
HETATM    7  C           1     -21.279  -4.774  -8.835  0.00  0.00    -0.056 A 
HETATM    8  C           1     -20.490  -4.441  -9.935  0.00  0.00     0.010 A 
HETATM    9  C           1     -21.024  -3.674 -10.970  0.00  0.00     0.038 A 
HETATM   10  C           1     -22.349  -3.241 -10.906  0.00  0.00     0.081 A 
HETATM   11  C           1     -23.138  -3.574  -9.805  0.00  0.00     0.038 A 
HETATM   12  C           1     -22.604  -4.341  -8.770  0.00  0.00     0.010 A 
BRANCH  10  13
HETATM   13  O           1     -22.868  -2.496 -11.911  0.00  0.00    -0.247 OA
BRANCH  13  14
HETATM   14  P           1     -23.902  -3.207 -12.926  0.00  0.00     0.411 P 
HETATM   15  O           1     -23.655  -2.721 -14.302  0.00  0.00    -0.624 OA
HETATM   16  O           1     -25.289  -2.879 -12.526  0.00  0.00    -0.624 OA
BRANCH  14  17
HETATM   17  O           1     -23.693  -4.808 -12.875  0.00  0.00    -0.300 OA
HETATM   18  H           1     -23.032  -4.946 -12.219  0.00  0.00     0.223 HD
ENDBRANCH  14  17
ENDBRANCH  13  14
ENDBRANCH  10  13
ENDBRANCH   6   7
ENDBRANCH   1   6
BRANCH   1  19
HETATM   19  C           1     -21.656  -5.853  -5.452  0.00  0.00     0.249 C 
HETATM   20  O           1     -22.861  -5.926  -5.452  0.00  0.00    -0.271 OA
HETATM   21  N           1     -20.922  -6.634  -4.599  0.00  0.00    -0.345 N 
HETATM   22  H           1     -19.912  -6.573  -4.599  0.00  0.00     0.163 HD
BRANCH  21  23
HETATM   23  C           1     -21.593  -7.548  -3.696  0.00  0.00     0.186 C 
BRANCH  23  24
HETATM   24  C           1     -21.628  -6.949  -2.311  0.00  0.00     0.196 C 
HETATM   25  O           1     -20.949  -7.458  -1.393  0.00  0.00    -0.646 OA
HETATM   26  O           1     -22.335  -5.944  -2.082  0.00  0.00    -0.646 OA
ENDBRANCH  23  24
BRANCH  23  27
HETATM   27  C           1     -20.841  -8.871  -3.658  0.00  0.00     0.045 C 
BRANCH  27  28
HETATM   28  C           1     -21.729  -9.978  -4.210  0.00  0.00     0.105 C 
BRANCH  28  29
HETATM   29  C           1     -20.895 -10.934  -5.026  0.00  0.00     0.215 C 
HETATM   30  N           1     -21.058 -10.997  -6.383  0.00  0.00    -0.370 N 
HETATM   31  H           1     -20.500 -11.639  -6.931  0.00  0.00     0.159 HD
HETATM   32  H           1     -21.738 -10.402  -6.840  0.00  0.00     0.159 HD
HETATM   33  O           1     -20.084 -11.645  -4.481  0.00  0.00    -0.274 OA
ENDBRANCH  28  29
ENDBRANCH  27  28
ENDBRANCH  23  27
ENDBRANCH  21  23
ENDBRANCH   1  19
TORSDOF 12
ENDMDL
MODEL 4
REMARK VINA RESULT:      -7.9      3.889      9.774
REMARK  12 active torsions:
REMARK  status: ('A' for Active; 'I' for Inactive)
REMARK    1  A    between atoms: N_9  and  C_22 
REMARK    2  A    between atoms: O_14  and  P_15 
REMARK    3  A    between atoms: P_15  and  O_16 
REMARK    4  A    between atoms: O_16  and  C_17 
REMARK    5  A    between atoms: C_20  and  C_21 
REMARK    6  A    between atoms: C_21  and  C_22 
REMARK    7  A    between atoms: C_22  and  C_23 
REMARK       I    between atoms: C_23  and  N_24 
REMARK    8  A    between atoms: N_24  and  C_28 
REMARK    9  A    between atoms: C_27  and  C_28 
REMARK   10  A    between atoms: C_28  and  C_29 
REMARK   11  A    between atoms: C_29  and  C_30 
REMARK   12  A    between atoms: C_30  and  C_32 
REMARK       I    between atoms: N_31  and  C_32 
ROOT
HETATM    1  C           1     -21.039  -5.679  -6.912  0.00  0.00     0.278 C 
ENDROOT
BRANCH   1   2
HETATM    2  N           1     -19.709  -6.079  -7.480  0.00  0.00    -0.066 N 
HETATM    3  H           1     -19.653  -5.779  -8.479  0.00  0.00     0.275 HD
HETATM    4  H           1     -19.605  -7.117  -7.419  0.00  0.00     0.275 HD
HETATM    5  H           1     -18.945  -5.620  -6.933  0.00  0.00     0.275 HD
ENDBRANCH   1   2
BRANCH   1   6
HETATM    6  C           1     -20.855  -5.203  -5.477  0.00  0.00     0.081 C 
BRANCH   6   7
HETATM    7  C           1     -21.134  -6.334  -4.537  0.00  0.00    -0.056 A 
HETATM    8  C           1     -21.329  -7.622  -5.033  0.00  0.00     0.010 A 
HETATM    9  C           1     -21.589  -8.675  -4.157  0.00  0.00     0.038 A 
HETATM   10  C           1     -21.652  -8.441  -2.783  0.00  0.00     0.081 A 
HETATM   11  C           1     -21.457  -7.153  -2.287  0.00  0.00     0.038 A 
HETATM   12  C           1     -21.198  -6.098  -3.163  0.00  0.00     0.010 A 
BRANCH  10  13
HETATM   13  O           1     -21.905  -9.464  -1.932  0.00  0.00    -0.247 OA
BRANCH  13  14
HETATM   14  P           1     -20.710 -10.507  -1.624  0.00  0.00     0.411 P 
HETATM   15  O           1     -20.955 -11.768  -2.357  0.00  0.00    -0.624 OA
HETATM   16  O           1     -20.659 -10.780  -0.170  0.00  0.00    -0.624 OA
BRANCH  14  17
HETATM   17  O           1     -19.304  -9.871  -2.101  0.00  0.00    -0.300 OA
HETATM   18  H           1     -19.485  -8.958  -2.243  0.00  0.00     0.223 HD
ENDBRANCH  14  17
ENDBRANCH  13  14
ENDBRANCH  10  13
ENDBRANCH   6   7
ENDBRANCH   1   6
BRANCH   1  19
HETATM   19  C           1     -21.624  -4.562  -7.742  0.00  0.00     0.249 C 
HETATM   20  O           1     -21.608  -3.429  -7.326  0.00  0.00    -0.271 OA
HETATM   21  N           1     -22.172  -4.835  -8.967  0.00  0.00    -0.345 N 
HETATM   22  H           1     -22.185  -5.784  -9.316  0.00  0.00     0.163 HD
BRANCH  21  23
HETATM   23  C           1     -22.733  -3.761  -9.765  0.00  0.00     0.186 C 
BRANCH  23  24
HETATM   24  C           1     -24.239  -3.846  -9.732  0.00  0.00     0.196 C 
HETATM   25  O           1     -24.809  -4.929  -9.987  0.00  0.00    -0.646 OA
HETATM   26  O           1     -24.916  -2.836  -9.448  0.00  0.00    -0.646 OA
ENDBRANCH  23  24
BRANCH  23  27
HETATM   27  C           1     -22.248  -3.888 -11.202  0.00  0.00     0.045 C 
BRANCH  27  28
HETATM   28  C           1     -22.566  -2.607 -11.962  0.00  0.00     0.105 C 
BRANCH  28  29
HETATM   29  C           1     -23.288  -2.945 -13.243  0.00  0.00     0.215 C 
HETATM   30  N           1     -22.585  -3.074 -14.410  0.00  0.00    -0.370 N 
HETATM   31  H           1     -23.068  -3.300 -15.270  0.00  0.00     0.159 HD
HETATM   32  H           1     -21.581  -2.942 -14.414  0.00  0.00     0.159 HD
HETATM   33  O           1     -24.485  -3.102 -13.238  0.00  0.00    -0.274 OA
ENDBRANCH  28  29
ENDBRANCH  27  28
ENDBRANCH  23  27
ENDBRANCH  21  23
ENDBRANCH   1  19
TORSDOF 12
ENDMDL
MODEL 5
REMARK VINA RESULT:      -7.5      1.821      2.575
REMARK  12 active torsions:
REMARK  status: ('A' for Active; 'I' for Inactive)
REMARK    1  A    between atoms: N_9  and  C_22 
REMARK    2  A    between atoms: O_14  and  P_15 
REMARK    3  A    between atoms: P_15  and  O_16 
REMARK    4  A    between atoms: O_16  and  C_17 
REMARK    5  A    between atoms: C_20  and  C_21 
REMARK    6  A    between atoms: C_21  and  C_22 
REMARK    7  A    between atoms: C_22  and  C_23 
REMARK       I    between atoms: C_23  and  N_24 
REMARK    8  A    between atoms: N_24  and  C_28 
REMARK    9  A    between atoms: C_27  and  C_28 
REMARK   10  A    between atoms: C_28  and  C_29 
REMARK   11  A    between atoms: C_29  and  C_30 
REMARK   12  A    between atoms: C_30  and  C_32 
REMARK       I    between atoms: N_31  and  C_32 
ROOT
HETATM    1  C           1     -21.532  -6.426  -6.101  0.00  0.00     0.278 C 
ENDROOT
BRANCH   1   2
HETATM    2  N           1     -22.681  -5.910  -5.286  0.00  0.00    -0.066 N 
HETATM    3  H           1     -22.589  -4.876  -5.171  0.00  0.00     0.275 HD
HETATM    4  H           1     -22.673  -6.369  -4.346  0.00  0.00     0.275 HD
HETATM    5  H           1     -23.579  -6.130  -5.772  0.00  0.00     0.275 HD
ENDBRANCH   1   2
BRANCH   1   6
HETATM    6  C           1     -20.625  -5.266  -6.489  0.00  0.00     0.081 C 
BRANCH   6   7
HETATM    7  C           1     -21.091  -4.679  -7.784  0.00  0.00    -0.056 A 
HETATM    8  C           1     -22.363  -4.114  -7.876  0.00  0.00     0.010 A 
HETATM    9  C           1     -22.798  -3.566  -9.082  0.00  0.00     0.038 A 
HETATM   10  C           1     -21.961  -3.582 -10.198  0.00  0.00     0.081 A 
HETATM   11  C           1     -20.689  -4.147 -10.106  0.00  0.00     0.038 A 
HETATM   12  C           1     -20.253  -4.695  -8.899  0.00  0.00     0.010 A 
BRANCH  10  13
HETATM   13  O           1     -22.383  -3.050 -11.370  0.00  0.00    -0.247 OA
BRANCH  13  14
HETATM   14  P           1     -23.727  -3.650 -12.034  0.00  0.00     0.411 P 
HETATM   15  O           1     -23.848  -3.165 -13.426  0.00  0.00    -0.624 OA
HETATM   16  O           1     -24.903  -3.207 -11.251  0.00  0.00    -0.624 OA
BRANCH  14  17
HETATM   17  O           1     -23.657  -5.264 -12.029  0.00  0.00    -0.300 OA
HETATM   18  H           1     -23.232  -5.491 -12.838  0.00  0.00     0.223 HD
ENDBRANCH  14  17
ENDBRANCH  13  14
ENDBRANCH  10  13
ENDBRANCH   6   7
ENDBRANCH   1   6
BRANCH   1  19
HETATM   19  C           1     -20.749  -7.428  -5.288  0.00  0.00     0.249 C 
HETATM   20  O           1     -19.716  -7.881  -5.720  0.00  0.00    -0.271 OA
HETATM   21  N           1     -21.209  -7.822  -4.060  0.00  0.00    -0.345 N 
HETATM   22  H           1     -22.073  -7.442  -3.697  0.00  0.00     0.163 HD
BRANCH  21  23
HETATM   23  C           1     -20.455  -8.784  -3.279  0.00  0.00     0.186 C 
BRANCH  23  24
HETATM   24  C           1     -21.189 -10.102  -3.263  0.00  0.00     0.196 C 
HETATM   25  O           1     -22.036 -10.356  -4.147  0.00  0.00    -0.646 OA
HETATM   26  O           1     -20.950 -10.941  -2.368  0.00  0.00    -0.646 OA
ENDBRANCH  23  24
BRANCH  23  27
HETATM   27  C           1     -20.300  -8.272  -1.853  0.00  0.00     0.045 C 
BRANCH  27  28
HETATM   28  C           1     -21.576  -7.558  -1.427  0.00  0.00     0.105 C 
BRANCH  28  29
HETATM   29  C           1     -22.146  -8.230  -0.202  0.00  0.00     0.215 C 
HETATM   30  N           1     -22.843  -9.401  -0.326  0.00  0.00    -0.370 N 
HETATM   31  H           1     -23.226  -9.852   0.495  0.00  0.00     0.159 HD
HETATM   32  H           1     -22.976  -9.817  -1.239  0.00  0.00     0.159 HD
HETATM   33  O           1     -21.987  -7.733   0.887  0.00  0.00    -0.274 OA
ENDBRANCH  28  29
ENDBRANCH  27  28
ENDBRANCH  23  27
ENDBRANCH  21  23
ENDBRANCH   1  19
TORSDOF 12
ENDMDL
MODEL 6
REMARK VINA RESULT:      -7.3      2.220      4.075
REMARK  12 active torsions:
REMARK  status: ('A' for Active; 'I' for Inactive)
REMARK    1  A    between atoms: N_9  and  C_22 
REMARK    2  A    between atoms: O_14  and  P_15 
REMARK    3  A    between atoms: P_15  and  O_16 
REMARK    4  A    between atoms: O_16  and  C_17 
REMARK    5  A    between atoms: C_20  and  C_21 
REMARK    6  A    between atoms: C_21  and  C_22 
REMARK    7  A    between atoms: C_22  and  C_23 
REMARK       I    between atoms: C_23  and  N_24 
REMARK    8  A    between atoms: N_24  and  C_28 
REMARK    9  A    between atoms: C_27  and  C_28 
REMARK   10  A    between atoms: C_28  and  C_29 
REMARK   11  A    between atoms: C_29  and  C_30 
REMARK   12  A    between atoms: C_30  and  C_32 
REMARK       I    between atoms: N_31  and  C_32 
ROOT
HETATM    1  C           1     -21.569  -6.820  -5.422  0.00  0.00     0.278 C 
ENDROOT
BRANCH   1   2
HETATM    2  N           1     -22.274  -6.205  -4.249  0.00  0.00    -0.066 N 
HETATM    3  H           1     -21.829  -6.535  -3.363  0.00  0.00     0.275 HD
HETATM    4  H           1     -23.280  -6.488  -4.262  0.00  0.00     0.275 HD
HETATM    5  H           1     -22.205  -5.163  -4.308  0.00  0.00     0.275 HD
ENDBRANCH   1   2
BRANCH   1   6
HETATM    6  C           1     -20.505  -5.858  -5.934  0.00  0.00     0.081 C 
BRANCH   6   7
HETATM    7  C           1     -21.009  -5.162  -7.159  0.00  0.00    -0.056 A 
HETATM    8  C           1     -22.260  -4.546  -7.146  0.00  0.00     0.010 A 
HETATM    9  C           1     -22.730  -3.897  -8.287  0.00  0.00     0.038 A 
HETATM   10  C           1     -21.948  -3.861  -9.442  0.00  0.00     0.081 A 
HETATM   11  C           1     -20.696  -4.476  -9.454  0.00  0.00     0.038 A 
HETATM   12  C           1     -20.226  -5.126  -8.313  0.00  0.00     0.010 A 
BRANCH  10  13
HETATM   13  O           1     -22.404  -3.230 -10.550  0.00  0.00    -0.247 OA
BRANCH  13  14
HETATM   14  P           1     -23.687  -3.856 -11.305  0.00  0.00     0.411 P 
HETATM   15  O           1     -23.525  -3.695 -12.767  0.00  0.00    -0.624 OA
HETATM   16  O           1     -24.911  -3.153 -10.861  0.00  0.00    -0.624 OA
BRANCH  14  17
HETATM   17  O           1     -23.810  -5.426 -10.947  0.00  0.00    -0.300 OA
HETATM   18  H           1     -23.301  -5.537 -10.162  0.00  0.00     0.223 HD
ENDBRANCH  14  17
ENDBRANCH  13  14
ENDBRANCH  10  13
ENDBRANCH   6   7
ENDBRANCH   1   6
BRANCH   1  19
HETATM   19  C           1     -20.918  -8.112  -4.995  0.00  0.00     0.249 C 
HETATM   20  O           1     -20.916  -9.063  -5.741  0.00  0.00    -0.271 OA
HETATM   21  N           1     -20.327  -8.207  -3.763  0.00  0.00    -0.345 N 
HETATM   22  H           1     -20.328  -7.411  -3.139  0.00  0.00     0.163 HD
BRANCH  21  23
HETATM   23  C           1     -19.700  -9.449  -3.354  0.00  0.00     0.186 C 
BRANCH  23  24
HETATM   24  C           1     -20.031  -9.725  -1.908  0.00  0.00     0.196 C 
HETATM   25  O           1     -19.609 -10.766  -1.359  0.00  0.00    -0.646 OA
HETATM   26  O           1     -20.724  -8.913  -1.259  0.00  0.00    -0.646 OA
ENDBRANCH  23  24
BRANCH  23  27
HETATM   27  C           1     -18.191  -9.336  -3.518  0.00  0.00     0.045 C 
BRANCH  27  28
HETATM   28  C           1     -17.686 -10.476  -4.392  0.00  0.00     0.105 C 
BRANCH  28  29
HETATM   29  C           1     -17.149  -9.919  -5.687  0.00  0.00     0.215 C 
HETATM   30  N           1     -17.981  -9.245  -6.539  0.00  0.00    -0.370 N 
HETATM   31  H           1     -17.621  -8.872  -7.408  0.00  0.00     0.159 HD
HETATM   32  H           1     -18.957  -9.118  -6.300  0.00  0.00     0.159 HD
HETATM   33  O           1     -15.985 -10.070  -5.972  0.00  0.00    -0.274 OA
ENDBRANCH  28  29
ENDBRANCH  27  28
ENDBRANCH  23  27
ENDBRANCH  21  23
ENDBRANCH   1  19
TORSDOF 12
ENDMDL
MODEL 7
REMARK VINA RESULT:      -7.1      2.542      4.220
REMARK  12 active torsions:
REMARK  status: ('A' for Active; 'I' for Inactive)
REMARK    1  A    between atoms: N_9  and  C_22 
REMARK    2  A    between atoms: O_14  and  P_15 
REMARK    3  A    between atoms: P_15  and  O_16 
REMARK    4  A    between atoms: O_16  and  C_17 
REMARK    5  A    between atoms: C_20  and  C_21 
REMARK    6  A    between atoms: C_21  and  C_22 
REMARK    7  A    between atoms: C_22  and  C_23 
REMARK       I    between atoms: C_23  and  N_24 
REMARK    8  A    between atoms: N_24  and  C_28 
REMARK    9  A    between atoms: C_27  and  C_28 
REMARK   10  A    between atoms: C_28  and  C_29 
REMARK   11  A    between atoms: C_29  and  C_30 
REMARK   12  A    between atoms: C_30  and  C_32 
REMARK       I    between atoms: N_31  and  C_32 
ROOT
HETATM    1  C           1     -21.520  -6.705  -5.615  0.00  0.00     0.278 C 
ENDROOT
BRANCH   1   2
HETATM    2  N           1     -22.163  -6.135  -4.386  0.00  0.00    -0.066 N 
HETATM    3  H           1     -22.148  -6.848  -3.623  0.00  0.00     0.275 HD
HETATM    4  H           1     -23.151  -5.872  -4.600  0.00  0.00     0.275 HD
HETATM    5  H           1     -21.636  -5.285  -4.079  0.00  0.00     0.275 HD
ENDBRANCH   1   2
BRANCH   1   6
HETATM    6  C           1     -20.470  -5.732  -6.136  0.00  0.00     0.081 C 
BRANCH   6   7
HETATM    7  C           1     -20.987  -5.049  -7.363  0.00  0.00    -0.056 A 
HETATM    8  C           1     -20.207  -5.009  -8.519  0.00  0.00     0.010 A 
HETATM    9  C           1     -20.689  -4.373  -9.663  0.00  0.00     0.038 A 
HETATM   10  C           1     -21.950  -3.778  -9.653  0.00  0.00     0.081 A 
HETATM   11  C           1     -22.730  -3.819  -8.497  0.00  0.00     0.038 A 
HETATM   12  C           1     -22.249  -4.455  -7.352  0.00  0.00     0.010 A 
BRANCH  10  13
HETATM   13  O           1     -22.418  -3.160 -10.764  0.00  0.00    -0.247 OA
BRANCH  13  14
HETATM   14  P           1     -23.708  -3.795 -11.499  0.00  0.00     0.411 P 
HETATM   15  O           1     -24.939  -3.189 -10.944  0.00  0.00    -0.624 OA
HETATM   16  O           1     -23.732  -5.258 -11.276  0.00  0.00    -0.624 OA
BRANCH  14  17
HETATM   17  O           1     -23.628  -3.495 -13.084  0.00  0.00    -0.300 OA
HETATM   18  H           1     -22.985  -4.098 -13.414  0.00  0.00     0.223 HD
ENDBRANCH  14  17
ENDBRANCH  13  14
ENDBRANCH  10  13
ENDBRANCH   6   7
ENDBRANCH   1   6
BRANCH   1  19
HETATM   19  C           1     -20.863  -8.020  -5.275  0.00  0.00     0.249 C 
HETATM   20  O           1     -21.536  -8.953  -4.905  0.00  0.00    -0.271 OA
HETATM   21  N           1     -19.505  -8.157  -5.389  0.00  0.00    -0.345 N 
HETATM   22  H           1     -18.942  -7.376  -5.700  0.00  0.00     0.163 HD
BRANCH  21  23
HETATM   23  C           1     -18.875  -9.422  -5.063  0.00  0.00     0.186 C 
BRANCH  23  24
HETATM   24  C           1     -18.266  -9.338  -3.685  0.00  0.00     0.196 C 
HETATM   25  O           1     -18.999  -9.162  -2.687  0.00  0.00    -0.646 OA
HETATM   26  O           1     -17.030  -9.445  -3.540  0.00  0.00    -0.646 OA
ENDBRANCH  23  24
BRANCH  23  27
HETATM   27  C           1     -17.785  -9.725  -6.082  0.00  0.00     0.045 C 
BRANCH  27  28
HETATM   28  C           1     -17.877 -11.185  -6.506  0.00  0.00     0.105 C 
BRANCH  28  29
HETATM   29  C           1     -16.682 -11.940  -5.978  0.00  0.00     0.215 C 
HETATM   30  N           1     -15.558 -11.259  -5.597  0.00  0.00    -0.370 N 
HETATM   31  H           1     -14.755 -11.764  -5.243  0.00  0.00     0.159 HD
HETATM   32  H           1     -15.528 -10.249  -5.668  0.00  0.00     0.159 HD
HETATM   33  O           1     -16.718 -13.144  -5.892  0.00  0.00    -0.274 OA
ENDBRANCH  28  29
ENDBRANCH  27  28
ENDBRANCH  23  27
ENDBRANCH  21  23
ENDBRANCH   1  19
TORSDOF 12
ENDMDL
MODEL 8
REMARK VINA RESULT:      -6.9      2.204      3.400
REMARK  12 active torsions:
REMARK  status: ('A' for Active; 'I' for Inactive)
REMARK    1  A    between atoms: N_9  and  C_22 
REMARK    2  A    between atoms: O_14  and  P_15 
REMARK    3  A    between atoms: P_15  and  O_16 
REMARK    4  A    between atoms: O_16  and  C_17 
REMARK    5  A    between atoms: C_20  and  C_21 
REMARK    6  A    between atoms: C_21  and  C_22 
REMARK    7  A    between atoms: C_22  and  C_23 
REMARK       I    between atoms: C_23  and  N_24 
REMARK    8  A    between atoms: N_24  and  C_28 
REMARK    9  A    between atoms: C_27  and  C_28 
REMARK   10  A    between atoms: C_28  and  C_29 
REMARK   11  A    between atoms: C_29  and  C_30 
REMARK   12  A    between atoms: C_30  and  C_32 
REMARK       I    between atoms: N_31  and  C_32 
ROOT
HETATM    1  C           1     -20.161  -6.087  -5.696  0.00  0.00     0.278 C 
ENDROOT
BRANCH   1   2
HETATM    2  N           1     -20.278  -6.692  -7.063  0.00  0.00    -0.066 N 
HETATM    3  H           1     -20.487  -5.941  -7.759  0.00  0.00     0.275 HD
HETATM    4  H           1     -21.050  -7.396  -7.066  0.00  0.00     0.275 HD
HETATM    5  H           1     -19.378  -7.161  -7.315  0.00  0.00     0.275 HD
ENDBRANCH   1   2
BRANCH   1   6
HETATM    6  C           1     -20.427  -4.589  -5.779  0.00  0.00     0.081 C 
BRANCH   6   7
HETATM    7  C           1     -20.954  -4.251  -7.138  0.00  0.00    -0.056 A 
HETATM    8  C           1     -20.075  -4.105  -8.211  0.00  0.00     0.010 A 
HETATM    9  C           1     -20.566  -3.790  -9.478  0.00  0.00     0.038 A 
HETATM   10  C           1     -21.937  -3.621  -9.672  0.00  0.00     0.081 A 
HETATM   11  C           1     -22.816  -3.767  -8.600  0.00  0.00     0.038 A 
HETATM   12  C           1     -22.325  -4.082  -7.332  0.00  0.00     0.010 A 
BRANCH  10  13
HETATM   13  O           1     -22.414  -3.315 -10.903  0.00  0.00    -0.247 OA
BRANCH  13  14
HETATM   14  P           1     -23.810  -3.982 -11.363  0.00  0.00     0.411 P 
HETATM   15  O           1     -23.868  -4.035 -12.840  0.00  0.00    -0.624 OA
HETATM   16  O           1     -24.937  -3.170 -10.851  0.00  0.00    -0.624 OA
BRANCH  14  17
HETATM   17  O           1     -23.914  -5.480 -10.765  0.00  0.00    -0.300 OA
HETATM   18  H           1     -24.713  -5.489 -10.267  0.00  0.00     0.223 HD
ENDBRANCH  14  17
ENDBRANCH  13  14
ENDBRANCH  10  13
ENDBRANCH   6   7
ENDBRANCH   1   6
BRANCH   1  19
HETATM   19  C           1     -21.170  -6.727  -4.775  0.00  0.00     0.249 C 
HETATM   20  O           1     -22.336  -6.762  -5.088  0.00  0.00    -0.271 OA
HETATM   21  N           1     -20.763  -7.270  -3.585  0.00  0.00    -0.345 N 
HETATM   22  H           1     -19.787  -7.241  -3.323  0.00  0.00     0.163 HD
BRANCH  21  23
HETATM   23  C           1     -21.734  -7.886  -2.701  0.00  0.00     0.186 C 
BRANCH  23  24
HETATM   24  C           1     -22.068  -6.933  -1.581  0.00  0.00     0.196 C 
HETATM   25  O           1     -21.940  -7.296  -0.391  0.00  0.00    -0.646 OA
HETATM   26  O           1     -22.473  -5.779  -1.841  0.00  0.00    -0.646 OA
ENDBRANCH  23  24
BRANCH  23  27
HETATM   27  C           1     -21.152  -9.168  -2.120  0.00  0.00     0.045 C 
BRANCH  27  28
HETATM   28  C           1     -22.209 -10.265  -2.148  0.00  0.00     0.105 C 
BRANCH  28  29
HETATM   29  C           1     -22.586 -10.637  -0.735  0.00  0.00     0.215 C 
HETATM   30  N           1     -23.602  -9.973  -0.102  0.00  0.00    -0.370 N 
HETATM   31  H           1     -23.855 -10.221   0.846  0.00  0.00     0.159 HD
HETATM   32  H           1     -24.100  -9.233  -0.581  0.00  0.00     0.159 HD
HETATM   33  O           1     -21.992 -11.519  -0.163  0.00  0.00    -0.274 OA
ENDBRANCH  28  29
ENDBRANCH  27  28
ENDBRANCH  23  27
ENDBRANCH  21  23
ENDBRANCH   1  19
TORSDOF 12
ENDMDL
MODEL 9
REMARK VINA RESULT:      -6.6      2.723      3.975
REMARK  12 active torsions:
REMARK  status: ('A' for Active; 'I' for Inactive)
REMARK    1  A    between atoms: N_9  and  C_22 
REMARK    2  A    between atoms: O_14  and  P_15 
REMARK    3  A    between atoms: P_15  and  O_16 
REMARK    4  A    between atoms: O_16  and  C_17 
REMARK    5  A    between atoms: C_20  and  C_21 
REMARK    6  A    between atoms: C_21  and  C_22 
REMARK    7  A    between atoms: C_22  and  C_23 
REMARK       I    between atoms: C_23  and  N_24 
REMARK    8  A    between atoms: N_24  and  C_28 
REMARK    9  A    between atoms: C_27  and  C_28 
REMARK   10  A    between atoms: C_28  and  C_29 
REMARK   11  A    between atoms: C_29  and  C_30 
REMARK   12  A    between atoms: C_30  and  C_32 
REMARK       I    between atoms: N_31  and  C_32 
ROOT
HETATM    1  C           1     -20.167  -7.870  -5.108  0.00  0.00     0.278 C 
ENDROOT
BRANCH   1   2
HETATM    2  N           1     -21.153  -8.600  -5.971  0.00  0.00    -0.066 N 
HETATM    3  H           1     -20.661  -9.003  -6.799  0.00  0.00     0.275 HD
HETATM    4  H           1     -21.892  -7.934  -6.293  0.00  0.00     0.275 HD
HETATM    5  H           1     -21.596  -9.370  -5.419  0.00  0.00     0.275 HD
ENDBRANCH   1   2
BRANCH   1   6
HETATM    6  C           1     -20.778  -6.556  -4.640  0.00  0.00     0.081 C 
BRANCH   6   7
HETATM    7  C           1     -21.020  -5.669  -5.821  0.00  0.00    -0.056 A 
HETATM    8  C           1     -22.324  -5.387  -6.226  0.00  0.00     0.010 A 
HETATM    9  C           1     -22.550  -4.560  -7.326  0.00  0.00     0.038 A 
HETATM   10  C           1     -21.471  -4.014  -8.022  0.00  0.00     0.081 A 
HETATM   11  C           1     -20.167  -4.296  -7.617  0.00  0.00     0.038 A 
HETATM   12  C           1     -19.940  -5.123  -6.516  0.00  0.00     0.010 A 
BRANCH  10  13
HETATM   13  O           1     -21.691  -3.211  -9.090  0.00  0.00    -0.247 OA
BRANCH  13  14
HETATM   14  P           1     -21.794  -3.900 -10.548  0.00  0.00     0.411 P 
HETATM   15  O           1     -22.874  -4.911 -10.539  0.00  0.00    -0.624 OA
HETATM   16  O           1     -20.507  -4.552 -10.876  0.00  0.00    -0.624 OA
BRANCH  14  17
HETATM   17  O           1     -22.122  -2.771 -11.655  0.00  0.00    -0.300 OA
HETATM   18  H           1     -21.321  -2.284 -11.751  0.00  0.00     0.223 HD
ENDBRANCH  14  17
ENDBRANCH  13  14
ENDBRANCH  10  13
ENDBRANCH   6   7
ENDBRANCH   1   6
BRANCH   1  19
HETATM   19  C           1     -19.821  -8.720  -3.910  0.00  0.00     0.249 C 
HETATM   20  O           1     -18.666  -8.968  -3.659  0.00  0.00    -0.271 OA
HETATM   21  N           1     -20.817  -9.208  -3.107  0.00  0.00    -0.345 N 
HETATM   22  H           1     -21.784  -9.000  -3.317  0.00  0.00     0.163 HD
BRANCH  21  23
HETATM   23  C           1     -20.484 -10.024  -1.955  0.00  0.00     0.186 C 
BRANCH  23  24
HETATM   24  C           1     -20.638 -11.482  -2.312  0.00  0.00     0.196 C 
HETATM   25  O           1     -21.778 -11.986  -2.404  0.00  0.00    -0.646 OA
HETATM   26  O           1     -19.626 -12.185  -2.517  0.00  0.00    -0.646 OA
ENDBRANCH  23  24
BRANCH  23  27
HETATM   27  C           1     -21.418  -9.682  -0.802  0.00  0.00     0.045 C 
BRANCH  27  28
HETATM   28  C           1     -21.178  -8.244  -0.362  0.00  0.00     0.105 C 
BRANCH  28  29
HETATM   29  C           1     -22.492  -7.502  -0.325  0.00  0.00     0.215 C 
HETATM   30  N           1     -23.469  -7.886   0.553  0.00  0.00    -0.370 N 
HETATM   31  H           1     -24.351  -7.390   0.578  0.00  0.00     0.159 HD
HETATM   32  H           1     -23.311  -8.667   1.178  0.00  0.00     0.159 HD
HETATM   33  O           1     -22.681  -6.571  -1.071  0.00  0.00    -0.274 OA
ENDBRANCH  28  29
ENDBRANCH  27  28
ENDBRANCH  23  27
ENDBRANCH  21  23
ENDBRANCH   1  19
TORSDOF 12
ENDMDL
