MODEL 1
REMARK VINA RESULT:      -6.2      0.000      0.000
REMARK  8 active torsions:
REMARK  status: ('A' for Active; 'I' for Inactive)
REMARK    1  A    between atoms: O_1  and  C_2 
REMARK    2  A    between atoms: C_2  and  C_3 
REMARK    3  A    between atoms: C_3  and  C_14 
REMARK    4  A    between atoms: C_3  and  N_5 
REMARK       I    between atoms: N_5  and  C_11 
REMARK    5  A    between atoms: C_8  and  C_9 
REMARK    6  A    between atoms: C_9  and  C_10 
REMARK    7  A    between atoms: C_10  and  C_11 
REMARK    8  A    between atoms: C_10  and  N_15 
ROOT
HETATM    1  N           1     -34.983  -0.497 -14.099  0.00  0.00    -0.343 N 
HETATM    2  C           1     -35.401  -1.129 -12.959  0.00  0.00     0.249 C 
HETATM    3  O           1     -36.581  -1.257 -12.735  0.00  0.00    -0.271 OA
HETATM    4  H           1     -33.994  -0.391 -14.286  0.00  0.00     0.163 HD
ENDROOT
BRANCH   2   5
HETATM    5  C           1     -34.386  -1.669 -11.981  0.00  0.00     0.284 C 
BRANCH   5   6
HETATM    6  C           1     -34.188  -3.159 -12.223  0.00  0.00     0.155 C 
BRANCH   6   7
HETATM    7  C           1     -34.741  -3.937 -11.055  0.00  0.00     0.175 C 
HETATM    8  O           1     -33.964  -4.507 -10.259  0.00  0.00    -0.648 OA
HETATM    9  O           1     -35.978  -4.011 -10.884  0.00  0.00    -0.648 OA
ENDBRANCH   6   7
ENDBRANCH   5   6
BRANCH   5  10
HETATM   10  N           1     -34.878  -1.452 -10.580  0.00  0.00    -0.066 N 
HETATM   11  H           1     -34.064  -1.286  -9.946  0.00  0.00     0.275 HD
HETATM   12  H           1     -35.511  -0.621 -10.559  0.00  0.00     0.275 HD
HETATM   13  H           1     -35.402  -2.298 -10.260  0.00  0.00     0.275 HD
ENDBRANCH   5  10
ENDBRANCH   2   5
BRANCH   1  14
HETATM   14  C           1     -35.959   0.022 -15.038  0.00  0.00     0.209 C 
BRANCH  14  15
HETATM   15  C           1     -35.627   1.473 -15.364  0.00  0.00     0.200 C 
BRANCH  15  16
HETATM   16  O           1     -36.639   2.014 -16.170  0.00  0.00    -0.398 OA
HETATM   17  H           1     -36.751   1.428 -16.898  0.00  0.00     0.209 HD
ENDBRANCH  15  16
ENDBRANCH  14  15
BRANCH  14  18
HETATM   18  C           1     -35.924  -0.799 -16.304  0.00  0.00     0.198 C 
HETATM   19  O           1     -36.888  -0.765 -17.097  0.00  0.00    -0.646 OA
HETATM   20  O           1     -34.929  -1.512 -16.559  0.00  0.00    -0.646 OA
ENDBRANCH  14  18
ENDBRANCH   1  14
TORSDOF 8
ENDMDL
MODEL 2
REMARK VINA RESULT:      -6.0     10.265     11.372
REMARK  8 active torsions:
REMARK  status: ('A' for Active; 'I' for Inactive)
REMARK    1  A    between atoms: O_1  and  C_2 
REMARK    2  A    between atoms: C_2  and  C_3 
REMARK    3  A    between atoms: C_3  and  C_14 
REMARK    4  A    between atoms: C_3  and  N_5 
REMARK       I    between atoms: N_5  and  C_11 
REMARK    5  A    between atoms: C_8  and  C_9 
REMARK    6  A    between atoms: C_9  and  C_10 
REMARK    7  A    between atoms: C_10  and  C_11 
REMARK    8  A    between atoms: C_10  and  N_15 
ROOT
HETATM    1  N           1     -27.704  -7.307 -19.150  0.00  0.00    -0.343 N 
HETATM    2  C           1     -28.567  -6.407 -18.586  0.00  0.00     0.249 C 
HETATM    3  O           1     -28.617  -5.274 -19.003  0.00  0.00    -0.271 OA
HETATM    4  H           1     -27.663  -8.256 -18.800  0.00  0.00     0.163 HD
ENDROOT
BRANCH   2   5
HETATM    5  C           1     -29.458  -6.829 -17.444  0.00  0.00     0.284 C 
BRANCH   5   6
HETATM    6  C           1     -28.981  -6.169 -16.156  0.00  0.00     0.155 C 
BRANCH   6   7
HETATM    7  C           1     -27.650  -6.753 -15.754  0.00  0.00     0.175 C 
HETATM    8  O           1     -26.590  -6.247 -16.182  0.00  0.00    -0.648 OA
HETATM    9  O           1     -27.607  -7.745 -14.993  0.00  0.00    -0.648 OA
ENDBRANCH   6   7
ENDBRANCH   5   6
BRANCH   5  10
HETATM   10  N           1     -29.402  -8.321 -17.291  0.00  0.00    -0.066 N 
HETATM   11  H           1     -29.704  -8.774 -18.183  0.00  0.00     0.275 HD
HETATM   12  H           1     -28.423  -8.610 -17.067  0.00  0.00     0.275 HD
HETATM   13  H           1     -30.039  -8.615 -16.517  0.00  0.00     0.275 HD
ENDBRANCH   5  10
ENDBRANCH   2   5
BRANCH   1  14
HETATM   14  C           1     -26.848  -6.901 -20.247  0.00  0.00     0.209 C 
BRANCH  14  15
HETATM   15  C           1     -25.516  -6.408 -19.696  0.00  0.00     0.200 C 
BRANCH  15  16
HETATM   16  O           1     -25.106  -7.242 -18.646  0.00  0.00    -0.398 OA
HETATM   17  H           1     -25.717  -7.113 -17.941  0.00  0.00     0.209 HD
ENDBRANCH  15  16
ENDBRANCH  14  15
BRANCH  14  18
HETATM   18  C           1     -26.610  -8.078 -21.162  0.00  0.00     0.198 C 
HETATM   19  O           1     -27.565  -8.807 -21.503  0.00  0.00    -0.646 OA
HETATM   20  O           1     -25.456  -8.321 -21.579  0.00  0.00    -0.646 OA
ENDBRANCH  14  18
ENDBRANCH   1  14
TORSDOF 8
ENDMDL
MODEL 3
REMARK VINA RESULT:      -5.8      6.949      8.141
REMARK  8 active torsions:
REMARK  status: ('A' for Active; 'I' for Inactive)
REMARK    1  A    between atoms: O_1  and  C_2 
REMARK    2  A    between atoms: C_2  and  C_3 
REMARK    3  A    between atoms: C_3  and  C_14 
REMARK    4  A    between atoms: C_3  and  N_5 
REMARK       I    between atoms: N_5  and  C_11 
REMARK    5  A    between atoms: C_8  and  C_9 
REMARK    6  A    between atoms: C_9  and  C_10 
REMARK    7  A    between atoms: C_10  and  C_11 
REMARK    8  A    between atoms: C_10  and  N_15 
ROOT
HETATM    1  N           1     -31.000  -5.454 -16.563  0.00  0.00    -0.343 N 
HETATM    2  C           1     -30.618  -6.598 -17.210  0.00  0.00     0.249 C 
HETATM    3  O           1     -31.365  -7.125 -18.000  0.00  0.00    -0.271 OA
HETATM    4  H           1     -30.374  -5.013 -15.902  0.00  0.00     0.163 HD
ENDROOT
BRANCH   2   5
HETATM    5  C           1     -29.263  -7.202 -16.938  0.00  0.00     0.284 C 
BRANCH   5   6
HETATM    6  C           1     -28.565  -6.413 -15.839  0.00  0.00     0.155 C 
BRANCH   6   7
HETATM    7  C           1     -27.070  -6.526 -16.009  0.00  0.00     0.175 C 
HETATM    8  O           1     -26.459  -5.708 -16.731  0.00  0.00    -0.648 OA
HETATM    9  O           1     -26.443  -7.439 -15.429  0.00  0.00    -0.648 OA
ENDBRANCH   6   7
ENDBRANCH   5   6
BRANCH   5  10
HETATM   10  N           1     -28.435  -7.155 -18.189  0.00  0.00    -0.066 N 
HETATM   11  H           1     -28.172  -6.165 -18.396  0.00  0.00     0.275 HD
HETATM   12  H           1     -27.570  -7.725 -18.054  0.00  0.00     0.275 HD
HETATM   13  H           1     -28.988  -7.543 -18.987  0.00  0.00     0.275 HD
ENDBRANCH   5  10
ENDBRANCH   2   5
BRANCH   1  14
HETATM   14  C           1     -32.303  -4.875 -16.825  0.00  0.00     0.209 C 
BRANCH  14  15
HETATM   15  C           1     -33.051  -4.692 -15.510  0.00  0.00     0.200 C 
BRANCH  15  16
HETATM   16  O           1     -34.432  -4.694 -15.751  0.00  0.00    -0.398 OA
HETATM   17  H           1     -34.555  -4.386 -16.632  0.00  0.00     0.209 HD
ENDBRANCH  15  16
ENDBRANCH  14  15
BRANCH  14  18
HETATM   18  C           1     -32.132  -3.534 -17.496  0.00  0.00     0.198 C 
HETATM   19  O           1     -31.019  -3.205 -17.959  0.00  0.00    -0.646 OA
HETATM   20  O           1     -33.104  -2.754 -17.590  0.00  0.00    -0.646 OA
ENDBRANCH  14  18
ENDBRANCH   1  14
TORSDOF 8
ENDMDL
MODEL 4
REMARK VINA RESULT:      -5.7     12.289     14.799
REMARK  8 active torsions:
REMARK  status: ('A' for Active; 'I' for Inactive)
REMARK    1  A    between atoms: O_1  and  C_2 
REMARK    2  A    between atoms: C_2  and  C_3 
REMARK    3  A    between atoms: C_3  and  C_14 
REMARK    4  A    between atoms: C_3  and  N_5 
REMARK       I    between atoms: N_5  and  C_11 
REMARK    5  A    between atoms: C_8  and  C_9 
REMARK    6  A    between atoms: C_9  and  C_10 
REMARK    7  A    between atoms: C_10  and  C_11 
REMARK    8  A    between atoms: C_10  and  N_15 
ROOT
HETATM    1  N           1     -21.629  -4.244  -9.318  0.00  0.00    -0.343 N 
HETATM    2  C           1     -22.580  -3.803 -10.197  0.00  0.00     0.249 C 
HETATM    3  O           1     -23.529  -3.172  -9.797  0.00  0.00    -0.271 OA
HETATM    4  H           1     -20.834  -4.772  -9.654  0.00  0.00     0.163 HD
ENDROOT
BRANCH   2   5
HETATM    5  C           1     -22.443  -4.103 -11.670  0.00  0.00     0.284 C 
BRANCH   5   6
HETATM    6  C           1     -22.594  -2.815 -12.468  0.00  0.00     0.155 C 
BRANCH   6   7
HETATM    7  C           1     -23.765  -2.943 -13.412  0.00  0.00     0.175 C 
HETATM    8  O           1     -24.930  -2.774 -12.990  0.00  0.00    -0.648 OA
HETATM    9  O           1     -23.569  -3.218 -14.616  0.00  0.00    -0.648 OA
ENDBRANCH   6   7
ENDBRANCH   5   6
BRANCH   5  10
HETATM   10  N           1     -23.508  -5.075 -12.083  0.00  0.00    -0.066 N 
HETATM   11  H           1     -23.187  -5.608 -12.923  0.00  0.00     0.275 HD
HETATM   12  H           1     -23.695  -5.739 -11.299  0.00  0.00     0.275 HD
HETATM   13  H           1     -24.384  -4.553 -12.315  0.00  0.00     0.275 HD
ENDBRANCH   5  10
ENDBRANCH   2   5
BRANCH   1  14
HETATM   14  C           1     -21.762  -3.955  -7.903  0.00  0.00     0.209 C 
BRANCH  14  15
HETATM   15  C           1     -22.756  -4.926  -7.278  0.00  0.00     0.200 C 
BRANCH  15  16
HETATM   16  O           1     -23.944  -4.248  -6.971  0.00  0.00    -0.398 OA
HETATM   17  H           1     -24.360  -4.726  -6.276  0.00  0.00     0.209 HD
ENDBRANCH  15  16
ENDBRANCH  14  15
BRANCH  14  18
HETATM   18  C           1     -20.419  -4.107  -7.230  0.00  0.00     0.198 C 
HETATM   19  O           1     -19.370  -4.008  -7.901  0.00  0.00    -0.646 OA
HETATM   20  O           1     -20.358  -4.332  -6.002  0.00  0.00    -0.646 OA
ENDBRANCH  14  18
ENDBRANCH   1  14
TORSDOF 8
ENDMDL
MODEL 5
REMARK VINA RESULT:      -5.6     12.286     14.828
REMARK  8 active torsions:
REMARK  status: ('A' for Active; 'I' for Inactive)
REMARK    1  A    between atoms: O_1  and  C_2 
REMARK    2  A    between atoms: C_2  and  C_3 
REMARK    3  A    between atoms: C_3  and  C_14 
REMARK    4  A    between atoms: C_3  and  N_5 
REMARK       I    between atoms: N_5  and  C_11 
REMARK    5  A    between atoms: C_8  and  C_9 
REMARK    6  A    between atoms: C_9  and  C_10 
REMARK    7  A    between atoms: C_10  and  C_11 
REMARK    8  A    between atoms: C_10  and  N_15 
ROOT
HETATM    1  N           1     -21.562  -3.974  -9.797  0.00  0.00    -0.343 N 
HETATM    2  C           1     -22.620  -3.969 -10.665  0.00  0.00     0.249 C 
HETATM    3  O           1     -23.542  -4.731 -10.500  0.00  0.00    -0.271 OA
HETATM    4  H           1     -20.790  -3.335  -9.935  0.00  0.00     0.163 HD
ENDROOT
BRANCH   2   5
HETATM    5  C           1     -22.635  -3.010 -11.830  0.00  0.00     0.284 C 
BRANCH   5   6
HETATM    6  C           1     -24.044  -2.925 -12.402  0.00  0.00     0.155 C 
BRANCH   6   7
HETATM    7  C           1     -23.971  -2.787 -13.902  0.00  0.00     0.175 C 
HETATM    8  O           1     -23.985  -3.806 -14.626  0.00  0.00    -0.648 OA
HETATM    9  O           1     -23.895  -1.651 -14.422  0.00  0.00    -0.648 OA
ENDBRANCH   6   7
ENDBRANCH   5   6
BRANCH   5  10
HETATM   10  N           1     -21.693  -3.498 -12.892  0.00  0.00    -0.066 N 
HETATM   11  H           1     -22.176  -3.483 -13.819  0.00  0.00     0.275 HD
HETATM   12  H           1     -20.855  -2.876 -12.925  0.00  0.00     0.275 HD
HETATM   13  H           1     -21.396  -4.475 -12.669  0.00  0.00     0.275 HD
ENDBRANCH   5  10
ENDBRANCH   2   5
BRANCH   1  14
HETATM   14  C           1     -21.548  -4.897  -8.678  0.00  0.00     0.209 C 
BRANCH  14  15
HETATM   15  C           1     -20.116  -5.337  -8.401  0.00  0.00     0.200 C 
BRANCH  15  16
HETATM   16  O           1     -20.100  -6.222  -7.314  0.00  0.00    -0.398 OA
HETATM   17  H           1     -19.972  -5.702  -6.540  0.00  0.00     0.209 HD
ENDBRANCH  15  16
ENDBRANCH  14  15
BRANCH  14  18
HETATM   18  C           1     -22.110  -4.213  -7.456  0.00  0.00     0.198 C 
HETATM   19  O           1     -23.279  -4.454  -7.087  0.00  0.00    -0.646 OA
HETATM   20  O           1     -21.404  -3.406  -6.812  0.00  0.00    -0.646 OA
ENDBRANCH  14  18
ENDBRANCH   1  14
TORSDOF 8
ENDMDL
MODEL 6
REMARK VINA RESULT:      -5.5     12.930     15.537
REMARK  8 active torsions:
REMARK  status: ('A' for Active; 'I' for Inactive)
REMARK    1  A    between atoms: O_1  and  C_2 
REMARK    2  A    between atoms: C_2  and  C_3 
REMARK    3  A    between atoms: C_3  and  C_14 
REMARK    4  A    between atoms: C_3  and  N_5 
REMARK       I    between atoms: N_5  and  C_11 
REMARK    5  A    between atoms: C_8  and  C_9 
REMARK    6  A    between atoms: C_9  and  C_10 
REMARK    7  A    between atoms: C_10  and  C_11 
REMARK    8  A    between atoms: C_10  and  N_15 
ROOT
HETATM    1  N           1     -21.401  -4.529  -9.099  0.00  0.00    -0.343 N 
HETATM    2  C           1     -21.106  -4.360 -10.425  0.00  0.00     0.249 C 
HETATM    3  O           1     -20.066  -4.780 -10.872  0.00  0.00    -0.271 OA
HETATM    4  H           1     -22.274  -4.178  -8.725  0.00  0.00     0.163 HD
ENDROOT
BRANCH   2   5
HETATM    5  C           1     -22.083  -3.650 -11.330  0.00  0.00     0.284 C 
BRANCH   5   6
HETATM    6  C           1     -23.415  -4.387 -11.319  0.00  0.00     0.155 C 
BRANCH   6   7
HETATM    7  C           1     -24.533  -3.409 -11.582  0.00  0.00     0.175 C 
HETATM    8  O           1     -24.682  -2.922 -12.724  0.00  0.00    -0.648 OA
HETATM    9  O           1     -25.311  -3.086 -10.658  0.00  0.00    -0.648 OA
ENDBRANCH   6   7
ENDBRANCH   5   6
BRANCH   5  10
HETATM   10  N           1     -21.539  -3.623 -12.728  0.00  0.00    -0.066 N 
HETATM   11  H           1     -22.314  -3.426 -13.400  0.00  0.00     0.275 HD
HETATM   12  H           1     -20.813  -2.875 -12.803  0.00  0.00     0.275 HD
HETATM   13  H           1     -21.110  -4.550 -12.952  0.00  0.00     0.275 HD
ENDBRANCH   5  10
ENDBRANCH   2   5
BRANCH   1  14
HETATM   14  C           1     -20.462  -5.212  -8.230  0.00  0.00     0.209 C 
BRANCH  14  15
HETATM   15  C           1     -19.459  -4.206  -7.678  0.00  0.00     0.200 C 
BRANCH  15  16
HETATM   16  O           1     -19.212  -4.485  -6.326  0.00  0.00    -0.398 OA
HETATM   17  H           1     -20.044  -4.679  -5.931  0.00  0.00     0.209 HD
ENDBRANCH  15  16
ENDBRANCH  14  15
BRANCH  14  18
HETATM   18  C           1     -21.210  -5.855  -7.087  0.00  0.00     0.198 C 
HETATM   19  O           1     -22.118  -5.227  -6.503  0.00  0.00    -0.646 OA
HETATM   20  O           1     -20.920  -7.017  -6.727  0.00  0.00    -0.646 OA
ENDBRANCH  14  18
ENDBRANCH   1  14
TORSDOF 8
ENDMDL
MODEL 7
REMARK VINA RESULT:      -5.5     12.892     14.721
REMARK  8 active torsions:
REMARK  status: ('A' for Active; 'I' for Inactive)
REMARK    1  A    between atoms: O_1  and  C_2 
REMARK    2  A    between atoms: C_2  and  C_3 
REMARK    3  A    between atoms: C_3  and  C_14 
REMARK    4  A    between atoms: C_3  and  N_5 
REMARK       I    between atoms: N_5  and  C_11 
REMARK    5  A    between atoms: C_8  and  C_9 
REMARK    6  A    between atoms: C_9  and  C_10 
REMARK    7  A    between atoms: C_10  and  C_11 
REMARK    8  A    between atoms: C_10  and  N_15 
ROOT
HETATM    1  N           1     -22.262  -3.891  -9.573  0.00  0.00    -0.343 N 
HETATM    2  C           1     -20.947  -4.146  -9.292  0.00  0.00     0.249 C 
HETATM    3  O           1     -20.254  -4.712 -10.104  0.00  0.00    -0.271 OA
HETATM    4  H           1     -22.842  -3.416  -8.893  0.00  0.00     0.163 HD
ENDROOT
BRANCH   2   5
HETATM    5  C           1     -20.362  -3.720  -7.969  0.00  0.00     0.284 C 
BRANCH   5   6
HETATM    6  C           1     -19.506  -4.846  -7.404  0.00  0.00     0.155 C 
BRANCH   6   7
HETATM    7  C           1     -20.340  -5.697  -6.480  0.00  0.00     0.175 C 
HETATM    8  O           1     -20.988  -6.664  -6.934  0.00  0.00    -0.648 OA
HETATM    9  O           1     -20.382  -5.435  -5.257  0.00  0.00    -0.648 OA
ENDBRANCH   6   7
ENDBRANCH   5   6
BRANCH   5  10
HETATM   10  N           1     -21.472  -3.408  -7.009  0.00  0.00    -0.066 N 
HETATM   11  H           1     -21.509  -4.143  -6.267  0.00  0.00     0.275 HD
HETATM   12  H           1     -21.299  -2.477  -6.569  0.00  0.00     0.275 HD
HETATM   13  H           1     -22.381  -3.387  -7.524  0.00  0.00     0.275 HD
ENDBRANCH   5  10
ENDBRANCH   2   5
BRANCH   1  14
HETATM   14  C           1     -22.824  -4.301 -10.846  0.00  0.00     0.209 C 
BRANCH  14  15
HETATM   15  C           1     -24.015  -5.219 -10.602  0.00  0.00     0.200 C 
BRANCH  15  16
HETATM   16  O           1     -24.888  -4.619  -9.683  0.00  0.00    -0.398 OA
HETATM   17  H           1     -25.044  -5.251  -9.003  0.00  0.00     0.209 HD
ENDBRANCH  15  16
ENDBRANCH  14  15
BRANCH  14  18
HETATM   18  C           1     -23.276  -3.082 -11.612  0.00  0.00     0.198 C 
HETATM   19  O           1     -22.432  -2.280 -12.065  0.00  0.00    -0.646 OA
HETATM   20  O           1     -24.496  -2.876 -11.794  0.00  0.00    -0.646 OA
ENDBRANCH  14  18
ENDBRANCH   1  14
TORSDOF 8
ENDMDL
MODEL 8
REMARK VINA RESULT:      -5.4     12.991     14.911
REMARK  8 active torsions:
REMARK  status: ('A' for Active; 'I' for Inactive)
REMARK    1  A    between atoms: O_1  and  C_2 
REMARK    2  A    between atoms: C_2  and  C_3 
REMARK    3  A    between atoms: C_3  and  C_14 
REMARK    4  A    between atoms: C_3  and  N_5 
REMARK       I    between atoms: N_5  and  C_11 
REMARK    5  A    between atoms: C_8  and  C_9 
REMARK    6  A    between atoms: C_9  and  C_10 
REMARK    7  A    between atoms: C_10  and  C_11 
REMARK    8  A    between atoms: C_10  and  N_15 
ROOT
HETATM    1  N           1     -22.335  -4.713  -8.698  0.00  0.00    -0.343 N 
HETATM    2  C           1     -21.669  -4.517  -7.518  0.00  0.00     0.249 C 
HETATM    3  O           1     -21.500  -3.398  -7.098  0.00  0.00    -0.271 OA
HETATM    4  H           1     -22.477  -5.651  -9.050  0.00  0.00     0.163 HD
ENDROOT
BRANCH   2   5
HETATM    5  C           1     -21.148  -5.701  -6.741  0.00  0.00     0.284 C 
BRANCH   5   6
HETATM    6  C           1     -20.780  -5.261  -5.330  0.00  0.00     0.155 C 
BRANCH   6   7
HETATM    7  C           1     -21.235  -6.308  -4.343  0.00  0.00     0.175 C 
HETATM    8  O           1     -20.986  -7.515  -4.552  0.00  0.00    -0.648 OA
HETATM    9  O           1     -21.862  -5.966  -3.315  0.00  0.00    -0.648 OA
ENDBRANCH   6   7
ENDBRANCH   5   6
BRANCH   5  10
HETATM   10  N           1     -19.931  -6.251  -7.426  0.00  0.00    -0.066 N 
HETATM   11  H           1     -19.083  -5.738  -7.095  0.00  0.00     0.275 HD
HETATM   12  H           1     -19.835  -7.266  -7.200  0.00  0.00     0.275 HD
HETATM   13  H           1     -20.030  -6.131  -8.460  0.00  0.00     0.275 HD
ENDBRANCH   5  10
ENDBRANCH   2   5
BRANCH   1  14
HETATM   14  C           1     -22.836  -3.575  -9.444  0.00  0.00     0.209 C 
BRANCH  14  15
HETATM   15  C           1     -22.109  -3.485 -10.780  0.00  0.00     0.200 C 
BRANCH  15  16
HETATM   16  O           1     -23.013  -3.099 -11.780  0.00  0.00    -0.398 OA
HETATM   17  H           1     -23.849  -3.462 -11.547  0.00  0.00     0.209 HD
ENDBRANCH  15  16
ENDBRANCH  14  15
BRANCH  14  18
HETATM   18  C           1     -24.315  -3.745  -9.687  0.00  0.00     0.198 C 
HETATM   19  O           1     -24.772  -4.863 -10.009  0.00  0.00    -0.646 OA
HETATM   20  O           1     -25.085  -2.767  -9.566  0.00  0.00    -0.646 OA
ENDBRANCH  14  18
ENDBRANCH   1  14
TORSDOF 8
ENDMDL
MODEL 9
REMARK VINA RESULT:      -5.4     12.603     14.410
REMARK  8 active torsions:
REMARK  status: ('A' for Active; 'I' for Inactive)
REMARK    1  A    between atoms: O_1  and  C_2 
REMARK    2  A    between atoms: C_2  and  C_3 
REMARK    3  A    between atoms: C_3  and  C_14 
REMARK    4  A    between atoms: C_3  and  N_5 
REMARK       I    between atoms: N_5  and  C_11 
REMARK    5  A    between atoms: C_8  and  C_9 
REMARK    6  A    between atoms: C_9  and  C_10 
REMARK    7  A    between atoms: C_10  and  C_11 
REMARK    8  A    between atoms: C_10  and  N_15 
ROOT
HETATM    1  N           1     -22.855  -3.939  -9.220  0.00  0.00    -0.343 N 
HETATM    2  C           1     -21.606  -4.016  -8.665  0.00  0.00     0.249 C 
HETATM    3  O           1     -20.636  -3.702  -9.312  0.00  0.00    -0.271 OA
HETATM    4  H           1     -23.667  -4.202  -8.677  0.00  0.00     0.163 HD
ENDROOT
BRANCH   2   5
HETATM    5  C           1     -21.440  -4.494  -7.243  0.00  0.00     0.284 C 
BRANCH   5   6
HETATM    6  C           1     -20.552  -5.731  -7.222  0.00  0.00     0.155 C 
BRANCH   6   7
HETATM    7  C           1     -20.881  -6.565  -6.009  0.00  0.00     0.175 C 
HETATM    8  O           1     -20.750  -6.082  -4.863  0.00  0.00    -0.648 OA
HETATM    9  O           1     -21.284  -7.741  -6.150  0.00  0.00    -0.648 OA
ENDBRANCH   6   7
ENDBRANCH   5   6
BRANCH   5  10
HETATM   10  N           1     -22.784  -4.834  -6.670  0.00  0.00    -0.066 N 
HETATM   11  H           1     -22.929  -4.304  -5.781  0.00  0.00     0.275 HD
HETATM   12  H           1     -23.529  -4.575  -7.356  0.00  0.00     0.275 HD
HETATM   13  H           1     -22.830  -5.860  -6.476  0.00  0.00     0.275 HD
ENDBRANCH   5  10
ENDBRANCH   2   5
BRANCH   1  14
HETATM   14  C           1     -23.013  -3.481 -10.586  0.00  0.00     0.209 C 
BRANCH  14  15
HETATM   15  C           1     -22.476  -4.539 -11.542  0.00  0.00     0.200 C 
BRANCH  15  16
HETATM   16  O           1     -21.875  -3.913 -12.643  0.00  0.00    -0.398 OA
HETATM   17  H           1     -21.678  -4.590 -13.268  0.00  0.00     0.209 HD
ENDBRANCH  15  16
ENDBRANCH  14  15
BRANCH  14  18
HETATM   18  C           1     -24.476  -3.242 -10.871  0.00  0.00     0.198 C 
HETATM   19  O           1     -25.298  -3.211  -9.930  0.00  0.00    -0.646 OA
HETATM   20  O           1     -24.864  -3.074 -12.047  0.00  0.00    -0.646 OA
ENDBRANCH  14  18
ENDBRANCH   1  14
TORSDOF 8
ENDMDL
