MODEL 1
REMARK VINA RESULT:      -5.9      0.000      0.000
REMARK  6 active torsions:
REMARK  status: ('A' for Active; 'I' for Inactive)
REMARK    1  A    between atoms: N_1  and  C_2 
REMARK       I    between atoms: N_1  and  C_6 
REMARK    2  A    between atoms: C_2  and  C_3 
REMARK    3  A    between atoms: C_6  and  C_11 
REMARK    4  A    between atoms: N_7  and  C_11 
REMARK    5  A    between atoms: C_9  and  C_11 
REMARK    6  A    between atoms: C_9  and  O_14 
ROOT
HETATM    1  N           1     -34.989  -0.515 -14.024  0.00  0.00    -0.345 N 
HETATM    2  O           1     -36.611  -1.249 -12.674  0.00  0.00    -0.271 OA
HETATM    3  C           1     -35.427  -1.110 -12.871  0.00  0.00     0.251 C 
HETATM    4  H           1     -33.997  -0.399 -14.188  0.00  0.00     0.163 HD
ENDROOT
BRANCH   3   5
HETATM    5  C           1     -34.431  -1.592 -11.844  0.00  0.00     0.302 C 
BRANCH   5   6
HETATM    6  N           1     -35.062  -1.561 -10.484  0.00  0.00    -0.064 N 
HETATM    7  H           1     -34.320  -1.442  -9.758  0.00  0.00     0.275 HD
HETATM    8  H           1     -35.732  -0.760 -10.429  0.00  0.00     0.275 HD
HETATM    9  H           1     -35.574  -2.456 -10.316  0.00  0.00     0.275 HD
ENDBRANCH   5   6
BRANCH   5  10
HETATM   10  C           1     -34.011  -3.018 -12.175  0.00  0.00     0.153 C 
HETATM   11  C           1     -34.673  -3.981 -11.199  0.00  0.00     0.042 C 
BRANCH  10  12
HETATM   12  O           1     -34.406  -3.332 -13.482  0.00  0.00    -0.393 OA
HETATM   13  H           1     -33.623  -3.538 -13.963  0.00  0.00     0.210 HD
ENDBRANCH  10  12
ENDBRANCH   5  10
ENDBRANCH   3   5
BRANCH   1  14
HETATM   14  C           1     -35.947  -0.052 -15.009  0.00  0.00     0.181 C 
HETATM   15  C           1     -35.588   1.365 -15.436  0.00  0.00     0.043 C 
BRANCH  14  16
HETATM   16  C           1     -35.913  -0.964 -16.210  0.00  0.00     0.196 C 
HETATM   17  O           1     -35.134  -1.942 -16.231  0.00  0.00    -0.646 OA
HETATM   18  O           1     -36.664  -0.742 -17.185  0.00  0.00    -0.646 OA
ENDBRANCH  14  16
ENDBRANCH   1  14
TORSDOF 6
ENDMDL
MODEL 2
REMARK VINA RESULT:      -5.5      2.205      2.964
REMARK  6 active torsions:
REMARK  status: ('A' for Active; 'I' for Inactive)
REMARK    1  A    between atoms: N_1  and  C_2 
REMARK       I    between atoms: N_1  and  C_6 
REMARK    2  A    between atoms: C_2  and  C_3 
REMARK    3  A    between atoms: C_6  and  C_11 
REMARK    4  A    between atoms: N_7  and  C_11 
REMARK    5  A    between atoms: C_9  and  C_11 
REMARK    6  A    between atoms: C_9  and  O_14 
ROOT
HETATM    1  N           1     -34.942  -1.668 -13.296  0.00  0.00    -0.345 N 
HETATM    2  O           1     -34.878  -2.277 -11.147  0.00  0.00    -0.271 OA
HETATM    3  C           1     -34.724  -2.587 -12.305  0.00  0.00     0.251 C 
HETATM    4  H           1     -34.813  -1.928 -14.265  0.00  0.00     0.163 HD
ENDROOT
BRANCH   3   5
HETATM    5  C           1     -34.289  -3.989 -12.658  0.00  0.00     0.302 C 
BRANCH   5   6
HETATM    6  N           1     -33.718  -3.999 -14.044  0.00  0.00    -0.064 N 
HETATM    7  H           1     -33.765  -4.969 -14.433  0.00  0.00     0.275 HD
HETATM    8  H           1     -34.270  -3.354 -14.654  0.00  0.00     0.275 HD
HETATM    9  H           1     -32.722  -3.684 -14.014  0.00  0.00     0.275 HD
ENDBRANCH   5   6
BRANCH   5  10
HETATM   10  C           1     -33.229  -4.457 -11.669  0.00  0.00     0.153 C 
HETATM   11  C           1     -33.740  -5.679 -10.920  0.00  0.00     0.042 C 
BRANCH  10  12
HETATM   12  O           1     -32.057  -4.789 -12.363  0.00  0.00    -0.393 OA
HETATM   13  H           1     -31.832  -4.043 -12.893  0.00  0.00     0.210 HD
ENDBRANCH  10  12
ENDBRANCH   5  10
ENDBRANCH   3   5
BRANCH   1  14
HETATM   14  C           1     -35.360  -0.321 -12.955  0.00  0.00     0.181 C 
HETATM   15  C           1     -34.837   0.651 -14.004  0.00  0.00     0.043 C 
BRANCH  14  16
HETATM   16  C           1     -36.866  -0.258 -12.916  0.00  0.00     0.196 C 
HETATM   17  O           1     -37.445   0.250 -11.931  0.00  0.00    -0.646 OA
HETATM   18  O           1     -37.537  -0.713 -13.868  0.00  0.00    -0.646 OA
ENDBRANCH  14  16
ENDBRANCH   1  14
TORSDOF 6
ENDMDL
MODEL 3
REMARK VINA RESULT:      -5.3     12.328     13.395
REMARK  6 active torsions:
REMARK  status: ('A' for Active; 'I' for Inactive)
REMARK    1  A    between atoms: N_1  and  C_2 
REMARK       I    between atoms: N_1  and  C_6 
REMARK    2  A    between atoms: C_2  and  C_3 
REMARK    3  A    between atoms: C_6  and  C_11 
REMARK    4  A    between atoms: N_7  and  C_11 
REMARK    5  A    between atoms: C_9  and  C_11 
REMARK    6  A    between atoms: C_9  and  O_14 
ROOT
HETATM    1  N           1     -22.296  -3.392 -12.779  0.00  0.00    -0.345 N 
HETATM    2  O           1     -23.102  -5.058 -11.529  0.00  0.00    -0.271 OA
HETATM    3  C           1     -22.187  -4.305 -11.765  0.00  0.00     0.251 C 
HETATM    4  H           1     -21.530  -2.761 -12.977  0.00  0.00     0.163 HD
ENDROOT
BRANCH   3   5
HETATM    5  C           1     -20.924  -4.371 -10.941  0.00  0.00     0.302 C 
BRANCH   5   6
HETATM    6  N           1     -20.096  -3.148 -11.199  0.00  0.00    -0.064 N 
HETATM    7  H           1     -19.410  -3.021 -10.421  0.00  0.00     0.275 HD
HETATM    8  H           1     -19.581  -3.259 -12.101  0.00  0.00     0.275 HD
HETATM    9  H           1     -20.719  -2.310 -11.254  0.00  0.00     0.275 HD
ENDBRANCH   5   6
BRANCH   5  10
HETATM   10  C           1     -21.284  -4.438  -9.463  0.00  0.00     0.153 C 
HETATM   11  C           1     -20.070  -4.054  -8.629  0.00  0.00     0.042 C 
BRANCH  10  12
HETATM   12  O           1     -22.335  -3.548  -9.197  0.00  0.00    -0.393 OA
HETATM   13  H           1     -22.632  -3.221 -10.029  0.00  0.00     0.210 HD
ENDBRANCH  10  12
ENDBRANCH   5  10
ENDBRANCH   3   5
BRANCH   1  14
HETATM   14  C           1     -23.510  -3.329 -13.570  0.00  0.00     0.181 C 
HETATM   15  C           1     -24.657  -2.833 -12.699  0.00  0.00     0.043 C 
BRANCH  14  16
HETATM   16  C           1     -23.308  -2.380 -14.726  0.00  0.00     0.196 C 
HETATM   17  O           1     -22.402  -2.594 -15.559  0.00  0.00    -0.646 OA
HETATM   18  O           1     -24.048  -1.379 -14.849  0.00  0.00    -0.646 OA
ENDBRANCH  14  16
ENDBRANCH   1  14
TORSDOF 6
ENDMDL
MODEL 4
REMARK VINA RESULT:      -5.2     12.828     14.294
REMARK  6 active torsions:
REMARK  status: ('A' for Active; 'I' for Inactive)
REMARK    1  A    between atoms: N_1  and  C_2 
REMARK       I    between atoms: N_1  and  C_6 
REMARK    2  A    between atoms: C_2  and  C_3 
REMARK    3  A    between atoms: C_6  and  C_11 
REMARK    4  A    between atoms: N_7  and  C_11 
REMARK    5  A    between atoms: C_9  and  C_11 
REMARK    6  A    between atoms: C_9  and  O_14 
ROOT
HETATM    1  N           1     -22.815  -4.436  -9.578  0.00  0.00    -0.345 N 
HETATM    2  O           1     -20.633  -3.957  -9.535  0.00  0.00    -0.271 OA
HETATM    3  C           1     -21.564  -4.538  -9.030  0.00  0.00     0.251 C 
HETATM    4  H           1     -23.594  -4.923  -9.155  0.00  0.00     0.163 HD
ENDROOT
BRANCH   3   5
HETATM    5  C           1     -21.348  -5.378  -7.794  0.00  0.00     0.302 C 
BRANCH   5   6
HETATM    6  N           1     -19.972  -5.973  -7.831  0.00  0.00    -0.064 N 
HETATM    7  H           1     -19.660  -6.190  -6.857  0.00  0.00     0.275 HD
HETATM    8  H           1     -19.988  -6.854  -8.394  0.00  0.00     0.275 HD
HETATM    9  H           1     -19.308  -5.293  -8.266  0.00  0.00     0.275 HD
ENDBRANCH   5   6
BRANCH   5  10
HETATM   10  C           1     -21.489  -4.504  -6.555  0.00  0.00     0.153 C 
HETATM   11  C           1     -20.248  -4.654  -5.686  0.00  0.00     0.042 C 
BRANCH  10  12
HETATM   12  O           1     -21.631  -3.164  -6.941  0.00  0.00    -0.393 OA
HETATM   13  H           1     -22.462  -2.870  -6.607  0.00  0.00     0.210 HD
ENDBRANCH  10  12
ENDBRANCH   5  10
ENDBRANCH   3   5
BRANCH   1  14
HETATM   14  C           1     -23.021  -3.629 -10.766  0.00  0.00     0.181 C 
HETATM   15  C           1     -22.580  -4.414 -11.994  0.00  0.00     0.043 C 
BRANCH  14  16
HETATM   16  C           1     -24.484  -3.281 -10.888  0.00  0.00     0.196 C 
HETATM   17  O           1     -24.979  -3.047 -12.012  0.00  0.00    -0.646 OA
HETATM   18  O           1     -25.202  -3.228  -9.866  0.00  0.00    -0.646 OA
ENDBRANCH  14  16
ENDBRANCH   1  14
TORSDOF 6
ENDMDL
MODEL 5
REMARK VINA RESULT:      -5.2      2.070      2.635
REMARK  6 active torsions:
REMARK  status: ('A' for Active; 'I' for Inactive)
REMARK    1  A    between atoms: N_1  and  C_2 
REMARK       I    between atoms: N_1  and  C_6 
REMARK    2  A    between atoms: C_2  and  C_3 
REMARK    3  A    between atoms: C_6  and  C_11 
REMARK    4  A    between atoms: N_7  and  C_11 
REMARK    5  A    between atoms: C_9  and  C_11 
REMARK    6  A    between atoms: C_9  and  O_14 
ROOT
HETATM    1  N           1     -34.952  -1.325 -13.221  0.00  0.00    -0.345 N 
HETATM    2  O           1     -34.622  -1.460 -11.015  0.00  0.00    -0.271 OA
HETATM    3  C           1     -34.488  -1.967 -12.104  0.00  0.00     0.251 C 
HETATM    4  H           1     -34.840  -1.750 -14.132  0.00  0.00     0.163 HD
ENDROOT
BRANCH   3   5
HETATM    5  C           1     -33.808  -3.308 -12.231  0.00  0.00     0.302 C 
BRANCH   5   6
HETATM    6  N           1     -32.651  -3.373 -11.279  0.00  0.00    -0.064 N 
HETATM    7  H           1     -32.239  -4.334 -11.297  0.00  0.00     0.275 HD
HETATM    8  H           1     -31.925  -2.679 -11.566  0.00  0.00     0.275 HD
HETATM    9  H           1     -32.982  -3.154 -10.312  0.00  0.00     0.275 HD
ENDBRANCH   5   6
BRANCH   5  10
HETATM   10  C           1     -34.800  -4.415 -11.900  0.00  0.00     0.153 C 
HETATM   11  C           1     -34.068  -5.565 -11.221  0.00  0.00     0.042 C 
BRANCH  10  12
HETATM   12  O           1     -35.788  -3.916 -11.039  0.00  0.00    -0.393 OA
HETATM   13  H           1     -36.620  -4.148 -11.415  0.00  0.00     0.210 HD
ENDBRANCH  10  12
ENDBRANCH   5  10
ENDBRANCH   3   5
BRANCH   1  14
HETATM   14  C           1     -35.605  -0.036 -13.097  0.00  0.00     0.181 C 
HETATM   15  C           1     -35.072   0.906 -14.168  0.00  0.00     0.043 C 
BRANCH  14  16
HETATM   16  C           1     -37.094  -0.208 -13.272  0.00  0.00     0.196 C 
HETATM   17  O           1     -37.548  -0.683 -14.336  0.00  0.00    -0.646 OA
HETATM   18  O           1     -37.874   0.123 -12.353  0.00  0.00    -0.646 OA
ENDBRANCH  14  16
ENDBRANCH   1  14
TORSDOF 6
ENDMDL
MODEL 6
REMARK VINA RESULT:      -5.1     12.784     14.789
REMARK  6 active torsions:
REMARK  status: ('A' for Active; 'I' for Inactive)
REMARK    1  A    between atoms: N_1  and  C_2 
REMARK       I    between atoms: N_1  and  C_6 
REMARK    2  A    between atoms: C_2  and  C_3 
REMARK    3  A    between atoms: C_6  and  C_11 
REMARK    4  A    between atoms: N_7  and  C_11 
REMARK    5  A    between atoms: C_9  and  C_11 
REMARK    6  A    between atoms: C_9  and  O_14 
ROOT
HETATM    1  N           1     -21.781  -3.717  -9.296  0.00  0.00    -0.345 N 
HETATM    2  O           1     -20.909  -4.797 -11.046  0.00  0.00    -0.271 OA
HETATM    3  C           1     -21.617  -3.905 -10.642  0.00  0.00     0.251 C 
HETATM    4  H           1     -22.374  -2.970  -8.958  0.00  0.00     0.163 HD
ENDROOT
BRANCH   3   5
HETATM    5  C           1     -22.321  -2.999 -11.623  0.00  0.00     0.302 C 
BRANCH   5   6
HETATM    6  N           1     -21.977  -3.415 -13.022  0.00  0.00    -0.064 N 
HETATM    7  H           1     -21.936  -4.458 -13.076  0.00  0.00     0.275 HD
HETATM    8  H           1     -22.708  -3.062 -13.680  0.00  0.00     0.275 HD
HETATM    9  H           1     -21.048  -3.015 -13.286  0.00  0.00     0.275 HD
ENDBRANCH   5   6
BRANCH   5  10
HETATM   10  C           1     -23.827  -3.102 -11.420  0.00  0.00     0.153 C 
HETATM   11  C           1     -24.531  -2.948 -12.761  0.00  0.00     0.042 C 
BRANCH  10  12
HETATM   12  O           1     -24.140  -4.352 -10.868  0.00  0.00    -0.393 OA
HETATM   13  H           1     -23.754  -5.002 -11.428  0.00  0.00     0.210 HD
ENDBRANCH  10  12
ENDBRANCH   5  10
ENDBRANCH   3   5
BRANCH   1  14
HETATM   14  C           1     -21.104  -4.588  -8.355  0.00  0.00     0.181 C 
HETATM   15  C           1     -19.774  -3.963  -7.953  0.00  0.00     0.043 C 
BRANCH  14  16
HETATM   16  C           1     -21.965  -4.771  -7.130  0.00  0.00     0.196 C 
HETATM   17  O           1     -23.174  -4.454  -7.163  0.00  0.00    -0.646 OA
HETATM   18  O           1     -21.470  -5.240  -6.082  0.00  0.00    -0.646 OA
ENDBRANCH  14  16
ENDBRANCH   1  14
TORSDOF 6
ENDMDL
MODEL 7
REMARK VINA RESULT:      -4.9     11.856     13.499
REMARK  6 active torsions:
REMARK  status: ('A' for Active; 'I' for Inactive)
REMARK    1  A    between atoms: N_1  and  C_2 
REMARK       I    between atoms: N_1  and  C_6 
REMARK    2  A    between atoms: C_2  and  C_3 
REMARK    3  A    between atoms: C_6  and  C_11 
REMARK    4  A    between atoms: N_7  and  C_11 
REMARK    5  A    between atoms: C_9  and  C_11 
REMARK    6  A    between atoms: C_9  and  O_14 
ROOT
HETATM    1  N           1     -22.929  -3.508 -10.350  0.00  0.00    -0.345 N 
HETATM    2  O           1     -24.733  -2.927 -11.532  0.00  0.00    -0.271 OA
HETATM    3  C           1     -23.533  -3.057 -11.493  0.00  0.00     0.251 C 
HETATM    4  H           1     -21.923  -3.617 -10.318  0.00  0.00     0.163 HD
ENDROOT
BRANCH   3   5
HETATM    5  C           1     -22.699  -2.723 -12.706  0.00  0.00     0.302 C 
BRANCH   5   6
HETATM    6  N           1     -21.562  -3.695 -12.812  0.00  0.00    -0.064 N 
HETATM    7  H           1     -20.661  -3.170 -12.888  0.00  0.00     0.275 HD
HETATM    8  H           1     -21.540  -4.300 -11.961  0.00  0.00     0.275 HD
HETATM    9  H           1     -21.690  -4.291 -13.661  0.00  0.00     0.275 HD
ENDBRANCH   5   6
BRANCH   5  10
HETATM   10  C           1     -23.562  -2.815 -13.958  0.00  0.00     0.153 C 
HETATM   11  C           1     -22.709  -2.519 -15.184  0.00  0.00     0.042 C 
BRANCH  10  12
HETATM   12  O           1     -24.100  -4.105 -14.062  0.00  0.00    -0.393 OA
HETATM   13  H           1     -23.711  -4.502 -14.822  0.00  0.00     0.210 HD
ENDBRANCH  10  12
ENDBRANCH   5  10
ENDBRANCH   3   5
BRANCH   1  14
HETATM   14  C           1     -23.731  -3.828  -9.185  0.00  0.00     0.181 C 
HETATM   15  C           1     -24.549  -5.082  -9.464  0.00  0.00     0.043 C 
BRANCH  14  16
HETATM   16  C           1     -22.825  -4.069  -8.003  0.00  0.00     0.196 C 
HETATM   17  O           1     -21.619  -3.746  -8.062  0.00  0.00    -0.646 OA
HETATM   18  O           1     -23.281  -4.593  -6.963  0.00  0.00    -0.646 OA
ENDBRANCH  14  16
ENDBRANCH   1  14
TORSDOF 6
ENDMDL
MODEL 8
REMARK VINA RESULT:      -4.8     13.549     14.968
REMARK  6 active torsions:
REMARK  status: ('A' for Active; 'I' for Inactive)
REMARK    1  A    between atoms: N_1  and  C_2 
REMARK       I    between atoms: N_1  and  C_6 
REMARK    2  A    between atoms: C_2  and  C_3 
REMARK    3  A    between atoms: C_6  and  C_11 
REMARK    4  A    between atoms: N_7  and  C_11 
REMARK    5  A    between atoms: C_9  and  C_11 
REMARK    6  A    between atoms: C_9  and  O_14 
ROOT
HETATM    1  N           1     -21.958  -4.080  -9.715  0.00  0.00    -0.345 N 
HETATM    2  O           1     -19.894  -4.918  -9.882  0.00  0.00    -0.271 OA
HETATM    3  C           1     -20.717  -4.350  -9.204  0.00  0.00     0.251 C 
HETATM    4  H           1     -22.647  -3.605  -9.147  0.00  0.00     0.163 HD
ENDROOT
BRANCH   3   5
HETATM    5  C           1     -20.376  -3.938  -7.793  0.00  0.00     0.302 C 
BRANCH   5   6
HETATM    6  N           1     -21.559  -3.257  -7.172  0.00  0.00    -0.064 N 
HETATM    7  H           1     -21.569  -2.250  -7.454  0.00  0.00     0.275 HD
HETATM    8  H           1     -22.438  -3.717  -7.501  0.00  0.00     0.275 HD
HETATM    9  H           1     -21.496  -3.327  -6.131  0.00  0.00     0.275 HD
ENDBRANCH   5   6
BRANCH   5  10
HETATM   10  C           1     -20.015  -5.171  -6.976  0.00  0.00     0.153 C 
HETATM   11  C           1     -20.297  -4.904  -5.504  0.00  0.00     0.042 C 
BRANCH  10  12
HETATM   12  O           1     -20.784  -6.261  -7.409  0.00  0.00    -0.393 OA
HETATM   13  H           1     -20.982  -6.776  -6.646  0.00  0.00     0.210 HD
ENDBRANCH  10  12
ENDBRANCH   5  10
ENDBRANCH   3   5
BRANCH   1  14
HETATM   14  C           1     -22.285  -4.477 -11.071  0.00  0.00     0.181 C 
HETATM   15  C           1     -23.700  -5.039 -11.107  0.00  0.00     0.043 C 
BRANCH  14  16
HETATM   16  C           1     -22.196  -3.277 -11.981  0.00  0.00     0.196 C 
HETATM   17  O           1     -21.477  -2.304 -11.665  0.00  0.00    -0.646 OA
HETATM   18  O           1     -22.841  -3.255 -13.052  0.00  0.00    -0.646 OA
ENDBRANCH  14  16
ENDBRANCH   1  14
TORSDOF 6
ENDMDL
MODEL 9
REMARK VINA RESULT:      -4.7     13.881     16.004
REMARK  6 active torsions:
REMARK  status: ('A' for Active; 'I' for Inactive)
REMARK    1  A    between atoms: N_1  and  C_2 
REMARK       I    between atoms: N_1  and  C_6 
REMARK    2  A    between atoms: C_2  and  C_3 
REMARK    3  A    between atoms: C_6  and  C_11 
REMARK    4  A    between atoms: N_7  and  C_11 
REMARK    5  A    between atoms: C_9  and  C_11 
REMARK    6  A    between atoms: C_9  and  O_14 
ROOT
HETATM    1  N           1     -21.732  -5.346  -7.306  0.00  0.00    -0.345 N 
HETATM    2  O           1     -21.326  -3.180  -6.937  0.00  0.00    -0.271 OA
HETATM    3  C           1     -21.687  -4.038  -7.708  0.00  0.00     0.251 C 
HETATM    4  H           1     -22.034  -6.064  -7.952  0.00  0.00     0.163 HD
ENDROOT
BRANCH   3   5
HETATM    5  C           1     -22.089  -3.666  -9.115  0.00  0.00     0.302 C 
BRANCH   5   6
HETATM    6  N           1     -21.438  -4.607 -10.085  0.00  0.00    -0.064 N 
HETATM    7  H           1     -21.906  -4.526 -11.016  0.00  0.00     0.275 HD
HETATM    8  H           1     -20.427  -4.362 -10.182  0.00  0.00     0.275 HD
HETATM    9  H           1     -21.527  -5.587  -9.733  0.00  0.00     0.275 HD
ENDBRANCH   5   6
BRANCH   5  10
HETATM   10  C           1     -23.602  -3.762  -9.254  0.00  0.00     0.153 C 
HETATM   11  C           1     -23.951  -4.864 -10.246  0.00  0.00     0.042 C 
BRANCH  10  12
HETATM   12  O           1     -24.168  -4.060  -8.006  0.00  0.00    -0.393 OA
HETATM   13  H           1     -24.863  -3.439  -7.866  0.00  0.00     0.210 HD
ENDBRANCH  10  12
ENDBRANCH   5  10
ENDBRANCH   3   5
BRANCH   1  14
HETATM   14  C           1     -21.346  -5.702  -5.955  0.00  0.00     0.181 C 
HETATM   15  C           1     -22.542  -6.303  -5.228  0.00  0.00     0.043 C 
BRANCH  14  16
HETATM   16  C           1     -20.225  -6.711  -6.002  0.00  0.00     0.196 C 
HETATM   17  O           1     -20.038  -7.483  -5.037  0.00  0.00    -0.646 OA
HETATM   18  O           1     -19.484  -6.776  -7.007  0.00  0.00    -0.646 OA
ENDBRANCH  14  16
ENDBRANCH   1  14
TORSDOF 6
ENDMDL
