MODEL 1
REMARK VINA RESULT:      -8.0      0.000      0.000
REMARK  8 active torsions:
REMARK  status: ('A' for Active; 'I' for Inactive)
REMARK    1  A    between atoms: N_1  and  C_19 
REMARK    2  A    between atoms: C_6  and  C_17 
REMARK    3  A    between atoms: N_11  and  C_23 
REMARK       I    between atoms: N_11  and  C_22 
REMARK    4  A    between atoms: C_17  and  C_23 
REMARK    5  A    between atoms: C_18  and  C_23 
REMARK    6  A    between atoms: C_19  and  C_22 
REMARK    7  A    between atoms: C_19  and  C_21 
REMARK    8  A    between atoms: C_21  and  C_25 
ROOT
HETATM    1  C           1     -22.134  -5.251  -6.786  0.00  0.00     0.260 C 
ENDROOT
BRANCH   1   2
HETATM    2  N           1     -23.517  -4.968  -6.281  0.00  0.00    -0.067 N 
HETATM    3  H           1     -23.621  -5.354  -5.315  0.00  0.00     0.275 HD
HETATM    4  H           1     -23.675  -3.935  -6.260  0.00  0.00     0.275 HD
HETATM    5  H           1     -24.218  -5.416  -6.912  0.00  0.00     0.275 HD
ENDBRANCH   1   2
BRANCH   1   6
HETATM    6  C           1     -21.299  -5.827  -5.669  0.00  0.00     0.130 C 
HETATM    7  N           1     -21.280  -7.179  -5.456  0.00  0.00    -0.359 N 
HETATM    8  H           1     -21.825  -7.792  -6.049  0.00  0.00     0.162 HD
HETATM    9  O           1     -20.647  -5.095  -4.962  0.00  0.00    -0.397 OA
BRANCH   7  10
HETATM   10  C           1     -20.478  -7.733  -4.383  0.00  0.00     0.184 C 
BRANCH  10  11
HETATM   11  C           1     -21.388  -8.169  -3.241  0.00  0.00     0.040 C 
BRANCH  11  12
HETATM   12  C           1     -21.131  -7.291  -2.023  0.00  0.00    -0.018 C 
HETATM   13  C           1     -21.169  -8.145  -0.763  0.00  0.00     0.289 C 
HETATM   14  C           1     -22.205  -6.213  -1.938  0.00  0.00     0.009 C 
ENDBRANCH  11  12
ENDBRANCH  10  11
BRANCH  10  15
HETATM   15  C           1     -19.708  -8.926  -4.894  0.00  0.00     0.196 C 
HETATM   16  O           1     -19.778 -10.020  -4.293  0.00  0.00    -0.646 OA
HETATM   17  O           1     -19.000  -8.820  -5.918  0.00  0.00    -0.646 OA
ENDBRANCH  10  15
ENDBRANCH   7  10
ENDBRANCH   1   6
BRANCH   1  18
HETATM   18  C           1     -21.499  -3.956  -7.279  0.00  0.00     0.082 C 
BRANCH  18  19
HETATM   19  C           1     -21.322  -4.021  -8.763  0.00  0.00    -0.028 A 
HETATM   20  C           1     -22.333  -3.797  -9.739  0.00  0.00    -0.002 A 
HETATM   21  C           1     -21.738  -3.957 -10.991  0.00  0.00     0.042 A 
HETATM   22  C           1     -23.702  -3.473  -9.675  0.00  0.00     0.014 A 
HETATM   23  C           1     -22.448  -3.808 -12.189  0.00  0.00     0.030 A 
HETATM   24  N           1     -20.414  -4.267 -10.773  0.00  0.00    -0.365 N 
HETATM   25  C           1     -23.805  -3.486 -12.100  0.00  0.00     0.002 A 
HETATM   26  C           1     -24.426  -3.320 -10.863  0.00  0.00     0.001 A 
HETATM   27  H           1     -19.708  -4.445 -11.529  0.00  0.00     0.165 HD
HETATM   28  C           1     -20.152  -4.308  -9.430  0.00  0.00     0.096 A 
ENDBRANCH  18  19
ENDBRANCH   1  18
TORSDOF 8
ENDMDL
MODEL 2
REMARK VINA RESULT:      -8.0      1.510      2.187
REMARK  8 active torsions:
REMARK  status: ('A' for Active; 'I' for Inactive)
REMARK    1  A    between atoms: N_1  and  C_19 
REMARK    2  A    between atoms: C_6  and  C_17 
REMARK    3  A    between atoms: N_11  and  C_23 
REMARK       I    between atoms: N_11  and  C_22 
REMARK    4  A    between atoms: C_17  and  C_23 
REMARK    5  A    between atoms: C_18  and  C_23 
REMARK    6  A    between atoms: C_19  and  C_22 
REMARK    7  A    between atoms: C_19  and  C_21 
REMARK    8  A    between atoms: C_21  and  C_25 
ROOT
HETATM    1  C           1     -22.035  -4.239  -7.213  0.00  0.00     0.260 C 
ENDROOT
BRANCH   1   2
HETATM    2  N           1     -21.526  -2.829  -7.216  0.00  0.00    -0.067 N 
HETATM    3  H           1     -20.560  -2.805  -6.818  0.00  0.00     0.275 HD
HETATM    4  H           1     -21.506  -2.468  -8.197  0.00  0.00     0.275 HD
HETATM    5  H           1     -22.156  -2.229  -6.637  0.00  0.00     0.275 HD
ENDBRANCH   1   2
BRANCH   1   6
HETATM    6  C           1     -21.206  -5.070  -6.264  0.00  0.00     0.130 C 
HETATM    7  N           1     -21.744  -6.185  -5.680  0.00  0.00    -0.359 N 
HETATM    8  H           1     -22.699  -6.452  -5.887  0.00  0.00     0.162 HD
HETATM    9  O           1     -20.067  -4.750  -6.018  0.00  0.00    -0.397 OA
BRANCH   7  10
HETATM   10  C           1     -20.949  -6.983  -4.768  0.00  0.00     0.184 C 
BRANCH  10  11
HETATM   11  C           1     -21.815  -7.433  -3.599  0.00  0.00     0.040 C 
BRANCH  11  12
HETATM   12  C           1     -21.189  -6.962  -2.292  0.00  0.00    -0.018 C 
HETATM   13  C           1     -20.326  -8.075  -1.712  0.00  0.00     0.289 C 
HETATM   14  C           1     -22.290  -6.606  -1.301  0.00  0.00     0.009 C 
ENDBRANCH  11  12
ENDBRANCH  10  11
BRANCH  10  15
HETATM   15  C           1     -20.416  -8.194  -5.493  0.00  0.00     0.196 C 
HETATM   16  O           1     -19.225  -8.221  -5.873  0.00  0.00    -0.646 OA
HETATM   17  O           1     -21.166  -9.169  -5.715  0.00  0.00    -0.646 OA
ENDBRANCH  10  15
ENDBRANCH   7  10
ENDBRANCH   1   6
BRANCH   1  18
HETATM   18  C           1     -21.931  -4.819  -8.618  0.00  0.00     0.082 C 
BRANCH  18  19
HETATM   19  C           1     -23.044  -4.282  -9.462  0.00  0.00    -0.028 A 
HETATM   20  C           1     -22.938  -3.848 -10.813  0.00  0.00    -0.002 A 
HETATM   21  C           1     -24.207  -3.427 -11.210  0.00  0.00     0.042 A 
HETATM   22  C           1     -21.878  -3.772 -11.737  0.00  0.00     0.014 A 
HETATM   23  C           1     -24.472  -2.932 -12.494  0.00  0.00     0.030 A 
HETATM   24  N           1     -25.047  -3.603 -10.134  0.00  0.00    -0.365 N 
HETATM   25  C           1     -23.405  -2.867 -13.394  0.00  0.00     0.002 A 
HETATM   26  C           1     -22.126  -3.281 -13.024  0.00  0.00     0.001 A 
HETATM   27  H           1     -26.072  -3.374 -10.128  0.00  0.00     0.165 HD
HETATM   28  C           1     -24.354  -4.119  -9.072  0.00  0.00     0.096 A 
ENDBRANCH  18  19
ENDBRANCH   1  18
TORSDOF 8
ENDMDL
MODEL 3
REMARK VINA RESULT:      -7.9      2.569      8.156
REMARK  8 active torsions:
REMARK  status: ('A' for Active; 'I' for Inactive)
REMARK    1  A    between atoms: N_1  and  C_19 
REMARK    2  A    between atoms: C_6  and  C_17 
REMARK    3  A    between atoms: N_11  and  C_23 
REMARK       I    between atoms: N_11  and  C_22 
REMARK    4  A    between atoms: C_17  and  C_23 
REMARK    5  A    between atoms: C_18  and  C_23 
REMARK    6  A    between atoms: C_19  and  C_22 
REMARK    7  A    between atoms: C_19  and  C_21 
REMARK    8  A    between atoms: C_21  and  C_25 
ROOT
HETATM    1  C           1     -21.045  -5.376  -6.458  0.00  0.00     0.260 C 
ENDROOT
BRANCH   1   2
HETATM    2  N           1     -20.086  -4.683  -5.537  0.00  0.00    -0.067 N 
HETATM    3  H           1     -20.563  -3.872  -5.082  0.00  0.00     0.275 HD
HETATM    4  H           1     -19.764  -5.353  -4.802  0.00  0.00     0.275 HD
HETATM    5  H           1     -19.263  -4.342  -6.082  0.00  0.00     0.275 HD
ENDBRANCH   1   2
BRANCH   1   6
HETATM    6  C           1     -21.537  -4.399  -7.498  0.00  0.00     0.130 C 
HETATM    7  N           1     -22.450  -4.800  -8.435  0.00  0.00    -0.359 N 
HETATM    8  H           1     -22.796  -5.751  -8.430  0.00  0.00     0.162 HD
HETATM    9  O           1     -21.124  -3.264  -7.503  0.00  0.00    -0.397 OA
BRANCH   7  10
HETATM   10  C           1     -22.923  -3.862  -9.435  0.00  0.00     0.184 C 
BRANCH  10  11
HETATM   11  C           1     -22.364  -4.248 -10.798  0.00  0.00     0.040 C 
BRANCH  11  12
HETATM   12  C           1     -21.920  -2.993 -11.539  0.00  0.00    -0.018 C 
HETATM   13  C           1     -22.410  -3.053 -12.980  0.00  0.00     0.289 C 
HETATM   14  C           1     -20.399  -2.907 -11.524  0.00  0.00     0.009 C 
ENDBRANCH  11  12
ENDBRANCH  10  11
BRANCH  10  15
HETATM   15  C           1     -24.430  -3.895  -9.482  0.00  0.00     0.196 C 
HETATM   16  O           1     -25.082  -2.832  -9.390  0.00  0.00    -0.646 OA
HETATM   17  O           1     -25.028  -4.985  -9.613  0.00  0.00    -0.646 OA
ENDBRANCH  10  15
ENDBRANCH   7  10
ENDBRANCH   1   6
BRANCH   1  18
HETATM   18  C           1     -22.228  -5.903  -5.655  0.00  0.00     0.082 C 
BRANCH  18  19
HETATM   19  C           1     -21.782  -7.051  -4.805  0.00  0.00    -0.028 A 
HETATM   20  C           1     -21.829  -7.109  -3.384  0.00  0.00    -0.002 A 
HETATM   21  C           1     -21.319  -8.351  -3.007  0.00  0.00     0.042 A 
HETATM   22  C           1     -22.257  -6.218  -2.380  0.00  0.00     0.014 A 
HETATM   23  C           1     -21.216  -8.751  -1.669  0.00  0.00     0.030 A 
HETATM   24  N           1     -20.978  -9.017  -4.163  0.00  0.00    -0.365 N 
HETATM   25  C           1     -21.647  -7.851  -0.690  0.00  0.00     0.002 A 
HETATM   26  C           1     -22.161  -6.603  -1.038  0.00  0.00     0.001 A 
HETATM   27  H           1     -20.567  -9.981  -4.201  0.00  0.00     0.165 HD
HETATM   28  C           1     -21.254  -8.239  -5.256  0.00  0.00     0.096 A 
ENDBRANCH  18  19
ENDBRANCH   1  18
TORSDOF 8
ENDMDL
MODEL 4
REMARK VINA RESULT:      -7.6      1.976      3.185
REMARK  8 active torsions:
REMARK  status: ('A' for Active; 'I' for Inactive)
REMARK    1  A    between atoms: N_1  and  C_19 
REMARK    2  A    between atoms: C_6  and  C_17 
REMARK    3  A    between atoms: N_11  and  C_23 
REMARK       I    between atoms: N_11  and  C_22 
REMARK    4  A    between atoms: C_17  and  C_23 
REMARK    5  A    between atoms: C_18  and  C_23 
REMARK    6  A    between atoms: C_19  and  C_22 
REMARK    7  A    between atoms: C_19  and  C_21 
REMARK    8  A    between atoms: C_21  and  C_25 
ROOT
HETATM    1  C           1     -21.132  -5.045  -5.972  0.00  0.00     0.260 C 
ENDROOT
BRANCH   1   2
HETATM    2  N           1     -19.750  -4.610  -5.587  0.00  0.00    -0.067 N 
HETATM    3  H           1     -19.616  -3.606  -5.844  0.00  0.00     0.275 HD
HETATM    4  H           1     -19.624  -4.724  -4.556  0.00  0.00     0.275 HD
HETATM    5  H           1     -19.047  -5.195  -6.092  0.00  0.00     0.275 HD
ENDBRANCH   1   2
BRANCH   1   6
HETATM    6  C           1     -21.567  -6.183  -5.081  0.00  0.00     0.130 C 
HETATM    7  N           1     -20.904  -6.427  -3.909  0.00  0.00    -0.359 N 
HETATM    8  H           1     -20.123  -5.842  -3.639  0.00  0.00     0.162 HD
HETATM    9  O           1     -22.500  -6.880  -5.403  0.00  0.00    -0.397 OA
BRANCH   7  10
HETATM   10  C           1     -21.321  -7.520  -3.053  0.00  0.00     0.184 C 
BRANCH  10  11
HETATM   11  C           1     -20.117  -8.392  -2.720  0.00  0.00     0.040 C 
BRANCH  11  12
HETATM   12  C           1     -19.456  -8.860  -4.011  0.00  0.00    -0.018 C 
HETATM   13  C           1     -20.341  -9.898  -4.689  0.00  0.00     0.289 C 
HETATM   14  C           1     -18.101  -9.479  -3.692  0.00  0.00     0.009 C 
ENDBRANCH  11  12
ENDBRANCH  10  11
BRANCH  10  15
HETATM   15  C           1     -21.906  -6.965  -1.778  0.00  0.00     0.196 C 
HETATM   16  O           1     -21.767  -7.589  -0.703  0.00  0.00    -0.646 OA
HETATM   17  O           1     -22.531  -5.883  -1.796  0.00  0.00    -0.646 OA
ENDBRANCH  10  15
ENDBRANCH   7  10
ENDBRANCH   1   6
BRANCH   1  18
HETATM   18  C           1     -21.133  -5.508  -7.424  0.00  0.00     0.082 C 
BRANCH  18  19
HETATM   19  C           1     -22.162  -4.739  -8.192  0.00  0.00    -0.028 A 
HETATM   20  C           1     -22.041  -4.288  -9.536  0.00  0.00    -0.002 A 
HETATM   21  C           1     -23.224  -3.618  -9.852  0.00  0.00     0.042 A 
HETATM   22  C           1     -21.035  -4.387 -10.516  0.00  0.00     0.014 A 
HETATM   23  C           1     -23.451  -3.039 -11.107  0.00  0.00     0.030 A 
HETATM   24  N           1     -24.027  -3.666  -8.735  0.00  0.00    -0.365 N 
HETATM   25  C           1     -22.438  -3.150 -12.063  0.00  0.00     0.002 A 
HETATM   26  C           1     -21.246  -3.813 -11.775  0.00  0.00     0.001 A 
HETATM   27  H           1     -24.986  -3.245  -8.667  0.00  0.00     0.165 HD
HETATM   28  C           1     -23.394  -4.341  -7.725  0.00  0.00     0.096 A 
ENDBRANCH  18  19
ENDBRANCH   1  18
TORSDOF 8
ENDMDL
MODEL 5
REMARK VINA RESULT:      -7.6      2.112      2.977
REMARK  8 active torsions:
REMARK  status: ('A' for Active; 'I' for Inactive)
REMARK    1  A    between atoms: N_1  and  C_19 
REMARK    2  A    between atoms: C_6  and  C_17 
REMARK    3  A    between atoms: N_11  and  C_23 
REMARK       I    between atoms: N_11  and  C_22 
REMARK    4  A    between atoms: C_17  and  C_23 
REMARK    5  A    between atoms: C_18  and  C_23 
REMARK    6  A    between atoms: C_19  and  C_22 
REMARK    7  A    between atoms: C_19  and  C_21 
REMARK    8  A    between atoms: C_21  and  C_25 
ROOT
HETATM    1  C           1     -20.768  -5.395  -6.187  0.00  0.00     0.260 C 
ENDROOT
BRANCH   1   2
HETATM    2  N           1     -20.084  -4.457  -5.239  0.00  0.00    -0.067 N 
HETATM    3  H           1     -20.571  -4.479  -4.314  0.00  0.00     0.275 HD
HETATM    4  H           1     -19.089  -4.753  -5.114  0.00  0.00     0.275 HD
HETATM    5  H           1     -20.114  -3.487  -5.625  0.00  0.00     0.275 HD
ENDBRANCH   1   2
BRANCH   1   6
HETATM    6  C           1     -20.175  -6.776  -6.044  0.00  0.00     0.130 C 
HETATM    7  N           1     -20.634  -7.620  -5.070  0.00  0.00    -0.359 N 
HETATM    8  H           1     -21.373  -7.319  -4.447  0.00  0.00     0.162 HD
HETATM    9  O           1     -19.294  -7.135  -6.788  0.00  0.00    -0.397 OA
BRANCH   7  10
HETATM   10  C           1     -20.065  -8.946  -4.931  0.00  0.00     0.184 C 
BRANCH  10  11
HETATM   11  C           1     -19.205  -9.001  -3.674  0.00  0.00     0.040 C 
BRANCH  11  12
HETATM   12  C           1     -18.016  -9.924  -3.912  0.00  0.00    -0.018 C 
HETATM   13  C           1     -16.872  -9.526  -2.989  0.00  0.00     0.289 C 
HETATM   14  C           1     -17.563  -9.804  -5.362  0.00  0.00     0.009 C 
ENDBRANCH  11  12
ENDBRANCH  10  11
BRANCH  10  15
HETATM   15  C           1     -21.175  -9.962  -4.825  0.00  0.00     0.196 C 
HETATM   16  O           1     -22.009  -9.882  -3.897  0.00  0.00    -0.646 OA
HETATM   17  O           1     -21.260 -10.884  -5.664  0.00  0.00    -0.646 OA
ENDBRANCH  10  15
ENDBRANCH   7  10
ENDBRANCH   1   6
BRANCH   1  18
HETATM   18  C           1     -20.572  -4.904  -7.616  0.00  0.00     0.082 C 
BRANCH  18  19
HETATM   19  C           1     -21.887  -4.460  -8.176  0.00  0.00    -0.028 A 
HETATM   20  C           1     -22.126  -4.018  -9.507  0.00  0.00    -0.002 A 
HETATM   21  C           1     -23.482  -3.703  -9.598  0.00  0.00     0.042 A 
HETATM   22  C           1     -21.313  -3.856 -10.646  0.00  0.00     0.014 A 
HETATM   23  C           1     -24.070  -3.231 -10.778  0.00  0.00     0.030 A 
HETATM   24  N           1     -24.038  -3.947  -8.363  0.00  0.00    -0.365 N 
HETATM   25  C           1     -23.244  -3.078 -11.896  0.00  0.00     0.002 A 
HETATM   26  C           1     -21.886  -3.386 -11.834  0.00  0.00     0.001 A 
HETATM   27  H           1     -25.049  -3.803  -8.121  0.00  0.00     0.165 HD
HETATM   28  C           1     -23.083  -4.405  -7.495  0.00  0.00     0.096 A 
ENDBRANCH  18  19
ENDBRANCH   1  18
TORSDOF 8
ENDMDL
MODEL 6
REMARK VINA RESULT:      -7.3      1.724      2.447
REMARK  8 active torsions:
REMARK  status: ('A' for Active; 'I' for Inactive)
REMARK    1  A    between atoms: N_1  and  C_19 
REMARK    2  A    between atoms: C_6  and  C_17 
REMARK    3  A    between atoms: N_11  and  C_23 
REMARK       I    between atoms: N_11  and  C_22 
REMARK    4  A    between atoms: C_17  and  C_23 
REMARK    5  A    between atoms: C_18  and  C_23 
REMARK    6  A    between atoms: C_19  and  C_22 
REMARK    7  A    between atoms: C_19  and  C_21 
REMARK    8  A    between atoms: C_21  and  C_25 
ROOT
HETATM    1  C           1     -20.754  -5.109  -6.363  0.00  0.00     0.260 C 
ENDROOT
BRANCH   1   2
HETATM    2  N           1     -19.446  -4.384  -6.468  0.00  0.00    -0.067 N 
HETATM    3  H           1     -18.846  -4.627  -5.647  0.00  0.00     0.275 HD
HETATM    4  H           1     -18.961  -4.668  -7.349  0.00  0.00     0.275 HD
HETATM    5  H           1     -19.618  -3.354  -6.480  0.00  0.00     0.275 HD
ENDBRANCH   1   2
BRANCH   1   6
HETATM    6  C           1     -20.630  -6.227  -5.357  0.00  0.00     0.130 C 
HETATM    7  N           1     -20.125  -7.440  -5.740  0.00  0.00    -0.359 N 
HETATM    8  H           1     -19.833  -7.586  -6.698  0.00  0.00     0.162 HD
HETATM    9  O           1     -20.977  -6.052  -4.213  0.00  0.00    -0.397 OA
BRANCH   7  10
HETATM   10  C           1     -20.005  -8.514  -4.774  0.00  0.00     0.184 C 
BRANCH  10  11
HETATM   11  C           1     -21.173  -9.478  -4.940  0.00  0.00     0.040 C 
BRANCH  11  12
HETATM   12  C           1     -21.397 -10.234  -3.636  0.00  0.00    -0.018 C 
HETATM   13  C           1     -22.658 -11.080  -3.748  0.00  0.00     0.289 C 
HETATM   14  C           1     -21.554  -9.238  -2.493  0.00  0.00     0.009 C 
ENDBRANCH  11  12
ENDBRANCH  10  11
BRANCH  10  15
HETATM   15  C           1     -18.709  -9.252  -5.000  0.00  0.00     0.196 C 
HETATM   16  O           1     -17.938  -9.469  -4.040  0.00  0.00    -0.646 OA
HETATM   17  O           1     -18.406  -9.646  -6.147  0.00  0.00    -0.646 OA
ENDBRANCH  10  15
ENDBRANCH   7  10
ENDBRANCH   1   6
BRANCH   1  18
HETATM   18  C           1     -21.124  -5.688  -7.723  0.00  0.00     0.082 C 
BRANCH  18  19
HETATM   19  C           1     -22.182  -4.840  -8.356  0.00  0.00    -0.028 A 
HETATM   20  C           1     -22.175  -4.349  -9.691  0.00  0.00    -0.002 A 
HETATM   21  C           1     -23.344  -3.607  -9.862  0.00  0.00     0.042 A 
HETATM   22  C           1     -21.281  -4.465 -10.774  0.00  0.00     0.014 A 
HETATM   23  C           1     -23.667  -2.972 -11.068  0.00  0.00     0.030 A 
HETATM   24  N           1     -24.029  -3.651  -8.669  0.00  0.00    -0.365 N 
HETATM   25  C           1     -22.765  -3.102 -12.128  0.00  0.00     0.002 A 
HETATM   26  C           1     -21.589  -3.838 -11.986  0.00  0.00     0.001 A 
HETATM   27  H           1     -24.951  -3.184  -8.489  0.00  0.00     0.165 HD
HETATM   28  C           1     -23.335  -4.394  -7.751  0.00  0.00     0.096 A 
ENDBRANCH  18  19
ENDBRANCH   1  18
TORSDOF 8
ENDMDL
MODEL 7
REMARK VINA RESULT:      -7.1      3.095      5.414
REMARK  8 active torsions:
REMARK  status: ('A' for Active; 'I' for Inactive)
REMARK    1  A    between atoms: N_1  and  C_19 
REMARK    2  A    between atoms: C_6  and  C_17 
REMARK    3  A    between atoms: N_11  and  C_23 
REMARK       I    between atoms: N_11  and  C_22 
REMARK    4  A    between atoms: C_17  and  C_23 
REMARK    5  A    between atoms: C_18  and  C_23 
REMARK    6  A    between atoms: C_19  and  C_22 
REMARK    7  A    between atoms: C_19  and  C_21 
REMARK    8  A    between atoms: C_21  and  C_25 
ROOT
HETATM    1  C           1     -19.570  -8.509  -3.684  0.00  0.00     0.260 C 
ENDROOT
BRANCH   1   2
HETATM    2  N           1     -18.307  -9.315  -3.629  0.00  0.00    -0.067 N 
HETATM    3  H           1     -18.437 -10.124  -2.979  0.00  0.00     0.275 HD
HETATM    4  H           1     -18.079  -9.671  -4.584  0.00  0.00     0.275 HD
HETATM    5  H           1     -17.525  -8.715  -3.284  0.00  0.00     0.275 HD
ENDBRANCH   1   2
BRANCH   1   6
HETATM    6  C           1     -20.555  -9.048  -2.675  0.00  0.00     0.130 C 
HETATM    7  N           1     -20.759  -8.385  -1.496  0.00  0.00    -0.359 N 
HETATM    8  H           1     -20.250  -7.532  -1.301  0.00  0.00     0.162 HD
HETATM    9  O           1     -21.163 -10.066  -2.909  0.00  0.00    -0.397 OA
BRANCH   7  10
HETATM   10  C           1     -21.704  -8.902  -0.526  0.00  0.00     0.184 C 
BRANCH  10  11
HETATM   11  C           1     -20.958  -9.340   0.728  0.00  0.00     0.040 C 
BRANCH  11  12
HETATM   12  C           1     -20.991 -10.860   0.834  0.00  0.00    -0.018 C 
HETATM   13  C           1     -19.767 -11.445   0.144  0.00  0.00     0.289 C 
HETATM   14  C           1     -22.253 -11.387   0.163  0.00  0.00     0.009 C 
ENDBRANCH  11  12
ENDBRANCH  10  11
BRANCH  10  15
HETATM   15  C           1     -22.698  -7.825  -0.168  0.00  0.00     0.196 C 
HETATM   16  O           1     -22.755  -6.777  -0.847  0.00  0.00    -0.646 OA
HETATM   17  O           1     -23.463  -7.980   0.807  0.00  0.00    -0.646 OA
ENDBRANCH  10  15
ENDBRANCH   7  10
ENDBRANCH   1   6
BRANCH   1  18
HETATM   18  C           1     -20.171  -8.604  -5.081  0.00  0.00     0.082 C 
BRANCH  18  19
HETATM   19  C           1     -21.001  -7.388  -5.350  0.00  0.00    -0.028 A 
HETATM   20  C           1     -20.639  -6.292  -6.182  0.00  0.00    -0.002 A 
HETATM   21  C           1     -21.697  -5.384  -6.150  0.00  0.00     0.042 A 
HETATM   22  C           1     -19.506  -5.986  -6.960  0.00  0.00     0.014 A 
HETATM   23  C           1     -21.681  -4.178  -6.862  0.00  0.00     0.030 A 
HETATM   24  N           1     -22.663  -5.918  -5.327  0.00  0.00    -0.365 N 
HETATM   25  C           1     -20.546  -3.896  -7.628  0.00  0.00     0.002 A 
HETATM   26  C           1     -19.473  -4.785  -7.679  0.00  0.00     0.001 A 
HETATM   27  H           1     -23.583  -5.462  -5.106  0.00  0.00     0.165 HD
HETATM   28  C           1     -22.253  -7.129  -4.838  0.00  0.00     0.096 A 
ENDBRANCH  18  19
ENDBRANCH   1  18
TORSDOF 8
ENDMDL
MODEL 8
REMARK VINA RESULT:      -7.0      2.030      3.116
REMARK  8 active torsions:
REMARK  status: ('A' for Active; 'I' for Inactive)
REMARK    1  A    between atoms: N_1  and  C_19 
REMARK    2  A    between atoms: C_6  and  C_17 
REMARK    3  A    between atoms: N_11  and  C_23 
REMARK       I    between atoms: N_11  and  C_22 
REMARK    4  A    between atoms: C_17  and  C_23 
REMARK    5  A    between atoms: C_18  and  C_23 
REMARK    6  A    between atoms: C_19  and  C_22 
REMARK    7  A    between atoms: C_19  and  C_21 
REMARK    8  A    between atoms: C_21  and  C_25 
ROOT
HETATM    1  C           1     -20.637  -6.130  -5.610  0.00  0.00     0.260 C 
ENDROOT
BRANCH   1   2
HETATM    2  N           1     -19.934  -7.088  -6.524  0.00  0.00    -0.067 N 
HETATM    3  H           1     -19.088  -7.470  -6.045  0.00  0.00     0.275 HD
HETATM    4  H           1     -20.579  -7.874  -6.767  0.00  0.00     0.275 HD
HETATM    5  H           1     -19.645  -6.591  -7.396  0.00  0.00     0.275 HD
ENDBRANCH   1   2
BRANCH   1   6
HETATM    6  C           1     -21.368  -6.902  -4.538  0.00  0.00     0.130 C 
HETATM    7  N           1     -20.856  -6.966  -3.271  0.00  0.00    -0.359 N 
HETATM    8  H           1     -19.987  -6.494  -3.052  0.00  0.00     0.162 HD
HETATM    9  O           1     -22.405  -7.463  -4.800  0.00  0.00    -0.397 OA
BRANCH   7  10
HETATM   10  C           1     -21.557  -7.707  -2.241  0.00  0.00     0.184 C 
BRANCH  10  11
HETATM   11  C           1     -20.552  -8.484  -1.401  0.00  0.00     0.040 C 
BRANCH  11  12
HETATM   12  C           1     -20.946  -9.956  -1.369  0.00  0.00    -0.018 C 
HETATM   13  C           1     -21.990 -10.226  -2.444  0.00  0.00     0.289 C 
HETATM   14  C           1     -21.525 -10.296  -0.002  0.00  0.00     0.009 C 
ENDBRANCH  11  12
ENDBRANCH  10  11
BRANCH  10  15
HETATM   15  C           1     -22.314  -6.747  -1.358  0.00  0.00     0.196 C 
HETATM   16  O           1     -22.346  -5.529  -1.640  0.00  0.00    -0.646 OA
HETATM   17  O           1     -22.910  -7.169  -0.343  0.00  0.00    -0.646 OA
ENDBRANCH  10  15
ENDBRANCH   7  10
ENDBRANCH   1   6
BRANCH   1  18
HETATM   18  C           1     -21.635  -5.304  -6.412  0.00  0.00     0.082 C 
BRANCH  18  19
HETATM   19  C           1     -20.949  -4.708  -7.601  0.00  0.00    -0.028 A 
HETATM   20  C           1     -21.510  -4.544  -8.897  0.00  0.00    -0.002 A 
HETATM   21  C           1     -20.531  -3.951  -9.696  0.00  0.00     0.042 A 
HETATM   22  C           1     -22.761  -4.845  -9.469  0.00  0.00     0.014 A 
HETATM   23  C           1     -20.743  -3.642 -11.046  0.00  0.00     0.030 A 
HETATM   24  N           1     -19.420  -3.766  -8.905  0.00  0.00    -0.365 N 
HETATM   25  C           1     -21.993  -3.950 -11.591  0.00  0.00     0.002 A 
HETATM   26  C           1     -22.989  -4.542 -10.817  0.00  0.00     0.001 A 
HETATM   27  H           1     -18.518  -3.338  -9.227  0.00  0.00     0.165 HD
HETATM   28  C           1     -19.662  -4.220  -7.635  0.00  0.00     0.096 A 
ENDBRANCH  18  19
ENDBRANCH   1  18
TORSDOF 8
ENDMDL
MODEL 9
REMARK VINA RESULT:      -6.9      1.933      2.833
REMARK  8 active torsions:
REMARK  status: ('A' for Active; 'I' for Inactive)
REMARK    1  A    between atoms: N_1  and  C_19 
REMARK    2  A    between atoms: C_6  and  C_17 
REMARK    3  A    between atoms: N_11  and  C_23 
REMARK       I    between atoms: N_11  and  C_22 
REMARK    4  A    between atoms: C_17  and  C_23 
REMARK    5  A    between atoms: C_18  and  C_23 
REMARK    6  A    between atoms: C_19  and  C_22 
REMARK    7  A    between atoms: C_19  and  C_21 
REMARK    8  A    between atoms: C_21  and  C_25 
ROOT
HETATM    1  C           1     -20.568  -6.878  -5.168  0.00  0.00     0.260 C 
ENDROOT
BRANCH   1   2
HETATM    2  N           1     -21.478  -7.657  -6.069  0.00  0.00    -0.067 N 
HETATM    3  H           1     -21.201  -8.665  -6.058  0.00  0.00     0.275 HD
HETATM    4  H           1     -22.463  -7.564  -5.733  0.00  0.00     0.275 HD
HETATM    5  H           1     -21.406  -7.287  -7.044  0.00  0.00     0.275 HD
ENDBRANCH   1   2
BRANCH   1   6
HETATM    6  C           1     -20.760  -7.334  -3.743  0.00  0.00     0.130 C 
HETATM    7  N           1     -20.410  -8.606  -3.378  0.00  0.00    -0.359 N 
HETATM    8  H           1     -20.020  -9.240  -4.065  0.00  0.00     0.162 HD
HETATM    9  O           1     -21.225  -6.577  -2.924  0.00  0.00    -0.397 OA
BRANCH   7  10
HETATM   10  C           1     -20.595  -9.045  -2.009  0.00  0.00     0.184 C 
BRANCH  10  11
HETATM   11  C           1     -21.995  -9.623  -1.846  0.00  0.00     0.040 C 
BRANCH  11  12
HETATM   12  C           1     -22.442  -9.471  -0.397  0.00  0.00    -0.018 C 
HETATM   13  C           1     -23.669 -10.337  -0.149  0.00  0.00     0.289 C 
HETATM   14  C           1     -22.788  -8.012  -0.124  0.00  0.00     0.009 C 
ENDBRANCH  11  12
ENDBRANCH  10  11
BRANCH  10  15
HETATM   15  C           1     -19.573 -10.104  -1.678  0.00  0.00     0.196 C 
HETATM   16  O           1     -18.513 -10.179  -2.338  0.00  0.00    -0.646 OA
HETATM   17  O           1     -19.785 -10.907  -0.744  0.00  0.00    -0.646 OA
ENDBRANCH  10  15
ENDBRANCH   7  10
ENDBRANCH   1   6
BRANCH   1  18
HETATM   18  C           1     -20.897  -5.394  -5.276  0.00  0.00     0.082 C 
BRANCH  18  19
HETATM   19  C           1     -20.607  -4.918  -6.665  0.00  0.00    -0.028 A 
HETATM   20  C           1     -21.572  -4.543  -7.640  0.00  0.00    -0.002 A 
HETATM   21  C           1     -20.873  -4.166  -8.787  0.00  0.00     0.042 A 
HETATM   22  C           1     -22.980  -4.489  -7.657  0.00  0.00     0.014 A 
HETATM   23  C           1     -21.513  -3.735  -9.956  0.00  0.00     0.030 A 
HETATM   24  N           1     -19.532  -4.310  -8.508  0.00  0.00    -0.365 N 
HETATM   25  C           1     -22.910  -3.690  -9.948  0.00  0.00     0.002 A 
HETATM   26  C           1     -23.635  -4.060  -8.817  0.00  0.00     0.001 A 
HETATM   27  H           1     -18.753  -4.101  -9.180  0.00  0.00     0.165 HD
HETATM   28  C           1     -19.361  -4.764  -7.228  0.00  0.00     0.096 A 
ENDBRANCH  18  19
ENDBRANCH   1  18
TORSDOF 8
ENDMDL
