MODEL 1
REMARK VINA RESULT:      -7.4      0.000      0.000
REMARK  8 active torsions:
REMARK  status: ('A' for Active; 'I' for Inactive)
REMARK    1  A    between atoms: C_1  and  C_24 
REMARK       I    between atoms: C_9  and  N_25 
REMARK    2  A    between atoms: C_9  and  C_10 
REMARK    3  A    between atoms: C_10  and  C_11 
REMARK    4  A    between atoms: C_10  and  N_15 
REMARK    5  A    between atoms: C_11  and  C_12 
REMARK    6  A    between atoms: C_18  and  C_20 
REMARK    7  A    between atoms: C_20  and  C_24 
REMARK    8  A    between atoms: C_20  and  N_25 
ROOT
HETATM    1  C           1     -21.331  -6.296  -5.156  0.00  0.00     0.190 C 
ENDROOT
BRANCH   1   2
HETATM    2  C           1     -20.741  -7.490  -5.864  0.00  0.00     0.197 C 
HETATM    3  O           1     -21.418  -8.534  -6.000  0.00  0.00    -0.646 OA
HETATM    4  O           1     -19.577  -7.437  -6.315  0.00  0.00    -0.646 OA
ENDBRANCH   1   2
BRANCH   1   5
HETATM    5  C           1     -20.875  -5.018  -5.847  0.00  0.00     0.077 C 
BRANCH   5   6
HETATM    6  C           1     -21.797  -4.709  -6.985  0.00  0.00    -0.028 A 
HETATM    7  C           1     -23.155  -4.512  -6.899  0.00  0.00     0.096 A 
HETATM    8  N           1     -23.623  -4.255  -8.160  0.00  0.00    -0.365 N 
HETATM    9  C           1     -22.587  -4.283  -9.067  0.00  0.00     0.042 A 
HETATM   10  H           1     -24.627  -4.063  -8.401  0.00  0.00     0.165 HD
HETATM   11  C           1     -22.591  -4.080 -10.453  0.00  0.00     0.030 A 
HETATM   12  C           1     -21.424  -4.567  -8.351  0.00  0.00    -0.002 A 
HETATM   13  C           1     -21.367  -4.172 -11.123  0.00  0.00     0.002 A 
HETATM   14  C           1     -20.190  -4.455 -10.434  0.00  0.00     0.001 A 
HETATM   15  C           1     -20.204  -4.656  -9.048  0.00  0.00     0.014 A 
ENDBRANCH   5   6
ENDBRANCH   1   5
BRANCH   1  16
HETATM   16  N           1     -20.885  -6.284  -3.776  0.00  0.00    -0.344 N 
HETATM   17  H           1     -20.572  -5.419  -3.354  0.00  0.00     0.163 HD
HETATM   18  C           1     -20.885  -7.442  -3.045  0.00  0.00     0.249 C 
HETATM   19  O           1     -19.909  -8.152  -3.038  0.00  0.00    -0.271 OA
BRANCH  18  20
HETATM   20  C           1     -22.107  -7.831  -2.250  0.00  0.00     0.284 C 
BRANCH  20  21
HETATM   21  C           1     -22.212  -6.947  -1.014  0.00  0.00     0.155 C 
BRANCH  21  22
HETATM   22  C           1     -22.360  -7.815   0.213  0.00  0.00     0.175 C 
HETATM   23  O           1     -21.348  -8.155   0.862  0.00  0.00    -0.648 OA
HETATM   24  O           1     -23.494  -8.192   0.580  0.00  0.00    -0.648 OA
ENDBRANCH  21  22
ENDBRANCH  20  21
BRANCH  20  25
HETATM   25  N           1     -21.994  -9.266  -1.830  0.00  0.00    -0.066 N 
HETATM   26  H           1     -22.949  -9.683  -1.752  0.00  0.00     0.275 HD
HETATM   27  H           1     -21.440  -9.794  -2.541  0.00  0.00     0.275 HD
HETATM   28  H           1     -21.514  -9.320  -0.903  0.00  0.00     0.275 HD
ENDBRANCH  20  25
ENDBRANCH  18  20
ENDBRANCH   1  16
TORSDOF 8
ENDMDL
MODEL 2
REMARK VINA RESULT:      -7.2      2.509      7.432
REMARK  8 active torsions:
REMARK  status: ('A' for Active; 'I' for Inactive)
REMARK    1  A    between atoms: C_1  and  C_24 
REMARK       I    between atoms: C_9  and  N_25 
REMARK    2  A    between atoms: C_9  and  C_10 
REMARK    3  A    between atoms: C_10  and  C_11 
REMARK    4  A    between atoms: C_10  and  N_15 
REMARK    5  A    between atoms: C_11  and  C_12 
REMARK    6  A    between atoms: C_18  and  C_20 
REMARK    7  A    between atoms: C_20  and  C_24 
REMARK    8  A    between atoms: C_20  and  N_25 
ROOT
HETATM    1  C           1     -20.029  -7.446  -5.306  0.00  0.00     0.190 C 
ENDROOT
BRANCH   1   2
HETATM    2  C           1     -19.034  -8.579  -5.257  0.00  0.00     0.197 C 
HETATM    3  O           1     -18.749  -9.114  -4.163  0.00  0.00    -0.646 OA
HETATM    4  O           1     -18.495  -8.983  -6.309  0.00  0.00    -0.646 OA
ENDBRANCH   1   2
BRANCH   1   5
HETATM    5  C           1     -21.394  -7.948  -4.855  0.00  0.00     0.077 C 
BRANCH   5   6
HETATM    6  C           1     -21.723  -7.367  -3.516  0.00  0.00    -0.028 A 
HETATM    7  C           1     -22.030  -6.051  -3.255  0.00  0.00     0.096 A 
HETATM    8  N           1     -22.267  -5.934  -1.911  0.00  0.00    -0.365 N 
HETATM    9  C           1     -22.118  -7.156  -1.293  0.00  0.00     0.042 A 
HETATM   10  H           1     -22.525  -5.043  -1.421  0.00  0.00     0.165 HD
HETATM   11  C           1     -22.259  -7.513   0.054  0.00  0.00     0.030 A 
HETATM   12  C           1     -21.775  -8.077  -2.284  0.00  0.00    -0.002 A 
HETATM   13  C           1     -22.042  -8.852   0.393  0.00  0.00     0.002 A 
HETATM   14  C           1     -21.699  -9.793  -0.575  0.00  0.00     0.001 A 
HETATM   15  C           1     -21.561  -9.420  -1.918  0.00  0.00     0.014 A 
ENDBRANCH   5   6
ENDBRANCH   1   5
BRANCH   1  16
HETATM   16  N           1     -20.123  -6.944  -6.663  0.00  0.00    -0.344 N 
HETATM   17  H           1     -20.142  -7.591  -7.441  0.00  0.00     0.163 HD
HETATM   18  C           1     -20.184  -5.595  -6.893  0.00  0.00     0.249 C 
HETATM   19  O           1     -19.168  -4.963  -7.051  0.00  0.00    -0.271 OA
BRANCH  18  20
HETATM   20  C           1     -21.522  -4.900  -6.946  0.00  0.00     0.284 C 
BRANCH  20  21
HETATM   21  C           1     -22.243  -5.281  -8.231  0.00  0.00     0.155 C 
BRANCH  21  22
HETATM   22  C           1     -22.089  -4.171  -9.243  0.00  0.00     0.175 C 
HETATM   23  O           1     -21.016  -4.042  -9.870  0.00  0.00    -0.648 OA
HETATM   24  O           1     -23.035  -3.381  -9.453  0.00  0.00    -0.648 OA
ENDBRANCH  21  22
ENDBRANCH  20  21
BRANCH  20  25
HETATM   25  N           1     -21.316  -3.414  -6.910  0.00  0.00    -0.066 N 
HETATM   26  H           1     -20.434  -3.172  -7.415  0.00  0.00     0.275 HD
HETATM   27  H           1     -22.124  -2.940  -7.372  0.00  0.00     0.275 HD
HETATM   28  H           1     -21.246  -3.097  -5.916  0.00  0.00     0.275 HD
ENDBRANCH  20  25
ENDBRANCH  18  20
ENDBRANCH   1  16
TORSDOF 8
ENDMDL
MODEL 3
REMARK VINA RESULT:      -7.1      2.147      2.999
REMARK  8 active torsions:
REMARK  status: ('A' for Active; 'I' for Inactive)
REMARK    1  A    between atoms: C_1  and  C_24 
REMARK       I    between atoms: C_9  and  N_25 
REMARK    2  A    between atoms: C_9  and  C_10 
REMARK    3  A    between atoms: C_10  and  C_11 
REMARK    4  A    between atoms: C_10  and  N_15 
REMARK    5  A    between atoms: C_11  and  C_12 
REMARK    6  A    between atoms: C_18  and  C_20 
REMARK    7  A    between atoms: C_20  and  C_24 
REMARK    8  A    between atoms: C_20  and  N_25 
ROOT
HETATM    1  C           1     -20.806  -9.495  -4.615  0.00  0.00     0.190 C 
ENDROOT
BRANCH   1   2
HETATM    2  C           1     -20.638 -10.666  -5.551  0.00  0.00     0.197 C 
HETATM    3  O           1     -19.593 -10.779  -6.229  0.00  0.00    -0.646 OA
HETATM    4  O           1     -21.542 -11.522  -5.649  0.00  0.00    -0.646 OA
ENDBRANCH   1   2
BRANCH   1   5
HETATM    5  C           1     -20.009  -8.307  -5.137  0.00  0.00     0.077 C 
BRANCH   5   6
HETATM    6  C           1     -20.942  -7.186  -5.471  0.00  0.00    -0.028 A 
HETATM    7  C           1     -22.217  -7.018  -4.981  0.00  0.00     0.096 A 
HETATM    8  N           1     -22.730  -5.873  -5.531  0.00  0.00    -0.365 N 
HETATM    9  C           1     -21.807  -5.295  -6.373  0.00  0.00     0.042 A 
HETATM   10  H           1     -23.689  -5.492  -5.339  0.00  0.00     0.165 HD
HETATM   11  C           1     -21.891  -4.129  -7.144  0.00  0.00     0.030 A 
HETATM   12  C           1     -20.670  -6.103  -6.353  0.00  0.00    -0.002 A 
HETATM   13  C           1     -20.777  -3.783  -7.916  0.00  0.00     0.002 A 
HETATM   14  C           1     -19.629  -4.571  -7.915  0.00  0.00     0.001 A 
HETATM   15  C           1     -19.561  -5.735  -7.139  0.00  0.00     0.014 A 
ENDBRANCH   5   6
ENDBRANCH   1   5
BRANCH   1  16
HETATM   16  N           1     -20.324  -9.858  -3.296  0.00  0.00    -0.344 N 
HETATM   17  H           1     -19.339  -9.777  -3.078  0.00  0.00     0.163 HD
HETATM   18  C           1     -21.200 -10.310  -2.346  0.00  0.00     0.249 C 
HETATM   19  O           1     -21.434 -11.492  -2.255  0.00  0.00    -0.271 OA
BRANCH  18  20
HETATM   20  C           1     -21.874  -9.333  -1.416  0.00  0.00     0.284 C 
BRANCH  20  21
HETATM   21  C           1     -21.202  -7.972  -1.533  0.00  0.00     0.155 C 
BRANCH  21  22
HETATM   22  C           1     -22.203  -6.887  -1.216  0.00  0.00     0.175 C 
HETATM   23  O           1     -22.197  -5.822  -1.870  0.00  0.00    -0.648 OA
HETATM   24  O           1     -23.038  -7.054  -0.301  0.00  0.00    -0.648 OA
ENDBRANCH  21  22
ENDBRANCH  20  21
BRANCH  20  25
HETATM   25  N           1     -21.760  -9.826  -0.003  0.00  0.00    -0.066 N 
HETATM   26  H           1     -20.857 -10.337   0.116  0.00  0.00     0.275 HD
HETATM   27  H           1     -21.790  -9.013   0.652  0.00  0.00     0.275 HD
HETATM   28  H           1     -22.556 -10.472   0.204  0.00  0.00     0.275 HD
ENDBRANCH  20  25
ENDBRANCH  18  20
ENDBRANCH   1  16
TORSDOF 8
ENDMDL
MODEL 4
REMARK VINA RESULT:      -7.1      2.974      6.935
REMARK  8 active torsions:
REMARK  status: ('A' for Active; 'I' for Inactive)
REMARK    1  A    between atoms: C_1  and  C_24 
REMARK       I    between atoms: C_9  and  N_25 
REMARK    2  A    between atoms: C_9  and  C_10 
REMARK    3  A    between atoms: C_10  and  C_11 
REMARK    4  A    between atoms: C_10  and  N_15 
REMARK    5  A    between atoms: C_11  and  C_12 
REMARK    6  A    between atoms: C_18  and  C_20 
REMARK    7  A    between atoms: C_20  and  C_24 
REMARK    8  A    between atoms: C_20  and  N_25 
ROOT
HETATM    1  C           1     -21.367  -8.693  -1.502  0.00  0.00     0.190 C 
ENDROOT
BRANCH   1   2
HETATM    2  C           1     -21.833  -8.332  -0.113  0.00  0.00     0.197 C 
HETATM    3  O           1     -21.052  -8.446   0.858  0.00  0.00    -0.646 OA
HETATM    4  O           1     -22.999  -7.919   0.067  0.00  0.00    -0.646 OA
ENDBRANCH   1   2
BRANCH   1   5
HETATM    5  C           1     -20.248  -9.723  -1.411  0.00  0.00     0.077 C 
BRANCH   5   6
HETATM    6  C           1     -19.795 -10.090  -2.789  0.00  0.00    -0.028 A 
HETATM    7  C           1     -20.582 -10.604  -3.793  0.00  0.00     0.096 A 
HETATM    8  N           1     -19.787 -10.801  -4.891  0.00  0.00    -0.365 N 
HETATM    9  C           1     -18.493 -10.421  -4.615  0.00  0.00     0.042 A 
HETATM   10  H           1     -20.117 -11.185  -5.810  0.00  0.00     0.165 HD
HETATM   11  C           1     -17.351 -10.445  -5.425  0.00  0.00     0.030 A 
HETATM   12  C           1     -18.470  -9.969  -3.295  0.00  0.00    -0.002 A 
HETATM   13  C           1     -16.152  -9.991  -4.865  0.00  0.00     0.002 A 
HETATM   14  C           1     -16.100  -9.533  -3.550  0.00  0.00     0.001 A 
HETATM   15  C           1     -17.252  -9.517  -2.754  0.00  0.00     0.014 A 
ENDBRANCH   5   6
ENDBRANCH   1   5
BRANCH   1  16
HETATM   16  N           1     -20.874  -7.504  -2.170  0.00  0.00    -0.344 N 
HETATM   17  H           1     -19.919  -7.203  -2.028  0.00  0.00     0.163 HD
HETATM   18  C           1     -21.703  -6.787  -2.993  0.00  0.00     0.249 C 
HETATM   19  O           1     -22.372  -5.890  -2.542  0.00  0.00    -0.271 OA
BRANCH  18  20
HETATM   20  C           1     -21.779  -7.122  -4.462  0.00  0.00     0.284 C 
BRANCH  20  21
HETATM   21  C           1     -20.378  -7.122  -5.057  0.00  0.00     0.155 C 
BRANCH  21  22
HETATM   22  C           1     -20.270  -6.025  -6.090  0.00  0.00     0.175 C 
HETATM   23  O           1     -20.472  -6.282  -7.296  0.00  0.00    -0.648 OA
HETATM   24  O           1     -19.978  -4.862  -5.739  0.00  0.00    -0.648 OA
ENDBRANCH  21  22
ENDBRANCH  20  21
BRANCH  20  25
HETATM   25  N           1     -22.621  -6.098  -5.165  0.00  0.00    -0.066 N 
HETATM   26  H           1     -22.002  -5.412  -5.651  0.00  0.00     0.275 HD
HETATM   27  H           1     -23.233  -6.574  -5.866  0.00  0.00     0.275 HD
HETATM   28  H           1     -23.214  -5.598  -4.465  0.00  0.00     0.275 HD
ENDBRANCH  20  25
ENDBRANCH  18  20
ENDBRANCH   1  16
TORSDOF 8
ENDMDL
MODEL 5
REMARK VINA RESULT:      -7.0      2.576      7.963
REMARK  8 active torsions:
REMARK  status: ('A' for Active; 'I' for Inactive)
REMARK    1  A    between atoms: C_1  and  C_24 
REMARK       I    between atoms: C_9  and  N_25 
REMARK    2  A    between atoms: C_9  and  C_10 
REMARK    3  A    between atoms: C_10  and  C_11 
REMARK    4  A    between atoms: C_10  and  N_15 
REMARK    5  A    between atoms: C_11  and  C_12 
REMARK    6  A    between atoms: C_18  and  C_20 
REMARK    7  A    between atoms: C_20  and  C_24 
REMARK    8  A    between atoms: C_20  and  N_25 
ROOT
HETATM    1  C           1     -21.175  -7.400  -5.523  0.00  0.00     0.190 C 
ENDROOT
BRANCH   1   2
HETATM    2  C           1     -21.943  -6.322  -4.798  0.00  0.00     0.197 C 
HETATM    3  O           1     -21.397  -5.680  -3.874  0.00  0.00    -0.646 OA
HETATM    4  O           1     -23.123  -6.071  -5.121  0.00  0.00    -0.646 OA
ENDBRANCH   1   2
BRANCH   1   5
HETATM    5  C           1     -20.295  -8.151  -4.533  0.00  0.00     0.077 C 
BRANCH   5   6
HETATM    6  C           1     -21.141  -9.072  -3.710  0.00  0.00    -0.028 A 
HETATM    7  C           1     -21.740 -10.231  -4.146  0.00  0.00     0.096 A 
HETATM    8  N           1     -22.420 -10.775  -3.089  0.00  0.00    -0.365 N 
HETATM    9  C           1     -22.272  -9.986  -1.971  0.00  0.00     0.042 A 
HETATM   10  H           1     -22.974 -11.666  -3.126  0.00  0.00     0.165 HD
HETATM   11  C           1     -22.783 -10.144  -0.677  0.00  0.00     0.030 A 
HETATM   12  C           1     -21.469  -8.904  -2.336  0.00  0.00    -0.002 A 
HETATM   13  C           1     -22.461  -9.166   0.270  0.00  0.00     0.002 A 
HETATM   14  C           1     -21.662  -8.076  -0.067  0.00  0.00     0.001 A 
HETATM   15  C           1     -21.159  -7.932  -1.366  0.00  0.00     0.014 A 
ENDBRANCH   5   6
ENDBRANCH   1   5
BRANCH   1  16
HETATM   16  N           1     -20.344  -6.796  -6.546  0.00  0.00    -0.344 N 
HETATM   17  H           1     -19.639  -7.350  -7.017  0.00  0.00     0.163 HD
HETATM   18  C           1     -20.511  -5.478  -6.875  0.00  0.00     0.249 C 
HETATM   19  O           1     -19.886  -4.626  -6.291  0.00  0.00    -0.271 OA
BRANCH  18  20
HETATM   20  C           1     -21.478  -5.090  -7.967  0.00  0.00     0.284 C 
BRANCH  20  21
HETATM   21  C           1     -20.711  -4.491  -9.137  0.00  0.00     0.155 C 
BRANCH  21  22
HETATM   22  C           1     -21.660  -4.235 -10.283  0.00  0.00     0.175 C 
HETATM   23  O           1     -22.776  -4.797 -10.306  0.00  0.00    -0.648 OA
HETATM   24  O           1     -21.330  -3.462 -11.208  0.00  0.00    -0.648 OA
ENDBRANCH  21  22
ENDBRANCH  20  21
BRANCH  20  25
HETATM   25  N           1     -22.451  -4.078  -7.437  0.00  0.00    -0.066 N 
HETATM   26  H           1     -23.416  -4.475  -7.462  0.00  0.00     0.275 HD
HETATM   27  H           1     -22.199  -3.836  -6.452  0.00  0.00     0.275 HD
HETATM   28  H           1     -22.413  -3.217  -8.029  0.00  0.00     0.275 HD
ENDBRANCH  20  25
ENDBRANCH  18  20
ENDBRANCH   1  16
TORSDOF 8
ENDMDL
MODEL 6
REMARK VINA RESULT:      -6.8      5.081      9.069
REMARK  8 active torsions:
REMARK  status: ('A' for Active; 'I' for Inactive)
REMARK    1  A    between atoms: C_1  and  C_24 
REMARK       I    between atoms: C_9  and  N_25 
REMARK    2  A    between atoms: C_9  and  C_10 
REMARK    3  A    between atoms: C_10  and  C_11 
REMARK    4  A    between atoms: C_10  and  N_15 
REMARK    5  A    between atoms: C_11  and  C_12 
REMARK    6  A    between atoms: C_18  and  C_20 
REMARK    7  A    between atoms: C_20  and  C_24 
REMARK    8  A    between atoms: C_20  and  N_25 
ROOT
HETATM    1  C           1     -22.761  -4.579  -9.448  0.00  0.00     0.190 C 
ENDROOT
BRANCH   1   2
HETATM    2  C           1     -24.072  -3.883  -9.723  0.00  0.00     0.197 C 
HETATM    3  O           1     -25.058  -4.542 -10.119  0.00  0.00    -0.646 OA
HETATM    4  O           1     -24.171  -2.649  -9.554  0.00  0.00    -0.646 OA
ENDBRANCH   1   2
BRANCH   1   5
HETATM    5  C           1     -22.134  -4.001  -8.186  0.00  0.00     0.077 C 
BRANCH   5   6
HETATM    6  C           1     -21.187  -5.000  -7.598  0.00  0.00    -0.028 A 
HETATM    7  C           1     -19.930  -5.302  -8.068  0.00  0.00     0.096 A 
HETATM    8  N           1     -19.395  -6.262  -7.250  0.00  0.00    -0.365 N 
HETATM    9  C           1     -20.287  -6.589  -6.254  0.00  0.00     0.042 A 
HETATM   10  H           1     -18.442  -6.687  -7.366  0.00  0.00     0.165 HD
HETATM   11  C           1     -20.175  -7.509  -5.204  0.00  0.00     0.030 A 
HETATM   12  C           1     -21.426  -5.807  -6.450  0.00  0.00    -0.002 A 
HETATM   13  C           1     -21.261  -7.630  -4.331  0.00  0.00     0.002 A 
HETATM   14  C           1     -22.410  -6.862  -4.504  0.00  0.00     0.001 A 
HETATM   15  C           1     -22.507  -5.947  -5.559  0.00  0.00     0.014 A 
ENDBRANCH   5   6
ENDBRANCH   1   5
BRANCH   1  16
HETATM   16  N           1     -21.863  -4.377 -10.569  0.00  0.00    -0.344 N 
HETATM   17  H           1     -21.015  -4.924 -10.642  0.00  0.00     0.163 HD
HETATM   18  C           1     -22.162  -3.446 -11.528  0.00  0.00     0.249 C 
HETATM   19  O           1     -21.779  -2.308 -11.405  0.00  0.00    -0.271 OA
BRANCH  18  20
HETATM   20  C           1     -22.973  -3.843 -12.737  0.00  0.00     0.284 C 
BRANCH  20  21
HETATM   21  C           1     -24.013  -2.770 -13.027  0.00  0.00     0.155 C 
BRANCH  21  22
HETATM   22  C           1     -23.739  -2.155 -14.379  0.00  0.00     0.175 C 
HETATM   23  O           1     -22.798  -2.584 -15.080  0.00  0.00    -0.648 OA
HETATM   24  O           1     -24.453  -1.217 -14.795  0.00  0.00    -0.648 OA
ENDBRANCH  21  22
ENDBRANCH  20  21
BRANCH  20  25
HETATM   25  N           1     -23.662  -5.149 -12.470  0.00  0.00    -0.066 N 
HETATM   26  H           1     -23.483  -5.806 -13.262  0.00  0.00     0.275 HD
HETATM   27  H           1     -23.294  -5.561 -11.584  0.00  0.00     0.275 HD
HETATM   28  H           1     -24.691  -4.986 -12.379  0.00  0.00     0.275 HD
ENDBRANCH  20  25
ENDBRANCH  18  20
ENDBRANCH   1  16
TORSDOF 8
ENDMDL
MODEL 7
REMARK VINA RESULT:      -6.7      2.714      4.631
REMARK  8 active torsions:
REMARK  status: ('A' for Active; 'I' for Inactive)
REMARK    1  A    between atoms: C_1  and  C_24 
REMARK       I    between atoms: C_9  and  N_25 
REMARK    2  A    between atoms: C_9  and  C_10 
REMARK    3  A    between atoms: C_10  and  C_11 
REMARK    4  A    between atoms: C_10  and  N_15 
REMARK    5  A    between atoms: C_11  and  C_12 
REMARK    6  A    between atoms: C_18  and  C_20 
REMARK    7  A    between atoms: C_20  and  C_24 
REMARK    8  A    between atoms: C_20  and  N_25 
ROOT
HETATM    1  C           1     -21.407  -7.257  -3.964  0.00  0.00     0.190 C 
ENDROOT
BRANCH   1   2
HETATM    2  C           1     -21.627  -6.827  -2.535  0.00  0.00     0.197 C 
HETATM    3  O           1     -22.444  -5.916  -2.275  0.00  0.00    -0.646 OA
HETATM    4  O           1     -20.994  -7.382  -1.611  0.00  0.00    -0.646 OA
ENDBRANCH   1   2
BRANCH   1   5
HETATM    5  C           1     -22.161  -6.320  -4.898  0.00  0.00     0.077 C 
BRANCH   5   6
HETATM    6  C           1     -21.309  -6.010  -6.089  0.00  0.00    -0.028 A 
HETATM    7  C           1     -20.016  -6.434  -6.295  0.00  0.00     0.096 A 
HETATM    8  N           1     -19.598  -5.935  -7.500  0.00  0.00    -0.365 N 
HETATM    9  C           1     -20.600  -5.191  -8.081  0.00  0.00     0.042 A 
HETATM   10  H           1     -18.650  -6.097  -7.921  0.00  0.00     0.165 HD
HETATM   11  C           1     -20.625  -4.499  -9.299  0.00  0.00     0.030 A 
HETATM   12  C           1     -21.690  -5.222  -7.211  0.00  0.00    -0.002 A 
HETATM   13  C           1     -21.801  -3.820  -9.632  0.00  0.00     0.002 A 
HETATM   14  C           1     -22.905  -3.835  -8.783  0.00  0.00     0.001 A 
HETATM   15  C           1     -22.864  -4.531  -7.569  0.00  0.00     0.014 A 
ENDBRANCH   5   6
ENDBRANCH   1   5
BRANCH   1  16
HETATM   16  N           1     -21.894  -8.611  -4.142  0.00  0.00    -0.344 N 
HETATM   17  H           1     -22.890  -8.789  -4.181  0.00  0.00     0.163 HD
HETATM   18  C           1     -21.009  -9.649  -4.256  0.00  0.00     0.249 C 
HETATM   19  O           1     -20.636 -10.235  -3.268  0.00  0.00    -0.271 OA
BRANCH  18  20
HETATM   20  C           1     -20.498 -10.058  -5.615  0.00  0.00     0.284 C 
BRANCH  20  21
HETATM   21  C           1     -20.750 -11.545  -5.827  0.00  0.00     0.155 C 
BRANCH  21  22
HETATM   22  C           1     -19.554 -12.166  -6.509  0.00  0.00     0.175 C 
HETATM   23  O           1     -19.331 -11.930  -7.715  0.00  0.00    -0.648 OA
HETATM   24  O           1     -18.787 -12.915  -5.866  0.00  0.00    -0.648 OA
ENDBRANCH  21  22
ENDBRANCH  20  21
BRANCH  20  25
HETATM   25  N           1     -19.025  -9.784  -5.700  0.00  0.00    -0.066 N 
HETATM   26  H           1     -18.856  -8.757  -5.610  0.00  0.00     0.275 HD
HETATM   27  H           1     -18.533 -10.287  -4.928  0.00  0.00     0.275 HD
HETATM   28  H           1     -18.663 -10.118  -6.622  0.00  0.00     0.275 HD
ENDBRANCH  20  25
ENDBRANCH  18  20
ENDBRANCH   1  16
TORSDOF 8
ENDMDL
MODEL 8
REMARK VINA RESULT:      -6.6      3.792      7.475
REMARK  8 active torsions:
REMARK  status: ('A' for Active; 'I' for Inactive)
REMARK    1  A    between atoms: C_1  and  C_24 
REMARK       I    between atoms: C_9  and  N_25 
REMARK    2  A    between atoms: C_9  and  C_10 
REMARK    3  A    between atoms: C_10  and  C_11 
REMARK    4  A    between atoms: C_10  and  N_15 
REMARK    5  A    between atoms: C_11  and  C_12 
REMARK    6  A    between atoms: C_18  and  C_20 
REMARK    7  A    between atoms: C_20  and  C_24 
REMARK    8  A    between atoms: C_20  and  N_25 
ROOT
HETATM    1  C           1     -18.442  -9.486  -3.253  0.00  0.00     0.190 C 
ENDROOT
BRANCH   1   2
HETATM    2  C           1     -17.064 -10.007  -3.575  0.00  0.00     0.197 C 
HETATM    3  O           1     -16.053  -9.411  -3.141  0.00  0.00    -0.646 OA
HETATM    4  O           1     -16.931 -11.033  -4.275  0.00  0.00    -0.646 OA
ENDBRANCH   1   2
BRANCH   1   5
HETATM    5  C           1     -19.046 -10.311  -2.123  0.00  0.00     0.077 C 
BRANCH   5   6
HETATM    6  C           1     -20.201  -9.569  -1.526  0.00  0.00    -0.028 A 
HETATM    7  C           1     -20.286  -8.208  -1.344  0.00  0.00     0.096 A 
HETATM    8  N           1     -21.499  -7.936  -0.771  0.00  0.00    -0.365 N 
HETATM    9  C           1     -22.207  -9.102  -0.578  0.00  0.00     0.042 A 
HETATM   10  H           1     -21.842  -6.977  -0.516  0.00  0.00     0.165 HD
HETATM   11  C           1     -23.478  -9.309  -0.029  0.00  0.00     0.030 A 
HETATM   12  C           1     -21.410 -10.147  -1.046  0.00  0.00    -0.002 A 
HETATM   13  C           1     -23.946 -10.625   0.041  0.00  0.00     0.002 A 
HETATM   14  C           1     -23.172 -11.688  -0.420  0.00  0.00     0.001 A 
HETATM   15  C           1     -21.902 -11.464  -0.965  0.00  0.00     0.014 A 
ENDBRANCH   5   6
ENDBRANCH   1   5
BRANCH   1  16
HETATM   16  N           1     -19.285  -9.590  -4.429  0.00  0.00    -0.344 N 
HETATM   17  H           1     -19.925 -10.368  -4.526  0.00  0.00     0.163 HD
HETATM   18  C           1     -19.214  -8.636  -5.409  0.00  0.00     0.249 C 
HETATM   19  O           1     -18.438  -8.767  -6.324  0.00  0.00    -0.271 OA
BRANCH  18  20
HETATM   20  C           1     -20.105  -7.420  -5.342  0.00  0.00     0.284 C 
BRANCH  20  21
HETATM   21  C           1     -21.457  -7.811  -4.760  0.00  0.00     0.155 C 
BRANCH  21  22
HETATM   22  C           1     -22.238  -6.563  -4.422  0.00  0.00     0.175 C 
HETATM   23  O           1     -22.310  -6.174  -3.237  0.00  0.00    -0.648 OA
HETATM   24  O           1     -22.814  -5.922  -5.327  0.00  0.00    -0.648 OA
ENDBRANCH  21  22
ENDBRANCH  20  21
BRANCH  20  25
HETATM   25  N           1     -20.298  -6.865  -6.723  0.00  0.00    -0.066 N 
HETATM   26  H           1     -21.272  -6.502  -6.820  0.00  0.00     0.275 HD
HETATM   27  H           1     -19.619  -6.088  -6.883  0.00  0.00     0.275 HD
HETATM   28  H           1     -20.136  -7.622  -7.426  0.00  0.00     0.275 HD
ENDBRANCH  20  25
ENDBRANCH  18  20
ENDBRANCH   1  16
TORSDOF 8
ENDMDL
MODEL 9
REMARK VINA RESULT:      -6.5      4.213      7.549
REMARK  8 active torsions:
REMARK  status: ('A' for Active; 'I' for Inactive)
REMARK    1  A    between atoms: C_1  and  C_24 
REMARK       I    between atoms: C_9  and  N_25 
REMARK    2  A    between atoms: C_9  and  C_10 
REMARK    3  A    between atoms: C_10  and  C_11 
REMARK    4  A    between atoms: C_10  and  N_15 
REMARK    5  A    between atoms: C_11  and  C_12 
REMARK    6  A    between atoms: C_18  and  C_20 
REMARK    7  A    between atoms: C_20  and  C_24 
REMARK    8  A    between atoms: C_20  and  N_25 
ROOT
HETATM    1  C           1     -21.176  -7.685  -3.069  0.00  0.00     0.190 C 
ENDROOT
BRANCH   1   2
HETATM    2  C           1     -21.950  -6.401  -3.233  0.00  0.00     0.197 C 
HETATM    3  O           1     -22.013  -5.583  -2.288  0.00  0.00    -0.646 OA
HETATM    4  O           1     -22.530  -6.153  -4.312  0.00  0.00    -0.646 OA
ENDBRANCH   1   2
BRANCH   1   5
HETATM    5  C           1     -20.787  -7.861  -1.607  0.00  0.00     0.077 C 
BRANCH   5   6
HETATM    6  C           1     -21.928  -8.475  -0.857  0.00  0.00    -0.028 A 
HETATM    7  C           1     -22.660  -7.875   0.141  0.00  0.00     0.096 A 
HETATM    8  N           1     -23.607  -8.770   0.563  0.00  0.00    -0.365 N 
HETATM    9  C           1     -23.502  -9.945  -0.148  0.00  0.00     0.042 A 
HETATM   10  H           1     -24.313  -8.587   1.318  0.00  0.00     0.165 HD
HETATM   11  C           1     -24.249 -11.126  -0.060  0.00  0.00     0.030 A 
HETATM   12  C           1     -22.450  -9.785  -1.050  0.00  0.00    -0.002 A 
HETATM   13  C           1     -23.908 -12.172  -0.924  0.00  0.00     0.002 A 
HETATM   14  C           1     -22.862 -12.040  -1.835  0.00  0.00     0.001 A 
HETATM   15  C           1     -22.124 -10.852  -1.909  0.00  0.00     0.014 A 
ENDBRANCH   5   6
ENDBRANCH   1   5
BRANCH   1  16
HETATM   16  N           1     -19.977  -7.634  -3.884  0.00  0.00    -0.344 N 
HETATM   17  H           1     -19.205  -7.039  -3.610  0.00  0.00     0.163 HD
HETATM   18  C           1     -19.891  -8.388  -5.023  0.00  0.00     0.249 C 
HETATM   19  O           1     -20.264  -7.934  -6.078  0.00  0.00    -0.271 OA
BRANCH  18  20
HETATM   20  C           1     -19.331  -9.788  -4.959  0.00  0.00     0.284 C 
BRANCH  20  21
HETATM   21  C           1     -17.825  -9.744  -5.176  0.00  0.00     0.155 C 
BRANCH  21  22
HETATM   22  C           1     -17.121  -9.892  -3.847  0.00  0.00     0.175 C 
HETATM   23  O           1     -17.539  -9.270  -2.848  0.00  0.00    -0.648 OA
HETATM   24  O           1     -16.122 -10.636  -3.748  0.00  0.00    -0.648 OA
ENDBRANCH  21  22
ENDBRANCH  20  21
BRANCH  20  25
HETATM   25  N           1     -19.965 -10.630  -6.027  0.00  0.00    -0.066 N 
HETATM   26  H           1     -20.752 -10.101  -6.467  0.00  0.00     0.275 HD
HETATM   27  H           1     -19.252 -10.863  -6.755  0.00  0.00     0.275 HD
HETATM   28  H           1     -20.333 -11.511  -5.602  0.00  0.00     0.275 HD
ENDBRANCH  20  25
ENDBRANCH  18  20
ENDBRANCH   1  16
TORSDOF 8
ENDMDL
