MODEL 1
REMARK VINA RESULT:      -7.0      0.000      0.000
REMARK  9 active torsions:
REMARK  status: ('A' for Active; 'I' for Inactive)
REMARK    1  A    between atoms: C_2  and  C_17 
REMARK    2  A    between atoms: C_2  and  C_9 
REMARK    3  A    between atoms: C_2  and  N_7 
REMARK    4  A    between atoms: C_9  and  C_12 
REMARK    5  A    between atoms: C_10  and  S_13 
REMARK    6  A    between atoms: C_10  and  C_14 
REMARK    7  A    between atoms: C_14  and  C_15 
REMARK    8  A    between atoms: C_15  and  C_21 
REMARK    9  A    between atoms: C_15  and  N_24 
REMARK       I    between atoms: C_17  and  N_24 
ROOT
HETATM    1  C           1     -21.008  -5.388  -6.592  0.00  0.00     0.278 C 
ENDROOT
BRANCH   1   2
HETATM    2  C           1     -21.566  -4.380  -7.568  0.00  0.00     0.249 C 
HETATM    3  O           1     -21.532  -3.201  -7.304  0.00  0.00    -0.271 OA
HETATM    4  N           1     -22.111  -4.801  -8.750  0.00  0.00    -0.345 N 
HETATM    5  H           1     -22.139  -5.788  -8.971  0.00  0.00     0.163 HD
BRANCH   4   6
HETATM    6  C           1     -22.647  -3.832  -9.688  0.00  0.00     0.186 C 
BRANCH   6   7
HETATM    7  C           1     -22.161  -4.163 -11.093  0.00  0.00     0.046 C 
BRANCH   7   8
HETATM    8  C           1     -22.338  -2.947 -11.992  0.00  0.00     0.076 C 
BRANCH   8   9
HETATM    9  S           1     -23.754  -3.210 -13.096  0.00  0.00    -0.173 SA
HETATM   10  C           1     -22.933  -2.643 -14.612  0.00  0.00     0.089 C 
ENDBRANCH   8   9
ENDBRANCH   7   8
ENDBRANCH   6   7
BRANCH   6  11
HETATM   11  C           1     -24.154  -3.881  -9.653  0.00  0.00     0.196 C 
HETATM   12  O           1     -24.808  -2.837  -9.435  0.00  0.00    -0.646 OA
HETATM   13  O           1     -24.750  -4.964  -9.842  0.00  0.00    -0.646 OA
ENDBRANCH   6  11
ENDBRANCH   4   6
ENDBRANCH   1   2
BRANCH   1  14
HETATM   14  C           1     -22.123  -5.880  -5.679  0.00  0.00     0.081 C 
BRANCH  14  15
HETATM   15  C           1     -21.543  -6.754  -4.610  0.00  0.00    -0.056 A 
HETATM   16  C           1     -21.664  -6.391  -3.270  0.00  0.00     0.007 A 
HETATM   17  C           1     -21.124  -7.205  -2.274  0.00  0.00     0.001 A 
HETATM   18  C           1     -20.464  -8.384  -2.621  0.00  0.00     0.000 A 
HETATM   19  C           1     -20.344  -8.749  -3.961  0.00  0.00     0.001 A 
HETATM   20  C           1     -20.884  -7.933  -4.957  0.00  0.00     0.007 A 
ENDBRANCH  14  15
ENDBRANCH   1  14
BRANCH   1  21
HETATM   21  N           1     -19.935  -4.743  -5.766  0.00  0.00    -0.066 N 
HETATM   22  H           1     -19.008  -4.888  -6.226  0.00  0.00     0.275 HD
HETATM   23  H           1     -20.127  -3.719  -5.685  0.00  0.00     0.275 HD
HETATM   24  H           1     -19.923  -5.173  -4.814  0.00  0.00     0.275 HD
ENDBRANCH   1  21
TORSDOF 9
ENDMDL
MODEL 2
REMARK VINA RESULT:      -6.8      4.133      8.322
REMARK  9 active torsions:
REMARK  status: ('A' for Active; 'I' for Inactive)
REMARK    1  A    between atoms: C_2  and  C_17 
REMARK    2  A    between atoms: C_2  and  C_9 
REMARK    3  A    between atoms: C_2  and  N_7 
REMARK    4  A    between atoms: C_9  and  C_12 
REMARK    5  A    between atoms: C_10  and  S_13 
REMARK    6  A    between atoms: C_10  and  C_14 
REMARK    7  A    between atoms: C_14  and  C_15 
REMARK    8  A    between atoms: C_15  and  C_21 
REMARK    9  A    between atoms: C_15  and  N_24 
REMARK       I    between atoms: C_17  and  N_24 
ROOT
HETATM    1  C           1     -22.270  -5.115  -6.823  0.00  0.00     0.278 C 
ENDROOT
BRANCH   1   2
HETATM    2  C           1     -21.482  -5.583  -5.624  0.00  0.00     0.249 C 
HETATM    3  O           1     -20.292  -5.387  -5.568  0.00  0.00    -0.271 OA
HETATM    4  N           1     -22.116  -6.233  -4.599  0.00  0.00    -0.345 N 
HETATM    5  H           1     -23.113  -6.398  -4.646  0.00  0.00     0.163 HD
BRANCH   4   6
HETATM    6  C           1     -21.359  -6.684  -3.447  0.00  0.00     0.186 C 
BRANCH   6   7
HETATM    7  C           1     -22.213  -6.549  -2.194  0.00  0.00     0.046 C 
BRANCH   7   8
HETATM    8  C           1     -21.521  -7.245  -1.029  0.00  0.00     0.076 C 
BRANCH   8   9
HETATM    9  S           1     -22.757  -8.111  -0.021  0.00  0.00    -0.173 SA
HETATM   10  C           1     -21.783  -9.623   0.231  0.00  0.00     0.089 C 
ENDBRANCH   8   9
ENDBRANCH   7   8
ENDBRANCH   6   7
BRANCH   6  11
HETATM   11  C           1     -20.970  -8.129  -3.636  0.00  0.00     0.196 C 
HETATM   12  O           1     -21.853  -8.995  -3.821  0.00  0.00    -0.646 OA
HETATM   13  O           1     -19.765  -8.462  -3.608  0.00  0.00    -0.646 OA
ENDBRANCH   6  11
ENDBRANCH   4   6
ENDBRANCH   1   2
BRANCH   1  14
HETATM   14  C           1     -21.654  -3.831  -7.365  0.00  0.00     0.081 C 
BRANCH  14  15
HETATM   15  C           1     -21.592  -3.901  -8.859  0.00  0.00    -0.056 A 
HETATM   16  C           1     -22.726  -3.619  -9.619  0.00  0.00     0.007 A 
HETATM   17  C           1     -22.668  -3.683 -11.011  0.00  0.00     0.001 A 
HETATM   18  C           1     -21.474  -4.029 -11.643  0.00  0.00     0.000 A 
HETATM   19  C           1     -20.339  -4.311 -10.884  0.00  0.00     0.001 A 
HETATM   20  C           1     -20.397  -4.246  -9.491  0.00  0.00     0.007 A 
ENDBRANCH  14  15
ENDBRANCH   1  14
BRANCH   1  21
HETATM   21  N           1     -23.690  -4.853  -6.415  0.00  0.00    -0.066 N 
HETATM   22  H           1     -24.197  -5.761  -6.316  0.00  0.00     0.275 HD
HETATM   23  H           1     -23.701  -4.346  -5.501  0.00  0.00     0.275 HD
HETATM   24  H           1     -24.160  -4.270  -7.144  0.00  0.00     0.275 HD
ENDBRANCH   1  21
TORSDOF 9
ENDMDL
MODEL 3
REMARK VINA RESULT:      -6.6      3.835      7.810
REMARK  9 active torsions:
REMARK  status: ('A' for Active; 'I' for Inactive)
REMARK    1  A    between atoms: C_2  and  C_17 
REMARK    2  A    between atoms: C_2  and  C_9 
REMARK    3  A    between atoms: C_2  and  N_7 
REMARK    4  A    between atoms: C_9  and  C_12 
REMARK    5  A    between atoms: C_10  and  S_13 
REMARK    6  A    between atoms: C_10  and  C_14 
REMARK    7  A    between atoms: C_14  and  C_15 
REMARK    8  A    between atoms: C_15  and  C_21 
REMARK    9  A    between atoms: C_15  and  N_24 
REMARK       I    between atoms: C_17  and  N_24 
ROOT
HETATM    1  C           1     -20.893  -4.269  -7.475  0.00  0.00     0.278 C 
ENDROOT
BRANCH   1   2
HETATM    2  C           1     -20.598  -4.963  -6.168  0.00  0.00     0.249 C 
HETATM    3  O           1     -19.847  -4.455  -5.370  0.00  0.00    -0.271 OA
HETATM    4  N           1     -21.179  -6.170  -5.887  0.00  0.00    -0.345 N 
HETATM    5  H           1     -21.808  -6.596  -6.556  0.00  0.00     0.163 HD
BRANCH   4   6
HETATM    6  C           1     -20.895  -6.838  -4.632  0.00  0.00     0.186 C 
BRANCH   6   7
HETATM    7  C           1     -22.109  -6.737  -3.717  0.00  0.00     0.046 C 
BRANCH   7   8
HETATM    8  C           1     -21.701  -6.084  -2.403  0.00  0.00     0.076 C 
BRANCH   8   9
HETATM    9  S           1     -22.260  -7.114  -1.016  0.00  0.00    -0.173 SA
HETATM   10  C           1     -20.839  -8.244  -1.022  0.00  0.00     0.089 C 
ENDBRANCH   8   9
ENDBRANCH   7   8
ENDBRANCH   6   7
BRANCH   6  11
HETATM   11  C           1     -20.585  -8.291  -4.895  0.00  0.00     0.196 C 
HETATM   12  O           1     -21.357  -9.181  -4.476  0.00  0.00    -0.646 OA
HETATM   13  O           1     -19.555  -8.606  -5.530  0.00  0.00    -0.646 OA
ENDBRANCH   6  11
ENDBRANCH   4   6
ENDBRANCH   1   2
BRANCH   1  14
HETATM   14  C           1     -21.527  -5.259  -8.444  0.00  0.00     0.081 C 
BRANCH  14  15
HETATM   15  C           1     -22.422  -4.525  -9.393  0.00  0.00    -0.056 A 
HETATM   16  C           1     -23.673  -4.078  -8.968  0.00  0.00     0.007 A 
HETATM   17  C           1     -24.507  -3.393  -9.852  0.00  0.00     0.001 A 
HETATM   18  C           1     -24.089  -3.155 -11.162  0.00  0.00     0.000 A 
HETATM   19  C           1     -22.838  -3.601 -11.587  0.00  0.00     0.001 A 
HETATM   20  C           1     -22.004  -4.286 -10.702  0.00  0.00     0.007 A 
ENDBRANCH  14  15
ENDBRANCH   1  14
BRANCH   1  21
HETATM   21  N           1     -19.616  -3.745  -8.062  0.00  0.00    -0.066 N 
HETATM   22  H           1     -19.373  -2.835  -7.610  0.00  0.00     0.275 HD
HETATM   23  H           1     -18.848  -4.434  -7.894  0.00  0.00     0.275 HD
HETATM   24  H           1     -19.738  -3.601  -9.090  0.00  0.00     0.275 HD
ENDBRANCH   1  21
TORSDOF 9
ENDMDL
MODEL 4
REMARK VINA RESULT:      -6.5      3.876      7.810
REMARK  9 active torsions:
REMARK  status: ('A' for Active; 'I' for Inactive)
REMARK    1  A    between atoms: C_2  and  C_17 
REMARK    2  A    between atoms: C_2  and  C_9 
REMARK    3  A    between atoms: C_2  and  N_7 
REMARK    4  A    between atoms: C_9  and  C_12 
REMARK    5  A    between atoms: C_10  and  S_13 
REMARK    6  A    between atoms: C_10  and  C_14 
REMARK    7  A    between atoms: C_14  and  C_15 
REMARK    8  A    between atoms: C_15  and  C_21 
REMARK    9  A    between atoms: C_15  and  N_24 
REMARK       I    between atoms: C_17  and  N_24 
ROOT
HETATM    1  C           1     -20.936  -4.923  -6.447  0.00  0.00     0.278 C 
ENDROOT
BRANCH   1   2
HETATM    2  C           1     -21.669  -5.849  -5.507  0.00  0.00     0.249 C 
HETATM    3  O           1     -22.876  -5.887  -5.514  0.00  0.00    -0.271 OA
HETATM    4  N           1     -20.965  -6.646  -4.645  0.00  0.00    -0.345 N 
HETATM    5  H           1     -19.953  -6.614  -4.639  0.00  0.00     0.163 HD
BRANCH   4   6
HETATM    6  C           1     -21.668  -7.536  -3.741  0.00  0.00     0.186 C 
BRANCH   6   7
HETATM    7  C           1     -20.978  -8.894  -3.727  0.00  0.00     0.046 C 
BRANCH   7   8
HETATM    8  C           1     -19.602  -8.771  -4.368  0.00  0.00     0.076 C 
BRANCH   8   9
HETATM    9  S           1     -18.344  -9.421  -3.233  0.00  0.00    -0.173 SA
HETATM   10  C           1     -17.201 -10.006  -4.517  0.00  0.00     0.089 C 
ENDBRANCH   8   9
ENDBRANCH   7   8
ENDBRANCH   6   7
BRANCH   6  11
HETATM   11  C           1     -21.657  -6.952  -2.351  0.00  0.00     0.196 C 
HETATM   12  O           1     -22.298  -5.906  -2.107  0.00  0.00    -0.646 OA
HETATM   13  O           1     -21.007  -7.513  -1.442  0.00  0.00    -0.646 OA
ENDBRANCH   6  11
ENDBRANCH   4   6
ENDBRANCH   1   2
BRANCH   1  14
HETATM   14  C           1     -20.623  -5.658  -7.743  0.00  0.00     0.081 C 
BRANCH  14  15
HETATM   15  C           1     -21.071  -4.831  -8.907  0.00  0.00    -0.056 A 
HETATM   16  C           1     -20.175  -4.522  -9.930  0.00  0.00     0.007 A 
HETATM   17  C           1     -20.592  -3.751 -11.015  0.00  0.00     0.001 A 
HETATM   18  C           1     -21.907  -3.289 -11.077  0.00  0.00     0.000 A 
HETATM   19  C           1     -22.804  -3.598 -10.055  0.00  0.00     0.001 A 
HETATM   20  C           1     -22.386  -4.369  -8.969  0.00  0.00     0.007 A 
ENDBRANCH  14  15
ENDBRANCH   1  14
BRANCH   1  21
HETATM   21  N           1     -19.656  -4.472  -5.807  0.00  0.00    -0.066 N 
HETATM   22  H           1     -19.655  -3.431  -5.725  0.00  0.00     0.275 HD
HETATM   23  H           1     -19.576  -4.896  -4.855  0.00  0.00     0.275 HD
HETATM   24  H           1     -18.847  -4.776  -6.394  0.00  0.00     0.275 HD
ENDBRANCH   1  21
TORSDOF 9
ENDMDL
MODEL 5
REMARK VINA RESULT:      -6.5      2.084      2.836
REMARK  9 active torsions:
REMARK  status: ('A' for Active; 'I' for Inactive)
REMARK    1  A    between atoms: C_2  and  C_17 
REMARK    2  A    between atoms: C_2  and  C_9 
REMARK    3  A    between atoms: C_2  and  N_7 
REMARK    4  A    between atoms: C_9  and  C_12 
REMARK    5  A    between atoms: C_10  and  S_13 
REMARK    6  A    between atoms: C_10  and  C_14 
REMARK    7  A    between atoms: C_14  and  C_15 
REMARK    8  A    between atoms: C_15  and  C_21 
REMARK    9  A    between atoms: C_15  and  N_24 
REMARK       I    between atoms: C_17  and  N_24 
ROOT
HETATM    1  C           1     -21.729  -5.920  -5.140  0.00  0.00     0.278 C 
ENDROOT
BRANCH   1   2
HETATM    2  C           1     -21.507  -5.867  -6.632  0.00  0.00     0.249 C 
HETATM    3  O           1     -20.886  -6.745  -7.182  0.00  0.00    -0.271 OA
HETATM    4  N           1     -22.010  -4.825  -7.363  0.00  0.00    -0.345 N 
HETATM    5  H           1     -22.530  -4.089  -6.902  0.00  0.00     0.163 HD
BRANCH   4   6
HETATM    6  C           1     -21.797  -4.773  -8.796  0.00  0.00     0.186 C 
BRANCH   6   7
HETATM    7  C           1     -22.736  -3.744  -9.412  0.00  0.00     0.046 C 
BRANCH   7   8
HETATM    8  C           1     -23.684  -4.437 -10.382  0.00  0.00     0.076 C 
BRANCH   8   9
HETATM    9  S           1     -24.104  -3.302 -11.734  0.00  0.00    -0.173 SA
HETATM   10  C           1     -22.396  -2.965 -12.249  0.00  0.00     0.089 C 
ENDBRANCH   8   9
ENDBRANCH   7   8
ENDBRANCH   6   7
BRANCH   6  11
HETATM   11  C           1     -20.368  -4.382  -9.079  0.00  0.00     0.196 C 
HETATM   12  O           1     -19.798  -4.799 -10.111  0.00  0.00    -0.646 OA
HETATM   13  O           1     -19.753  -3.641  -8.281  0.00  0.00    -0.646 OA
ENDBRANCH   6  11
ENDBRANCH   4   6
ENDBRANCH   1   2
BRANCH   1  14
HETATM   14  C           1     -20.857  -7.013  -4.536  0.00  0.00     0.081 C 
BRANCH  14  15
HETATM   15  C           1     -21.354  -7.345  -3.163  0.00  0.00    -0.056 A 
HETATM   16  C           1     -21.769  -6.326  -2.306  0.00  0.00     0.007 A 
HETATM   17  C           1     -22.233  -6.634  -1.027  0.00  0.00     0.001 A 
HETATM   18  C           1     -22.280  -7.963  -0.605  0.00  0.00     0.000 A 
HETATM   19  C           1     -21.866  -8.983  -1.461  0.00  0.00     0.001 A 
HETATM   20  C           1     -21.402  -8.673  -2.741  0.00  0.00     0.007 A 
ENDBRANCH  14  15
ENDBRANCH   1  14
BRANCH   1  21
HETATM   21  N           1     -23.172  -6.219  -4.860  0.00  0.00    -0.066 N 
HETATM   22  H           1     -23.295  -6.416  -3.841  0.00  0.00     0.275 HD
HETATM   23  H           1     -23.756  -5.396  -5.129  0.00  0.00     0.275 HD
HETATM   24  H           1     -23.468  -7.054  -5.414  0.00  0.00     0.275 HD
ENDBRANCH   1  21
TORSDOF 9
ENDMDL
MODEL 6
REMARK VINA RESULT:      -6.5      4.013      8.085
REMARK  9 active torsions:
REMARK  status: ('A' for Active; 'I' for Inactive)
REMARK    1  A    between atoms: C_2  and  C_17 
REMARK    2  A    between atoms: C_2  and  C_9 
REMARK    3  A    between atoms: C_2  and  N_7 
REMARK    4  A    between atoms: C_9  and  C_12 
REMARK    5  A    between atoms: C_10  and  S_13 
REMARK    6  A    between atoms: C_10  and  C_14 
REMARK    7  A    between atoms: C_14  and  C_15 
REMARK    8  A    between atoms: C_15  and  C_21 
REMARK    9  A    between atoms: C_15  and  N_24 
REMARK       I    between atoms: C_17  and  N_24 
ROOT
HETATM    1  C           1     -21.101  -4.922  -6.543  0.00  0.00     0.278 C 
ENDROOT
BRANCH   1   2
HETATM    2  C           1     -21.768  -5.846  -5.552  0.00  0.00     0.249 C 
HETATM    3  O           1     -22.973  -5.888  -5.481  0.00  0.00    -0.271 OA
HETATM    4  N           1     -21.007  -6.634  -4.732  0.00  0.00    -0.345 N 
HETATM    5  H           1     -19.997  -6.599  -4.791  0.00  0.00     0.163 HD
BRANCH   4   6
HETATM    6  C           1     -21.646  -7.521  -3.779  0.00  0.00     0.186 C 
BRANCH   6   7
HETATM    7  C           1     -20.922  -8.861  -3.768  0.00  0.00     0.046 C 
BRANCH   7   8
HETATM    8  C           1     -21.935  -9.985  -3.592  0.00  0.00     0.076 C 
BRANCH   8   9
HETATM    9  S           1     -21.507 -10.961  -2.123  0.00  0.00    -0.173 SA
HETATM   10  C           1     -22.843 -10.330  -1.068  0.00  0.00     0.089 C 
ENDBRANCH   8   9
ENDBRANCH   7   8
ENDBRANCH   6   7
BRANCH   6  11
HETATM   11  C           1     -21.588  -6.907  -2.403  0.00  0.00     0.196 C 
HETATM   12  O           1     -22.320  -5.933  -2.122  0.00  0.00    -0.646 OA
HETATM   13  O           1     -20.807  -7.370  -1.543  0.00  0.00    -0.646 OA
ENDBRANCH   6  11
ENDBRANCH   4   6
ENDBRANCH   1   2
BRANCH   1  14
HETATM   14  C           1     -20.855  -5.670  -7.847  0.00  0.00     0.081 C 
BRANCH  14  15
HETATM   15  C           1     -21.238  -4.798  -9.002  0.00  0.00    -0.056 A 
HETATM   16  C           1     -22.553  -4.355  -9.135  0.00  0.00     0.007 A 
HETATM   17  C           1     -22.911  -3.542 -10.211  0.00  0.00     0.001 A 
HETATM   18  C           1     -21.951  -3.172 -11.153  0.00  0.00     0.000 A 
HETATM   19  C           1     -20.635  -3.614 -11.020  0.00  0.00     0.001 A 
HETATM   20  C           1     -20.278  -4.427  -9.943  0.00  0.00     0.007 A 
ENDBRANCH  14  15
ENDBRANCH   1  14
BRANCH   1  21
HETATM   21  N           1     -19.792  -4.451  -5.983  0.00  0.00    -0.066 N 
HETATM   22  H           1     -19.798  -3.409  -5.911  0.00  0.00     0.275 HD
HETATM   23  H           1     -19.651  -4.864  -5.033  0.00  0.00     0.275 HD
HETATM   24  H           1     -19.015  -4.752  -6.613  0.00  0.00     0.275 HD
ENDBRANCH   1  21
TORSDOF 9
ENDMDL
MODEL 7
REMARK VINA RESULT:      -6.3      4.259      7.979
REMARK  9 active torsions:
REMARK  status: ('A' for Active; 'I' for Inactive)
REMARK    1  A    between atoms: C_2  and  C_17 
REMARK    2  A    between atoms: C_2  and  C_9 
REMARK    3  A    between atoms: C_2  and  N_7 
REMARK    4  A    between atoms: C_9  and  C_12 
REMARK    5  A    between atoms: C_10  and  S_13 
REMARK    6  A    between atoms: C_10  and  C_14 
REMARK    7  A    between atoms: C_14  and  C_15 
REMARK    8  A    between atoms: C_15  and  C_21 
REMARK    9  A    between atoms: C_15  and  N_24 
REMARK       I    between atoms: C_17  and  N_24 
ROOT
HETATM    1  C           1     -21.607  -6.015  -6.397  0.00  0.00     0.278 C 
ENDROOT
BRANCH   1   2
HETATM    2  C           1     -20.530  -6.983  -5.971  0.00  0.00     0.249 C 
HETATM    3  O           1     -19.460  -6.982  -6.532  0.00  0.00    -0.271 OA
HETATM    4  N           1     -20.766  -7.863  -4.950  0.00  0.00    -0.345 N 
HETATM    5  H           1     -21.663  -7.864  -4.480  0.00  0.00     0.163 HD
BRANCH   4   6
HETATM    6  C           1     -19.732  -8.794  -4.541  0.00  0.00     0.186 C 
BRANCH   6   7
HETATM    7  C           1     -19.776  -8.969  -3.029  0.00  0.00     0.046 C 
BRANCH   7   8
HETATM    8  C           1     -21.215  -8.848  -2.544  0.00  0.00     0.076 C 
BRANCH   8   9
HETATM    9  S           1     -21.245  -7.997  -0.941  0.00  0.00    -0.173 SA
HETATM   10  C           1     -22.232  -6.575  -1.490  0.00  0.00     0.089 C 
ENDBRANCH   8   9
ENDBRANCH   7   8
ENDBRANCH   6   7
BRANCH   6  11
HETATM   11  C           1     -19.964 -10.128  -5.207  0.00  0.00     0.196 C 
HETATM   12  O           1     -20.952 -10.288  -5.956  0.00  0.00    -0.646 OA
HETATM   13  O           1     -19.170 -11.073  -5.009  0.00  0.00    -0.646 OA
ENDBRANCH   6  11
ENDBRANCH   4   6
ENDBRANCH   1   2
BRANCH   1  14
HETATM   14  C           1     -20.973  -4.678  -6.761  0.00  0.00     0.081 C 
BRANCH  14  15
HETATM   15  C           1     -21.198  -4.398  -8.214  0.00  0.00    -0.056 A 
HETATM   16  C           1     -22.447  -3.965  -8.656  0.00  0.00     0.007 A 
HETATM   17  C           1     -22.657  -3.704 -10.010  0.00  0.00     0.001 A 
HETATM   18  C           1     -21.616  -3.876 -10.922  0.00  0.00     0.000 A 
HETATM   19  C           1     -20.366  -4.309 -10.481  0.00  0.00     0.001 A 
HETATM   20  C           1     -20.157  -4.570  -9.126  0.00  0.00     0.007 A 
ENDBRANCH  14  15
ENDBRANCH   1  14
BRANCH   1  21
HETATM   21  N           1     -22.575  -5.817  -5.268  0.00  0.00    -0.066 N 
HETATM   22  H           1     -22.125  -5.243  -4.520  0.00  0.00     0.275 HD
HETATM   23  H           1     -23.425  -5.322  -5.622  0.00  0.00     0.275 HD
HETATM   24  H           1     -22.849  -6.746  -4.877  0.00  0.00     0.275 HD
ENDBRANCH   1  21
TORSDOF 9
ENDMDL
MODEL 8
REMARK VINA RESULT:      -6.2      3.845      7.955
REMARK  9 active torsions:
REMARK  status: ('A' for Active; 'I' for Inactive)
REMARK    1  A    between atoms: C_2  and  C_17 
REMARK    2  A    between atoms: C_2  and  C_9 
REMARK    3  A    between atoms: C_2  and  N_7 
REMARK    4  A    between atoms: C_9  and  C_12 
REMARK    5  A    between atoms: C_10  and  S_13 
REMARK    6  A    between atoms: C_10  and  C_14 
REMARK    7  A    between atoms: C_14  and  C_15 
REMARK    8  A    between atoms: C_15  and  C_21 
REMARK    9  A    between atoms: C_15  and  N_24 
REMARK       I    between atoms: C_17  and  N_24 
ROOT
HETATM    1  C           1     -21.529  -4.736  -6.687  0.00  0.00     0.278 C 
ENDROOT
BRANCH   1   2
HETATM    2  C           1     -22.048  -5.745  -5.691  0.00  0.00     0.249 C 
HETATM    3  O           1     -23.238  -5.899  -5.551  0.00  0.00    -0.271 OA
HETATM    4  N           1     -21.171  -6.484  -4.945  0.00  0.00    -0.345 N 
HETATM    5  H           1     -20.174  -6.355  -5.062  0.00  0.00     0.163 HD
BRANCH   4   6
HETATM    6  C           1     -21.669  -7.454  -3.988  0.00  0.00     0.186 C 
BRANCH   6   7
HETATM    7  C           1     -20.837  -8.726  -4.075  0.00  0.00     0.046 C 
BRANCH   7   8
HETATM    8  C           1     -21.754  -9.939  -3.989  0.00  0.00     0.076 C 
BRANCH   8   9
HETATM    9  S           1     -21.112 -11.098  -2.748  0.00  0.00    -0.173 SA
HETATM   10  C           1     -19.427 -10.426  -2.702  0.00  0.00     0.089 C 
ENDBRANCH   8   9
ENDBRANCH   7   8
ENDBRANCH   6   7
BRANCH   6  11
HETATM   11  C           1     -21.567  -6.882  -2.595  0.00  0.00     0.196 C 
HETATM   12  O           1     -20.697  -7.310  -1.806  0.00  0.00    -0.646 OA
HETATM   13  O           1     -22.353  -5.981  -2.230  0.00  0.00    -0.646 OA
ENDBRANCH   6  11
ENDBRANCH   4   6
ENDBRANCH   1   2
BRANCH   1  14
HETATM   14  C           1     -21.408  -5.391  -8.057  0.00  0.00     0.081 C 
BRANCH  14  15
HETATM   15  C           1     -22.223  -4.624  -9.050  0.00  0.00    -0.056 A 
HETATM   16  C           1     -23.506  -4.193  -8.716  0.00  0.00     0.007 A 
HETATM   17  C           1     -24.266  -3.477  -9.642  0.00  0.00     0.001 A 
HETATM   18  C           1     -23.740  -3.191 -10.902  0.00  0.00     0.000 A 
HETATM   19  C           1     -22.457  -3.620 -11.236  0.00  0.00     0.001 A 
HETATM   20  C           1     -21.697  -4.337 -10.310  0.00  0.00     0.007 A 
ENDBRANCH  14  15
ENDBRANCH   1  14
BRANCH   1  21
HETATM   21  N           1     -20.181  -4.248  -6.246  0.00  0.00    -0.066 N 
HETATM   22  H           1     -20.247  -3.868  -5.275  0.00  0.00     0.275 HD
HETATM   23  H           1     -19.502  -5.043  -6.263  0.00  0.00     0.275 HD
HETATM   24  H           1     -19.854  -3.496  -6.893  0.00  0.00     0.275 HD
ENDBRANCH   1  21
TORSDOF 9
ENDMDL
MODEL 9
REMARK VINA RESULT:      -6.1      4.077      7.767
REMARK  9 active torsions:
REMARK  status: ('A' for Active; 'I' for Inactive)
REMARK    1  A    between atoms: C_2  and  C_17 
REMARK    2  A    between atoms: C_2  and  C_9 
REMARK    3  A    between atoms: C_2  and  N_7 
REMARK    4  A    between atoms: C_9  and  C_12 
REMARK    5  A    between atoms: C_10  and  S_13 
REMARK    6  A    between atoms: C_10  and  C_14 
REMARK    7  A    between atoms: C_14  and  C_15 
REMARK    8  A    between atoms: C_15  and  C_21 
REMARK    9  A    between atoms: C_15  and  N_24 
REMARK       I    between atoms: C_17  and  N_24 
ROOT
HETATM    1  C           1     -21.167  -5.154  -6.199  0.00  0.00     0.278 C 
ENDROOT
BRANCH   1   2
HETATM    2  C           1     -21.753  -6.271  -5.370  0.00  0.00     0.249 C 
HETATM    3  O           1     -22.895  -6.202  -4.984  0.00  0.00    -0.271 OA
HETATM    4  N           1     -20.989  -7.362  -5.054  0.00  0.00    -0.345 N 
HETATM    5  H           1     -20.031  -7.419  -5.377  0.00  0.00     0.163 HD
BRANCH   4   6
HETATM    6  C           1     -21.551  -8.435  -4.257  0.00  0.00     0.186 C 
BRANCH   6   7
HETATM    7  C           1     -21.151  -9.776  -4.858  0.00  0.00     0.046 C 
BRANCH   7   8
HETATM    8  C           1     -21.951 -10.889  -4.194  0.00  0.00     0.076 C 
BRANCH   8   9
HETATM    9  S           1     -21.530 -12.479  -4.962  0.00  0.00    -0.173 SA
HETATM   10  C           1     -21.526 -11.878  -6.675  0.00  0.00     0.089 C 
ENDBRANCH   8   9
ENDBRANCH   7   8
ENDBRANCH   6   7
BRANCH   6  11
HETATM   11  C           1     -21.026  -8.341  -2.846  0.00  0.00     0.196 C 
HETATM   12  O           1     -19.818  -8.565  -2.612  0.00  0.00    -0.646 OA
HETATM   13  O           1     -21.799  -8.040  -1.910  0.00  0.00    -0.646 OA
ENDBRANCH   6  11
ENDBRANCH   4   6
ENDBRANCH   1   2
BRANCH   1  14
HETATM   14  C           1     -20.577  -5.729  -7.481  0.00  0.00     0.081 C 
BRANCH  14  15
HETATM   15  C           1     -21.049  -4.923  -8.651  0.00  0.00    -0.056 A 
HETATM   16  C           1     -20.176  -4.641  -9.701  0.00  0.00     0.007 A 
HETATM   17  C           1     -20.615  -3.891 -10.793  0.00  0.00     0.001 A 
HETATM   18  C           1     -21.928  -3.423 -10.833  0.00  0.00     0.000 A 
HETATM   19  C           1     -22.802  -3.705  -9.783  0.00  0.00     0.001 A 
HETATM   20  C           1     -22.362  -4.456  -8.692  0.00  0.00     0.007 A 
ENDBRANCH  14  15
ENDBRANCH   1  14
BRANCH   1  21
HETATM   21  N           1     -20.087  -4.466  -5.418  0.00  0.00    -0.066 N 
HETATM   22  H           1     -19.746  -5.101  -4.661  0.00  0.00     0.275 HD
HETATM   23  H           1     -19.294  -4.229  -6.056  0.00  0.00     0.275 HD
HETATM   24  H           1     -20.467  -3.591  -4.994  0.00  0.00     0.275 HD
ENDBRANCH   1  21
TORSDOF 9
ENDMDL
