MODEL 1
REMARK VINA RESULT:      -7.5      0.000      0.000
REMARK  12 active torsions:
REMARK  status: ('A' for Active; 'I' for Inactive)
REMARK    1  A    between atoms: C_2  and  C_3 
REMARK    2  A    between atoms: C_2  and  S_11 
REMARK    3  A    between atoms: C_3  and  C_18 
REMARK    4  A    between atoms: C_5  and  C_26 
REMARK    5  A    between atoms: O_6  and  P_9 
REMARK    6  A    between atoms: P_9  and  O_22 
REMARK    7  A    between atoms: C_12  and  C_25 
REMARK    8  A    between atoms: C_18  and  C_27 
REMARK    9  A    between atoms: C_18  and  N_30 
REMARK   10  A    between atoms: O_22  and  C_29 
REMARK   11  A    between atoms: N_23  and  C_25 
REMARK       I    between atoms: N_23  and  C_27 
REMARK   12  A    between atoms: C_25  and  C_26 
ROOT
HETATM    1  C           1     -32.391  -4.511 -16.323  0.00  0.00     0.189 C 
ENDROOT
BRANCH   1   2
HETATM    2  C           1     -32.383  -3.338 -17.272  0.00  0.00     0.197 C 
HETATM    3  O           1     -31.300  -2.908 -17.726  0.00  0.00    -0.646 OA
HETATM    4  O           1     -33.458  -2.794 -17.604  0.00  0.00    -0.646 OA
ENDBRANCH   1   2
BRANCH   1   5
HETATM    5  N           1     -33.724  -4.680 -15.776  0.00  0.00    -0.344 N 
HETATM    6  H           1     -34.394  -5.272 -16.250  0.00  0.00     0.163 HD
HETATM    7  C           1     -34.074  -4.040 -14.618  0.00  0.00     0.249 C 
HETATM    8  O           1     -34.561  -2.935 -14.663  0.00  0.00    -0.271 OA
BRANCH   7   9
HETATM    9  C           1     -33.851  -4.713 -13.287  0.00  0.00     0.275 C 
BRANCH   9  10
HETATM   10  C           1     -34.778  -4.099 -12.245  0.00  0.00     0.053 C 
BRANCH  10  11
HETATM   11  C           1     -34.021  -3.917 -10.936  0.00  0.00     0.076 C 
BRANCH  11  12
HETATM   12  S           1     -33.893  -2.148 -10.551  0.00  0.00    -0.173 SA
HETATM   13  C           1     -35.344  -1.630 -11.509  0.00  0.00     0.089 C 
ENDBRANCH  11  12
ENDBRANCH  10  11
ENDBRANCH   9  10
BRANCH   9  14
HETATM   14  N           1     -32.426  -4.521 -12.862  0.00  0.00    -0.066 N 
HETATM   15  H           1     -32.087  -3.590 -13.192  0.00  0.00     0.275 HD
HETATM   16  H           1     -32.365  -4.565 -11.820  0.00  0.00     0.275 HD
HETATM   17  H           1     -31.833  -5.275 -13.278  0.00  0.00     0.275 HD
ENDBRANCH   9  14
ENDBRANCH   7   9
ENDBRANCH   1   5
BRANCH   1  18
HETATM   18  C           1     -31.987  -5.773 -17.072  0.00  0.00     0.074 C 
BRANCH  18  19
HETATM   19  C           1     -30.633  -6.216 -16.612  0.00  0.00    -0.056 A 
HETATM   20  C           1     -29.984  -7.266 -17.262  0.00  0.00     0.010 A 
HETATM   21  C           1     -28.723  -7.678 -16.833  0.00  0.00     0.038 A 
HETATM   22  C           1     -28.110  -7.042 -15.754  0.00  0.00     0.081 A 
HETATM   23  C           1     -28.759  -5.992 -15.104  0.00  0.00     0.038 A 
HETATM   24  C           1     -30.020  -5.580 -15.533  0.00  0.00     0.010 A 
BRANCH  22  25
HETATM   25  O           1     -26.885  -7.443 -15.338  0.00  0.00    -0.247 OA
BRANCH  25  26
HETATM   26  P           1     -25.592  -6.717 -15.978  0.00  0.00     0.411 P 
HETATM   27  O           1     -25.991  -5.986 -17.201  0.00  0.00    -0.624 OA
HETATM   28  O           1     -24.575  -7.736 -16.322  0.00  0.00    -0.624 OA
BRANCH  26  29
HETATM   29  O           1     -24.974  -5.678 -14.908  0.00  0.00    -0.300 OA
HETATM   30  H           1     -24.796  -6.194 -14.141  0.00  0.00     0.223 HD
ENDBRANCH  26  29
ENDBRANCH  25  26
ENDBRANCH  22  25
ENDBRANCH  18  19
ENDBRANCH   1  18
TORSDOF 12
ENDMDL
MODEL 2
REMARK VINA RESULT:      -7.1     10.718     13.281
REMARK  12 active torsions:
REMARK  status: ('A' for Active; 'I' for Inactive)
REMARK    1  A    between atoms: C_2  and  C_3 
REMARK    2  A    between atoms: C_2  and  S_11 
REMARK    3  A    between atoms: C_3  and  C_18 
REMARK    4  A    between atoms: C_5  and  C_26 
REMARK    5  A    between atoms: O_6  and  P_9 
REMARK    6  A    between atoms: P_9  and  O_22 
REMARK    7  A    between atoms: C_12  and  C_25 
REMARK    8  A    between atoms: C_18  and  C_27 
REMARK    9  A    between atoms: C_18  and  N_30 
REMARK   10  A    between atoms: O_22  and  C_29 
REMARK   11  A    between atoms: N_23  and  C_25 
REMARK       I    between atoms: N_23  and  C_27 
REMARK   12  A    between atoms: C_25  and  C_26 
ROOT
HETATM    1  C           1     -21.619  -5.570  -6.605  0.00  0.00     0.189 C 
ENDROOT
BRANCH   1   2
HETATM    2  C           1     -20.125  -5.599  -6.396  0.00  0.00     0.197 C 
HETATM    3  O           1     -19.544  -4.611  -5.894  0.00  0.00    -0.646 OA
HETATM    4  O           1     -19.466  -6.609  -6.725  0.00  0.00    -0.646 OA
ENDBRANCH   1   2
BRANCH   1   5
HETATM    5  N           1     -22.287  -5.882  -5.356  0.00  0.00    -0.344 N 
HETATM    6  H           1     -23.221  -5.534  -5.182  0.00  0.00     0.163 HD
HETATM    7  C           1     -21.654  -6.646  -4.414  0.00  0.00     0.249 C 
HETATM    8  O           1     -20.973  -6.118  -3.567  0.00  0.00    -0.271 OA
BRANCH   7   9
HETATM    9  C           1     -21.806  -8.147  -4.432  0.00  0.00     0.275 C 
BRANCH   9  10
HETATM   10  C           1     -21.220  -8.734  -3.155  0.00  0.00     0.053 C 
BRANCH  10  11
HETATM   11  C           1     -22.009  -9.975  -2.757  0.00  0.00     0.076 C 
BRANCH  11  12
HETATM   12  S           1     -22.345  -9.934  -0.974  0.00  0.00    -0.173 SA
HETATM   13  C           1     -22.086  -8.150  -0.763  0.00  0.00     0.089 C 
ENDBRANCH  11  12
ENDBRANCH  10  11
ENDBRANCH   9  10
BRANCH   9  14
HETATM   14  N           1     -21.079  -8.708  -5.618  0.00  0.00    -0.066 N 
HETATM   15  H           1     -21.530  -8.365  -6.497  0.00  0.00     0.275 HD
HETATM   16  H           1     -20.082  -8.397  -5.594  0.00  0.00     0.275 HD
HETATM   17  H           1     -21.120  -9.752  -5.591  0.00  0.00     0.275 HD
ENDBRANCH   9  14
ENDBRANCH   7   9
ENDBRANCH   1   5
BRANCH   1  18
HETATM   18  C           1     -22.040  -4.184  -7.074  0.00  0.00     0.074 C 
BRANCH  18  19
HETATM   19  C           1     -22.485  -4.253  -8.501  0.00  0.00    -0.056 A 
HETATM   20  C           1     -23.838  -4.126  -8.816  0.00  0.00     0.010 A 
HETATM   21  C           1     -24.252  -4.190 -10.147  0.00  0.00     0.038 A 
HETATM   22  C           1     -23.315  -4.382 -11.162  0.00  0.00     0.081 A 
HETATM   23  C           1     -21.963  -4.509 -10.846  0.00  0.00     0.038 A 
HETATM   24  C           1     -21.547  -4.445  -9.516  0.00  0.00     0.010 A 
BRANCH  22  25
HETATM   25  O           1     -23.718  -4.444 -12.453  0.00  0.00    -0.247 OA
BRANCH  25  26
HETATM   26  P           1     -23.846  -3.060 -13.275  0.00  0.00     0.411 P 
HETATM   27  O           1     -22.874  -2.079 -12.743  0.00  0.00    -0.624 OA
HETATM   28  O           1     -25.218  -2.525 -13.127  0.00  0.00    -0.624 OA
BRANCH  26  29
HETATM   29  O           1     -23.538  -3.330 -14.836  0.00  0.00    -0.300 OA
HETATM   30  H           1     -24.236  -2.902 -15.300  0.00  0.00     0.223 HD
ENDBRANCH  26  29
ENDBRANCH  25  26
ENDBRANCH  22  25
ENDBRANCH  18  19
ENDBRANCH   1  18
TORSDOF 12
ENDMDL
MODEL 3
REMARK VINA RESULT:      -7.0     11.953     14.302
REMARK  12 active torsions:
REMARK  status: ('A' for Active; 'I' for Inactive)
REMARK    1  A    between atoms: C_2  and  C_3 
REMARK    2  A    between atoms: C_2  and  S_11 
REMARK    3  A    between atoms: C_3  and  C_18 
REMARK    4  A    between atoms: C_5  and  C_26 
REMARK    5  A    between atoms: O_6  and  P_9 
REMARK    6  A    between atoms: P_9  and  O_22 
REMARK    7  A    between atoms: C_12  and  C_25 
REMARK    8  A    between atoms: C_18  and  C_27 
REMARK    9  A    between atoms: C_18  and  N_30 
REMARK   10  A    between atoms: O_22  and  C_29 
REMARK   11  A    between atoms: N_23  and  C_25 
REMARK       I    between atoms: N_23  and  C_27 
REMARK   12  A    between atoms: C_25  and  C_26 
ROOT
HETATM    1  C           1     -21.756  -6.622  -5.639  0.00  0.00     0.189 C 
ENDROOT
BRANCH   1   2
HETATM    2  C           1     -20.876  -7.847  -5.661  0.00  0.00     0.197 C 
HETATM    3  O           1     -19.633  -7.727  -5.592  0.00  0.00    -0.646 OA
HETATM    4  O           1     -21.389  -8.984  -5.748  0.00  0.00    -0.646 OA
ENDBRANCH   1   2
BRANCH   1   5
HETATM    5  N           1     -22.380  -6.498  -4.336  0.00  0.00    -0.344 N 
HETATM    6  H           1     -23.376  -6.335  -4.265  0.00  0.00     0.163 HD
HETATM    7  C           1     -21.621  -6.602  -3.202  0.00  0.00     0.249 C 
HETATM    8  O           1     -21.118  -5.615  -2.719  0.00  0.00    -0.271 OA
BRANCH   7   9
HETATM    9  C           1     -21.411  -7.949  -2.555  0.00  0.00     0.275 C 
BRANCH   9  10
HETATM   10  C           1     -21.999  -7.936  -1.150  0.00  0.00     0.053 C 
BRANCH  10  11
HETATM   11  C           1     -22.485  -9.333  -0.789  0.00  0.00     0.076 C 
BRANCH  11  12
HETATM   12  S           1     -21.302 -10.112   0.347  0.00  0.00    -0.173 SA
HETATM   13  C           1     -21.085  -8.669   1.427  0.00  0.00     0.089 C 
ENDBRANCH  11  12
ENDBRANCH  10  11
ENDBRANCH   9  10
BRANCH   9  14
HETATM   14  N           1     -19.943  -8.244  -2.479  0.00  0.00    -0.066 N 
HETATM   15  H           1     -19.466  -7.856  -3.324  0.00  0.00     0.275 HD
HETATM   16  H           1     -19.543  -7.803  -1.620  0.00  0.00     0.275 HD
HETATM   17  H           1     -19.796  -9.278  -2.440  0.00  0.00     0.275 HD
ENDBRANCH   9  14
ENDBRANCH   7   9
ENDBRANCH   1   5
BRANCH   1  18
HETATM   18  C           1     -20.913  -5.386  -5.918  0.00  0.00     0.074 C 
BRANCH  18  19
HETATM   19  C           1     -21.293  -4.809  -7.246  0.00  0.00    -0.056 A 
HETATM   20  C           1     -20.379  -4.827  -8.301  0.00  0.00     0.010 A 
HETATM   21  C           1     -20.734  -4.290  -9.539  0.00  0.00     0.038 A 
HETATM   22  C           1     -22.000  -3.734  -9.722  0.00  0.00     0.081 A 
HETATM   23  C           1     -22.912  -3.717  -8.667  0.00  0.00     0.038 A 
HETATM   24  C           1     -22.559  -4.254  -7.430  0.00  0.00     0.010 A 
BRANCH  22  25
HETATM   25  O           1     -22.344  -3.213 -10.924  0.00  0.00    -0.247 OA
BRANCH  25  26
HETATM   26  P           1     -23.601  -3.864 -11.701  0.00  0.00     0.411 P 
HETATM   27  O           1     -24.840  -3.154 -11.316  0.00  0.00    -0.624 OA
HETATM   28  O           1     -23.717  -5.293 -11.338  0.00  0.00    -0.624 OA
BRANCH  26  29
HETATM   29  O           1     -23.377  -3.728 -13.294  0.00  0.00    -0.300 OA
HETATM   30  H           1     -22.948  -4.527 -13.549  0.00  0.00     0.223 HD
ENDBRANCH  26  29
ENDBRANCH  25  26
ENDBRANCH  22  25
ENDBRANCH  18  19
ENDBRANCH   1  18
TORSDOF 12
ENDMDL
MODEL 4
REMARK VINA RESULT:      -6.3     12.446     14.888
REMARK  12 active torsions:
REMARK  status: ('A' for Active; 'I' for Inactive)
REMARK    1  A    between atoms: C_2  and  C_3 
REMARK    2  A    between atoms: C_2  and  S_11 
REMARK    3  A    between atoms: C_3  and  C_18 
REMARK    4  A    between atoms: C_5  and  C_26 
REMARK    5  A    between atoms: O_6  and  P_9 
REMARK    6  A    between atoms: P_9  and  O_22 
REMARK    7  A    between atoms: C_12  and  C_25 
REMARK    8  A    between atoms: C_18  and  C_27 
REMARK    9  A    between atoms: C_18  and  N_30 
REMARK   10  A    between atoms: O_22  and  C_29 
REMARK   11  A    between atoms: N_23  and  C_25 
REMARK       I    between atoms: N_23  and  C_27 
REMARK   12  A    between atoms: C_25  and  C_26 
ROOT
HETATM    1  C           1     -21.168  -6.645  -4.808  0.00  0.00     0.189 C 
ENDROOT
BRANCH   1   2
HETATM    2  C           1     -20.585  -7.859  -5.488  0.00  0.00     0.197 C 
HETATM    3  O           1     -21.326  -8.818  -5.798  0.00  0.00    -0.646 OA
HETATM    4  O           1     -19.362  -7.908  -5.742  0.00  0.00    -0.646 OA
ENDBRANCH   1   2
BRANCH   1   5
HETATM    5  N           1     -21.052  -6.795  -3.370  0.00  0.00    -0.344 N 
HETATM    6  H           1     -21.094  -5.980  -2.771  0.00  0.00     0.163 HD
HETATM    7  C           1     -20.887  -8.038  -2.823  0.00  0.00     0.249 C 
HETATM    8  O           1     -19.775  -8.480  -2.654  0.00  0.00    -0.271 OA
BRANCH   7   9
HETATM    9  C           1     -22.092  -8.858  -2.432  0.00  0.00     0.275 C 
BRANCH   9  10
HETATM   10  C           1     -22.170  -8.954  -0.914  0.00  0.00     0.053 C 
BRANCH  10  11
HETATM   11  C           1     -21.982 -10.404  -0.486  0.00  0.00     0.076 C 
BRANCH  11  12
HETATM   12  S           1     -20.759 -10.487   0.851  0.00  0.00    -0.173 SA
HETATM   13  C           1     -20.985  -8.784   1.435  0.00  0.00     0.089 C 
ENDBRANCH  11  12
ENDBRANCH  10  11
ENDBRANCH   9  10
BRANCH   9  14
HETATM   14  N           1     -21.970 -10.234  -3.014  0.00  0.00    -0.066 N 
HETATM   15  H           1     -22.434 -10.258  -3.950  0.00  0.00     0.275 HD
HETATM   16  H           1     -20.960 -10.479  -3.120  0.00  0.00     0.275 HD
HETATM   17  H           1     -22.432 -10.924  -2.379  0.00  0.00     0.275 HD
ENDBRANCH   9  14
ENDBRANCH   7   9
ENDBRANCH   1   5
BRANCH   1  18
HETATM   18  C           1     -20.410  -5.401  -5.251  0.00  0.00     0.074 C 
BRANCH  18  19
HETATM   19  C           1     -20.994  -4.888  -6.530  0.00  0.00    -0.056 A 
HETATM   20  C           1     -22.378  -4.767  -6.665  0.00  0.00     0.010 A 
HETATM   21  C           1     -22.922  -4.289  -7.857  0.00  0.00     0.038 A 
HETATM   22  C           1     -22.085  -3.934  -8.915  0.00  0.00     0.081 A 
HETATM   23  C           1     -20.702  -4.056  -8.779  0.00  0.00     0.038 A 
HETATM   24  C           1     -20.157  -4.534  -7.588  0.00  0.00     0.010 A 
BRANCH  22  25
HETATM   25  O           1     -22.614  -3.470 -10.072  0.00  0.00    -0.247 OA
BRANCH  25  26
HETATM   26  P           1     -24.211  -3.591 -10.278  0.00  0.00     0.411 P 
HETATM   27  O           1     -24.609  -5.016 -10.225  0.00  0.00    -0.624 OA
HETATM   28  O           1     -24.583  -3.024 -11.593  0.00  0.00    -0.624 OA
BRANCH  26  29
HETATM   29  O           1     -24.968  -2.779  -9.106  0.00  0.00    -0.300 OA
HETATM   30  H           1     -24.434  -2.018  -8.953  0.00  0.00     0.223 HD
ENDBRANCH  26  29
ENDBRANCH  25  26
ENDBRANCH  22  25
ENDBRANCH  18  19
ENDBRANCH   1  18
TORSDOF 12
ENDMDL
MODEL 5
REMARK VINA RESULT:      -6.1     12.883     15.239
REMARK  12 active torsions:
REMARK  status: ('A' for Active; 'I' for Inactive)
REMARK    1  A    between atoms: C_2  and  C_3 
REMARK    2  A    between atoms: C_2  and  S_11 
REMARK    3  A    between atoms: C_3  and  C_18 
REMARK    4  A    between atoms: C_5  and  C_26 
REMARK    5  A    between atoms: O_6  and  P_9 
REMARK    6  A    between atoms: P_9  and  O_22 
REMARK    7  A    between atoms: C_12  and  C_25 
REMARK    8  A    between atoms: C_18  and  C_27 
REMARK    9  A    between atoms: C_18  and  N_30 
REMARK   10  A    between atoms: O_22  and  C_29 
REMARK   11  A    between atoms: N_23  and  C_25 
REMARK       I    between atoms: N_23  and  C_27 
REMARK   12  A    between atoms: C_25  and  C_26 
ROOT
HETATM    1  C           1     -21.101  -7.051  -5.967  0.00  0.00     0.189 C 
ENDROOT
BRANCH   1   2
HETATM    2  C           1     -21.827  -6.179  -4.972  0.00  0.00     0.197 C 
HETATM    3  O           1     -23.072  -6.069  -5.027  0.00  0.00    -0.646 OA
HETATM    4  O           1     -21.185  -5.566  -4.092  0.00  0.00    -0.646 OA
ENDBRANCH   1   2
BRANCH   1   5
HETATM    5  N           1     -20.622  -6.234  -7.065  0.00  0.00    -0.344 N 
HETATM    6  H           1     -19.864  -6.565  -7.649  0.00  0.00     0.163 HD
HETATM    7  C           1     -21.196  -5.016  -7.313  0.00  0.00     0.249 C 
HETATM    8  O           1     -20.757  -4.024  -6.782  0.00  0.00    -0.271 OA
BRANCH   7   9
HETATM    9  C           1     -22.376  -4.913  -8.248  0.00  0.00     0.275 C 
BRANCH   9  10
HETATM   10  C           1     -21.976  -4.122  -9.486  0.00  0.00     0.053 C 
BRANCH  10  11
HETATM   11  C           1     -23.193  -3.927 -10.380  0.00  0.00     0.076 C 
BRANCH  11  12
HETATM   12  S           1     -22.730  -2.936 -11.828  0.00  0.00    -0.173 SA
HETATM   13  C           1     -24.362  -2.967 -12.621  0.00  0.00     0.089 C 
ENDBRANCH  11  12
ENDBRANCH  10  11
ENDBRANCH   9  10
BRANCH   9  14
HETATM   14  N           1     -23.505  -4.215  -7.552  0.00  0.00    -0.066 N 
HETATM   15  H           1     -23.302  -3.191  -7.501  0.00  0.00     0.275 HD
HETATM   16  H           1     -24.390  -4.368  -8.085  0.00  0.00     0.275 HD
HETATM   17  H           1     -23.609  -4.597  -6.585  0.00  0.00     0.275 HD
ENDBRANCH   9  14
ENDBRANCH   7   9
ENDBRANCH   1   5
BRANCH   1  18
HETATM   18  C           1     -19.921  -7.727  -5.284  0.00  0.00     0.074 C 
BRANCH  18  19
HETATM   19  C           1     -20.422  -8.745  -4.308  0.00  0.00    -0.056 A 
HETATM   20  C           1     -19.753  -8.941  -3.100  0.00  0.00     0.010 A 
HETATM   21  C           1     -20.221  -9.890  -2.190  0.00  0.00     0.038 A 
HETATM   22  C           1     -21.356 -10.644  -2.489  0.00  0.00     0.081 A 
HETATM   23  C           1     -22.024 -10.447  -3.698  0.00  0.00     0.038 A 
HETATM   24  C           1     -21.557  -9.499  -4.607  0.00  0.00     0.010 A 
BRANCH  22  25
HETATM   25  O           1     -21.809 -11.565  -1.606  0.00  0.00    -0.247 OA
BRANCH  25  26
HETATM   26  P           1     -22.451 -11.036  -0.221  0.00  0.00     0.411 P 
HETATM   27  O           1     -21.396 -10.957   0.813  0.00  0.00    -0.624 OA
HETATM   28  O           1     -23.506 -11.974   0.222  0.00  0.00    -0.624 OA
BRANCH  26  29
HETATM   29  O           1     -23.091  -9.572  -0.450  0.00  0.00    -0.300 OA
HETATM   30  H           1     -23.621  -9.416   0.313  0.00  0.00     0.223 HD
ENDBRANCH  26  29
ENDBRANCH  25  26
ENDBRANCH  22  25
ENDBRANCH  18  19
ENDBRANCH   1  18
TORSDOF 12
ENDMDL
MODEL 6
REMARK VINA RESULT:      -5.9     13.741     16.395
REMARK  12 active torsions:
REMARK  status: ('A' for Active; 'I' for Inactive)
REMARK    1  A    between atoms: C_2  and  C_3 
REMARK    2  A    between atoms: C_2  and  S_11 
REMARK    3  A    between atoms: C_3  and  C_18 
REMARK    4  A    between atoms: C_5  and  C_26 
REMARK    5  A    between atoms: O_6  and  P_9 
REMARK    6  A    between atoms: P_9  and  O_22 
REMARK    7  A    between atoms: C_12  and  C_25 
REMARK    8  A    between atoms: C_18  and  C_27 
REMARK    9  A    between atoms: C_18  and  N_30 
REMARK   10  A    between atoms: O_22  and  C_29 
REMARK   11  A    between atoms: N_23  and  C_25 
REMARK       I    between atoms: N_23  and  C_27 
REMARK   12  A    between atoms: C_25  and  C_26 
ROOT
HETATM    1  C           1     -21.401  -7.398  -1.423  0.00  0.00     0.189 C 
ENDROOT
BRANCH   1   2
HETATM    2  C           1     -22.037  -7.764  -0.105  0.00  0.00     0.197 C 
HETATM    3  O           1     -23.257  -7.560   0.080  0.00  0.00    -0.646 OA
HETATM    4  O           1     -21.345  -8.272   0.804  0.00  0.00    -0.646 OA
ENDBRANCH   1   2
BRANCH   1   5
HETATM    5  N           1     -21.312  -8.578  -2.261  0.00  0.00    -0.344 N 
HETATM    6  H           1     -22.124  -8.896  -2.774  0.00  0.00     0.163 HD
HETATM    7  C           1     -20.130  -9.260  -2.359  0.00  0.00     0.249 C 
HETATM    8  O           1     -19.887 -10.159  -1.590  0.00  0.00    -0.271 OA
BRANCH   7   9
HETATM    9  C           1     -19.130  -8.889  -3.427  0.00  0.00     0.275 C 
BRANCH   9  10
HETATM   10  C           1     -19.671  -9.292  -4.792  0.00  0.00     0.053 C 
BRANCH  10  11
HETATM   11  C           1     -18.612 -10.089  -5.543  0.00  0.00     0.076 C 
BRANCH  11  12
HETATM   12  S           1     -19.264 -11.734  -5.947  0.00  0.00    -0.173 SA
HETATM   13  C           1     -21.010 -11.241  -6.029  0.00  0.00     0.089 C 
ENDBRANCH  11  12
ENDBRANCH  10  11
ENDBRANCH   9  10
BRANCH   9  14
HETATM   14  N           1     -17.837  -9.604  -3.171  0.00  0.00    -0.066 N 
HETATM   15  H           1     -18.016 -10.631  -3.098  0.00  0.00     0.275 HD
HETATM   16  H           1     -17.176  -9.420  -3.959  0.00  0.00     0.275 HD
HETATM   17  H           1     -17.419  -9.259  -2.277  0.00  0.00     0.275 HD
ENDBRANCH   9  14
ENDBRANCH   7   9
ENDBRANCH   1   5
BRANCH   1  18
HETATM   18  C           1     -22.248  -6.342  -2.120  0.00  0.00     0.074 C 
BRANCH  18  19
HETATM   19  C           1     -21.820  -6.221  -3.549  0.00  0.00    -0.056 A 
HETATM   20  C           1     -22.573  -6.824  -4.556  0.00  0.00     0.010 A 
HETATM   21  C           1     -22.174  -6.710  -5.888  0.00  0.00     0.038 A 
HETATM   22  C           1     -21.021  -5.996  -6.213  0.00  0.00     0.081 A 
HETATM   23  C           1     -20.268  -5.393  -5.205  0.00  0.00     0.038 A 
HETATM   24  C           1     -20.667  -5.506  -3.874  0.00  0.00     0.010 A 
BRANCH  22  25
HETATM   25  O           1     -20.634  -5.886  -7.506  0.00  0.00    -0.247 OA
BRANCH  25  26
HETATM   26  P           1     -20.821  -4.457  -8.235  0.00  0.00     0.411 P 
HETATM   27  O           1     -21.246  -4.669  -9.636  0.00  0.00    -0.624 OA
HETATM   28  O           1     -19.536  -3.723  -8.216  0.00  0.00    -0.624 OA
BRANCH  26  29
HETATM   29  O           1     -21.944  -3.599  -7.456  0.00  0.00    -0.300 OA
HETATM   30  H           1     -22.017  -4.004  -6.609  0.00  0.00     0.223 HD
ENDBRANCH  26  29
ENDBRANCH  25  26
ENDBRANCH  22  25
ENDBRANCH  18  19
ENDBRANCH   1  18
TORSDOF 12
ENDMDL
MODEL 7
REMARK VINA RESULT:      -5.9     13.715     16.083
REMARK  12 active torsions:
REMARK  status: ('A' for Active; 'I' for Inactive)
REMARK    1  A    between atoms: C_2  and  C_3 
REMARK    2  A    between atoms: C_2  and  S_11 
REMARK    3  A    between atoms: C_3  and  C_18 
REMARK    4  A    between atoms: C_5  and  C_26 
REMARK    5  A    between atoms: O_6  and  P_9 
REMARK    6  A    between atoms: P_9  and  O_22 
REMARK    7  A    between atoms: C_12  and  C_25 
REMARK    8  A    between atoms: C_18  and  C_27 
REMARK    9  A    between atoms: C_18  and  N_30 
REMARK   10  A    between atoms: O_22  and  C_29 
REMARK   11  A    between atoms: N_23  and  C_25 
REMARK       I    between atoms: N_23  and  C_27 
REMARK   12  A    between atoms: C_25  and  C_26 
ROOT
HETATM    1  C           1     -21.408  -7.770  -2.306  0.00  0.00     0.189 C 
ENDROOT
BRANCH   1   2
HETATM    2  C           1     -22.245  -7.693  -1.052  0.00  0.00     0.197 C 
HETATM    3  O           1     -22.484  -8.729  -0.395  0.00  0.00    -0.646 OA
HETATM    4  O           1     -22.701  -6.593  -0.672  0.00  0.00    -0.646 OA
ENDBRANCH   1   2
BRANCH   1   5
HETATM    5  N           1     -21.379  -6.470  -2.947  0.00  0.00    -0.344 N 
HETATM    6  H           1     -21.157  -5.643  -2.407  0.00  0.00     0.163 HD
HETATM    7  C           1     -21.651  -6.360  -4.284  0.00  0.00     0.249 C 
HETATM    8  O           1     -22.787  -6.182  -4.656  0.00  0.00    -0.271 OA
BRANCH   7   9
HETATM    9  C           1     -20.535  -6.464  -5.294  0.00  0.00     0.275 C 
BRANCH   9  10
HETATM   10  C           1     -20.426  -5.157  -6.067  0.00  0.00     0.053 C 
BRANCH  10  11
HETATM   11  C           1     -20.879  -5.377  -7.505  0.00  0.00     0.076 C 
BRANCH  11  12
HETATM   12  S           1     -22.300  -4.307  -7.864  0.00  0.00    -0.173 SA
HETATM   13  C           1     -22.076  -4.277  -9.665  0.00  0.00     0.089 C 
ENDBRANCH  11  12
ENDBRANCH  10  11
ENDBRANCH   9  10
BRANCH   9  14
HETATM   14  N           1     -20.824  -7.585  -6.246  0.00  0.00    -0.066 N 
HETATM   15  H           1     -21.758  -7.999  -6.023  0.00  0.00     0.275 HD
HETATM   16  H           1     -20.830  -7.218  -7.224  0.00  0.00     0.275 HD
HETATM   17  H           1     -20.087  -8.321  -6.154  0.00  0.00     0.275 HD
ENDBRANCH   9  14
ENDBRANCH   7   9
ENDBRANCH   1   5
BRANCH   1  18
HETATM   18  C           1     -19.990  -8.189  -1.945  0.00  0.00     0.074 C 
BRANCH  18  19
HETATM   19  C           1     -19.565  -9.326  -2.821  0.00  0.00    -0.056 A 
HETATM   20  C           1     -18.212  -9.527  -3.095  0.00  0.00     0.010 A 
HETATM   21  C           1     -17.817 -10.587  -3.912  0.00  0.00     0.038 A 
HETATM   22  C           1     -18.774 -11.444  -4.456  0.00  0.00     0.081 A 
HETATM   23  C           1     -20.126 -11.241  -4.181  0.00  0.00     0.038 A 
HETATM   24  C           1     -20.522 -10.183  -3.365  0.00  0.00     0.010 A 
BRANCH  22  25
HETATM   25  O           1     -18.390 -12.473  -5.249  0.00  0.00    -0.247 OA
BRANCH  25  26
HETATM   26  P           1     -18.596 -12.319  -6.843  0.00  0.00     0.411 P 
HETATM   27  O           1     -18.654 -10.884  -7.197  0.00  0.00    -0.624 OA
HETATM   28  O           1     -19.861 -12.976  -7.241  0.00  0.00    -0.624 OA
BRANCH  26  29
HETATM   29  O           1     -17.361 -13.014  -7.615  0.00  0.00    -0.300 OA
HETATM   30  H           1     -17.537 -13.938  -7.575  0.00  0.00     0.223 HD
ENDBRANCH  26  29
ENDBRANCH  25  26
ENDBRANCH  22  25
ENDBRANCH  18  19
ENDBRANCH   1  18
TORSDOF 12
ENDMDL
MODEL 8
REMARK VINA RESULT:      -5.9     12.539     15.008
REMARK  12 active torsions:
REMARK  status: ('A' for Active; 'I' for Inactive)
REMARK    1  A    between atoms: C_2  and  C_3 
REMARK    2  A    between atoms: C_2  and  S_11 
REMARK    3  A    between atoms: C_3  and  C_18 
REMARK    4  A    between atoms: C_5  and  C_26 
REMARK    5  A    between atoms: O_6  and  P_9 
REMARK    6  A    between atoms: P_9  and  O_22 
REMARK    7  A    between atoms: C_12  and  C_25 
REMARK    8  A    between atoms: C_18  and  C_27 
REMARK    9  A    between atoms: C_18  and  N_30 
REMARK   10  A    between atoms: O_22  and  C_29 
REMARK   11  A    between atoms: N_23  and  C_25 
REMARK       I    between atoms: N_23  and  C_27 
REMARK   12  A    between atoms: C_25  and  C_26 
ROOT
HETATM    1  C           1     -21.545  -7.577  -4.919  0.00  0.00     0.189 C 
ENDROOT
BRANCH   1   2
HETATM    2  C           1     -20.637  -8.613  -5.534  0.00  0.00     0.197 C 
HETATM    3  O           1     -21.106  -9.705  -5.922  0.00  0.00    -0.646 OA
HETATM    4  O           1     -19.415  -8.380  -5.656  0.00  0.00    -0.646 OA
ENDBRANCH   1   2
BRANCH   1   5
HETATM    5  N           1     -21.951  -8.014  -3.597  0.00  0.00    -0.344 N 
HETATM    6  H           1     -22.924  -8.214  -3.407  0.00  0.00     0.163 HD
HETATM    7  C           1     -21.016  -8.159  -2.608  0.00  0.00     0.249 C 
HETATM    8  O           1     -20.752  -7.227  -1.886  0.00  0.00    -0.271 OA
BRANCH   7   9
HETATM    9  C           1     -20.316  -9.482  -2.418  0.00  0.00     0.275 C 
BRANCH   9  10
HETATM   10  C           1     -20.552  -9.984  -0.999  0.00  0.00     0.053 C 
BRANCH  10  11
HETATM   11  C           1     -21.291 -11.314  -1.047  0.00  0.00     0.076 C 
BRANCH  11  12
HETATM   12  S           1     -23.070 -11.013  -1.246  0.00  0.00    -0.173 SA
HETATM   13  C           1     -23.183  -9.675  -0.024  0.00  0.00     0.089 C 
ENDBRANCH  11  12
ENDBRANCH  10  11
ENDBRANCH   9  10
BRANCH   9  14
HETATM   14  N           1     -18.845  -9.306  -2.647  0.00  0.00    -0.066 N 
HETATM   15  H           1     -18.322 -10.068  -2.159  0.00  0.00     0.275 HD
HETATM   16  H           1     -18.645  -9.348  -3.672  0.00  0.00     0.275 HD
HETATM   17  H           1     -18.541  -8.379  -2.271  0.00  0.00     0.275 HD
ENDBRANCH   9  14
ENDBRANCH   7   9
ENDBRANCH   1   5
BRANCH   1  18
HETATM   18  C           1     -20.803  -6.252  -4.809  0.00  0.00     0.074 C 
BRANCH  18  19
HETATM   19  C           1     -21.038  -5.442  -6.046  0.00  0.00    -0.056 A 
HETATM   20  C           1     -22.337  -5.256  -6.520  0.00  0.00     0.010 A 
HETATM   21  C           1     -22.557  -4.502  -7.673  0.00  0.00     0.038 A 
HETATM   22  C           1     -21.479  -3.935  -8.352  0.00  0.00     0.081 A 
HETATM   23  C           1     -20.180  -4.122  -7.878  0.00  0.00     0.038 A 
HETATM   24  C           1     -19.960  -4.876  -6.725  0.00  0.00     0.010 A 
BRANCH  22  25
HETATM   25  O           1     -21.692  -3.203  -9.472  0.00  0.00    -0.247 OA
BRANCH  25  26
HETATM   26  P           1     -21.627  -3.960 -10.897  0.00  0.00     0.411 P 
HETATM   27  O           1     -22.829  -4.808 -11.060  0.00  0.00    -0.624 OA
HETATM   28  O           1     -20.415  -4.807 -10.950  0.00  0.00    -0.624 OA
BRANCH  26  29
HETATM   29  O           1     -21.575  -2.868 -12.084  0.00  0.00    -0.300 OA
HETATM   30  H           1     -21.701  -3.362 -12.876  0.00  0.00     0.223 HD
ENDBRANCH  26  29
ENDBRANCH  25  26
ENDBRANCH  22  25
ENDBRANCH  18  19
ENDBRANCH   1  18
TORSDOF 12
ENDMDL
MODEL 9
REMARK VINA RESULT:      -5.8     15.045     17.056
REMARK  12 active torsions:
REMARK  status: ('A' for Active; 'I' for Inactive)
REMARK    1  A    between atoms: C_2  and  C_3 
REMARK    2  A    between atoms: C_2  and  S_11 
REMARK    3  A    between atoms: C_3  and  C_18 
REMARK    4  A    between atoms: C_5  and  C_26 
REMARK    5  A    between atoms: O_6  and  P_9 
REMARK    6  A    between atoms: P_9  and  O_22 
REMARK    7  A    between atoms: C_12  and  C_25 
REMARK    8  A    between atoms: C_18  and  C_27 
REMARK    9  A    between atoms: C_18  and  N_30 
REMARK   10  A    between atoms: O_22  and  C_29 
REMARK   11  A    between atoms: N_23  and  C_25 
REMARK       I    between atoms: N_23  and  C_27 
REMARK   12  A    between atoms: C_25  and  C_26 
ROOT
HETATM    1  C           1     -20.544  -7.373  -4.497  0.00  0.00     0.189 C 
ENDROOT
BRANCH   1   2
HETATM    2  C           1     -20.611  -6.326  -5.582  0.00  0.00     0.197 C 
HETATM    3  O           1     -20.767  -6.669  -6.774  0.00  0.00    -0.646 OA
HETATM    4  O           1     -20.508  -5.115  -5.289  0.00  0.00    -0.646 OA
ENDBRANCH   1   2
BRANCH   1   5
HETATM    5  N           1     -21.778  -7.358  -3.736  0.00  0.00    -0.344 N 
HETATM    6  H           1     -22.632  -7.709  -4.150  0.00  0.00     0.163 HD
HETATM    7  C           1     -21.787  -6.871  -2.457  0.00  0.00     0.249 C 
HETATM    8  O           1     -22.007  -5.699  -2.260  0.00  0.00    -0.271 OA
BRANCH   7   9
HETATM    9  C           1     -21.523  -7.795  -1.295  0.00  0.00     0.275 C 
BRANCH   9  10
HETATM   10  C           1     -21.927  -9.215  -1.672  0.00  0.00     0.053 C 
BRANCH  10  11
HETATM   11  C           1     -22.714  -9.840  -0.528  0.00  0.00     0.076 C 
BRANCH  11  12
HETATM   12  S           1     -23.666 -11.255  -1.149  0.00  0.00    -0.173 SA
HETATM   13  C           1     -23.457 -12.297   0.323  0.00  0.00     0.089 C 
ENDBRANCH  11  12
ENDBRANCH  10  11
ENDBRANCH   9  10
BRANCH   9  14
HETATM   14  N           1     -22.323  -7.347  -0.108  0.00  0.00    -0.066 N 
HETATM   15  H           1     -22.893  -6.511  -0.369  0.00  0.00     0.275 HD
HETATM   16  H           1     -22.956  -8.120   0.197  0.00  0.00     0.275 HD
HETATM   17  H           1     -21.676  -7.097   0.674  0.00  0.00     0.275 HD
ENDBRANCH   9  14
ENDBRANCH   7   9
ENDBRANCH   1   5
BRANCH   1  18
HETATM   18  C           1     -20.352  -8.745  -5.127  0.00  0.00     0.074 C 
BRANCH  18  19
HETATM   19  C           1     -18.966  -9.235  -4.847  0.00  0.00    -0.056 A 
HETATM   20  C           1     -18.101  -9.522  -5.904  0.00  0.00     0.010 A 
HETATM   21  C           1     -16.809  -9.979  -5.643  0.00  0.00     0.038 A 
HETATM   22  C           1     -16.381 -10.149  -4.327  0.00  0.00     0.081 A 
HETATM   23  C           1     -17.246  -9.862  -3.271  0.00  0.00     0.038 A 
HETATM   24  C           1     -18.538  -9.405  -3.531  0.00  0.00     0.010 A 
BRANCH  22  25
HETATM   25  O           1     -15.127 -10.592  -4.074  0.00  0.00    -0.247 OA
BRANCH  25  26
HETATM   26  P           1     -14.769 -12.119  -4.461  0.00  0.00     0.411 P 
HETATM   27  O           1     -14.268 -12.170  -5.852  0.00  0.00    -0.624 OA
HETATM   28  O           1     -15.985 -12.954  -4.344  0.00  0.00    -0.624 OA
BRANCH  26  29
HETATM   29  O           1     -13.633 -12.676  -3.459  0.00  0.00    -0.300 OA
HETATM   30  H           1     -12.969 -12.008  -3.447  0.00  0.00     0.223 HD
ENDBRANCH  26  29
ENDBRANCH  25  26
ENDBRANCH  22  25
ENDBRANCH  18  19
ENDBRANCH   1  18
TORSDOF 12
ENDMDL
