MODEL 1
REMARK VINA RESULT:      -8.7      0.000      0.000
REMARK  8 active torsions:
REMARK  status: ('A' for Active; 'I' for Inactive)
REMARK    1  A    between atoms: C_3  and  C_25 
REMARK    2  A    between atoms: C_3  and  C_11 
REMARK    3  A    between atoms: C_5  and  C_30 
REMARK    4  A    between atoms: N_6  and  C_25 
REMARK    5  A    between atoms: N_15  and  C_31 
REMARK       I    between atoms: N_15  and  C_24 
REMARK    6  A    between atoms: C_24  and  C_25 
REMARK    7  A    between atoms: C_26  and  C_31 
REMARK    8  A    between atoms: C_30  and  C_31 
ROOT
HETATM    1  H           1     -22.803  -5.649  -8.158  0.00  0.00     0.163 HD
HETATM    2  N           1     -22.306  -4.780  -8.303  0.00  0.00    -0.344 N 
HETATM    3  O           1     -20.665  -3.408  -7.659  0.00  0.00    -0.271 OA
HETATM    4  C           1     -21.259  -4.445  -7.486  0.00  0.00     0.249 C 
ENDROOT
BRANCH   4   5
HETATM    5  C           1     -20.848  -5.372  -6.369  0.00  0.00     0.278 C 
BRANCH   5   6
HETATM    6  C           1     -22.090  -5.924  -5.682  0.00  0.00     0.083 C 
BRANCH   6   7
HETATM    7  C           1     -21.709  -7.082  -4.815  0.00  0.00    -0.028 A 
HETATM    8  C           1     -21.797  -7.132  -3.396  0.00  0.00    -0.002 A 
HETATM    9  C           1     -22.220  -6.223  -2.408  0.00  0.00     0.014 A 
HETATM   10  C           1     -21.342  -8.390  -3.000  0.00  0.00     0.042 A 
HETATM   11  C           1     -22.175  -6.604  -1.062  0.00  0.00     0.001 A 
HETATM   12  C           1     -21.716  -7.867  -0.695  0.00  0.00     0.002 A 
HETATM   13  C           1     -21.289  -8.787  -1.658  0.00  0.00     0.030 A 
HETATM   14  N           1     -20.993  -9.072  -4.144  0.00  0.00    -0.365 N 
HETATM   15  H           1     -20.614 -10.051  -4.167  0.00  0.00     0.165 HD
HETATM   16  C           1     -21.211  -8.290  -5.247  0.00  0.00     0.096 A 
ENDBRANCH   6   7
ENDBRANCH   5   6
BRANCH   5  17
HETATM   17  N           1     -20.019  -4.617  -5.373  0.00  0.00    -0.066 N 
HETATM   18  H           1     -20.446  -4.710  -4.423  0.00  0.00     0.275 HD
HETATM   19  H           1     -19.051  -5.008  -5.358  0.00  0.00     0.275 HD
HETATM   20  H           1     -19.985  -3.608  -5.642  0.00  0.00     0.275 HD
ENDBRANCH   5  17
ENDBRANCH   4   5
BRANCH   2  21
HETATM   21  C           1     -22.701  -3.889  -9.377  0.00  0.00     0.191 C 
BRANCH  21  22
HETATM   22  C           1     -24.202  -3.913  -9.525  0.00  0.00     0.197 C 
HETATM   23  O           1     -24.860  -2.860  -9.386  0.00  0.00    -0.646 OA
HETATM   24  O           1     -24.787  -4.986  -9.787  0.00  0.00    -0.646 OA
ENDBRANCH  21  22
BRANCH  21  25
HETATM   25  C           1     -22.055  -4.346 -10.679  0.00  0.00     0.094 C 
BRANCH  25  26
HETATM   26  C           1     -22.751  -3.699 -11.835  0.00  0.00     0.028 A 
HETATM   27  C           1     -22.639  -2.372 -12.172  0.00  0.00     0.114 A 
HETATM   28  N           1     -23.431  -2.217 -13.276  0.00  0.00    -0.360 N 
HETATM   29  C           1     -23.981  -3.434 -13.559  0.00  0.00     0.180 A 
HETATM   30  H           1     -23.588  -1.325 -13.808  0.00  0.00     0.166 HD
HETATM   31  N           1     -23.588  -4.351 -12.705  0.00  0.00    -0.354 N 
ATOM     32  HN          1     -23.848  -5.337 -12.692  1.00  0.00     0.166 HD
ENDBRANCH  25  26
ENDBRANCH  21  25
ENDBRANCH   2  21
TORSDOF 8
ENDMDL
MODEL 2
REMARK VINA RESULT:      -8.6      2.704      8.404
REMARK  8 active torsions:
REMARK  status: ('A' for Active; 'I' for Inactive)
REMARK    1  A    between atoms: C_3  and  C_25 
REMARK    2  A    between atoms: C_3  and  C_11 
REMARK    3  A    between atoms: C_5  and  C_30 
REMARK    4  A    between atoms: N_6  and  C_25 
REMARK    5  A    between atoms: N_15  and  C_31 
REMARK       I    between atoms: N_15  and  C_24 
REMARK    6  A    between atoms: C_24  and  C_25 
REMARK    7  A    between atoms: C_26  and  C_31 
REMARK    8  A    between atoms: C_30  and  C_31 
ROOT
HETATM    1  H           1     -19.976  -7.126  -7.106  0.00  0.00     0.163 HD
HETATM    2  N           1     -20.037  -6.719  -6.182  0.00  0.00    -0.344 N 
HETATM    3  O           1     -20.140  -4.872  -4.930  0.00  0.00    -0.271 OA
HETATM    4  C           1     -20.067  -5.359  -6.033  0.00  0.00     0.249 C 
ENDROOT
BRANCH   4   5
HETATM    5  C           1     -20.010  -4.466  -7.248  0.00  0.00     0.278 C 
BRANCH   5   6
HETATM    6  C           1     -20.624  -5.189  -8.440  0.00  0.00     0.083 C 
BRANCH   6   7
HETATM    7  C           1     -21.965  -4.599  -8.746  0.00  0.00    -0.028 A 
HETATM    8  C           1     -22.413  -4.151 -10.019  0.00  0.00    -0.002 A 
HETATM    9  C           1     -21.833  -4.102 -11.301  0.00  0.00     0.014 A 
HETATM   10  C           1     -23.715  -3.677  -9.853  0.00  0.00     0.042 A 
HETATM   11  C           1     -22.574  -3.584 -12.369  0.00  0.00     0.001 A 
HETATM   12  C           1     -23.872  -3.118 -12.174  0.00  0.00     0.002 A 
HETATM   13  C           1     -24.470  -3.155 -10.910  0.00  0.00     0.030 A 
HETATM   14  N           1     -24.037  -3.836  -8.524  0.00  0.00    -0.365 N 
HETATM   15  H           1     -24.956  -3.569  -8.092  0.00  0.00     0.165 HD
HETATM   16  C           1     -22.985  -4.393  -7.845  0.00  0.00     0.096 A 
ENDBRANCH   6   7
ENDBRANCH   5   6
BRANCH   5  17
HETATM   17  N           1     -18.581  -4.127  -7.552  0.00  0.00    -0.066 N 
HETATM   18  H           1     -17.972  -4.443  -6.764  0.00  0.00     0.275 HD
HETATM   19  H           1     -18.289  -4.607  -8.432  0.00  0.00     0.275 HD
HETATM   20  H           1     -18.486  -3.092  -7.671  0.00  0.00     0.275 HD
ENDBRANCH   5  17
ENDBRANCH   4   5
BRANCH   2  21
HETATM   21  C           1     -20.093  -7.577  -5.014  0.00  0.00     0.191 C 
BRANCH  21  22
HETATM   22  C           1     -19.429  -8.896  -5.325  0.00  0.00     0.197 C 
HETATM   23  O           1     -18.567  -8.964  -6.228  0.00  0.00    -0.646 OA
HETATM   24  O           1     -19.741  -9.920  -4.681  0.00  0.00    -0.646 OA
ENDBRANCH  21  22
BRANCH  21  25
HETATM   25  C           1     -21.547  -7.819  -4.631  0.00  0.00     0.094 C 
BRANCH  25  26
HETATM   26  C           1     -21.765  -7.408  -3.209  0.00  0.00     0.028 A 
HETATM   27  C           1     -21.575  -8.226  -2.121  0.00  0.00     0.114 A 
HETATM   28  N           1     -21.885  -7.452  -1.037  0.00  0.00    -0.360 N 
HETATM   29  C           1     -22.245  -6.220  -1.502  0.00  0.00     0.180 A 
HETATM   30  H           1     -21.854  -7.752  -0.031  0.00  0.00     0.166 HD
HETATM   31  N           1     -22.181  -6.163  -2.812  0.00  0.00    -0.354 N 
ATOM     32  HN          1     -22.394  -5.363  -3.408  1.00  0.00     0.166 HD
ENDBRANCH  25  26
ENDBRANCH  21  25
ENDBRANCH   2  21
TORSDOF 8
ENDMDL
MODEL 3
REMARK VINA RESULT:      -7.9      3.515      8.712
REMARK  8 active torsions:
REMARK  status: ('A' for Active; 'I' for Inactive)
REMARK    1  A    between atoms: C_3  and  C_25 
REMARK    2  A    between atoms: C_3  and  C_11 
REMARK    3  A    between atoms: C_5  and  C_30 
REMARK    4  A    between atoms: N_6  and  C_25 
REMARK    5  A    between atoms: N_15  and  C_31 
REMARK       I    between atoms: N_15  and  C_24 
REMARK    6  A    between atoms: C_24  and  C_25 
REMARK    7  A    between atoms: C_26  and  C_31 
REMARK    8  A    between atoms: C_30  and  C_31 
ROOT
HETATM    1  H           1     -21.999  -8.830  -4.673  0.00  0.00     0.163 HD
HETATM    2  N           1     -21.087  -8.728  -5.096  0.00  0.00    -0.344 N 
HETATM    3  O           1     -19.628  -7.408  -6.155  0.00  0.00    -0.271 OA
HETATM    4  C           1     -20.718  -7.531  -5.649  0.00  0.00     0.249 C 
ENDROOT
BRANCH   4   5
HETATM    5  C           1     -21.675  -6.364  -5.626  0.00  0.00     0.278 C 
BRANCH   5   6
HETATM    6  C           1     -21.036  -5.169  -6.321  0.00  0.00     0.083 C 
BRANCH   6   7
HETATM    7  C           1     -21.957  -4.658  -7.384  0.00  0.00    -0.028 A 
HETATM    8  C           1     -21.599  -4.346  -8.725  0.00  0.00    -0.002 A 
HETATM    9  C           1     -20.396  -4.396  -9.455  0.00  0.00     0.014 A 
HETATM   10  C           1     -22.756  -3.905  -9.368  0.00  0.00     0.042 A 
HETATM   11  C           1     -20.393  -4.005 -10.799  0.00  0.00     0.001 A 
HETATM   12  C           1     -21.564  -3.569 -11.415  0.00  0.00     0.002 A 
HETATM   13  C           1     -22.772  -3.510 -10.711  0.00  0.00     0.030 A 
HETATM   14  N           1     -23.774  -3.951  -8.443  0.00  0.00    -0.365 N 
HETATM   15  H           1     -24.771  -3.678  -8.632  0.00  0.00     0.165 HD
HETATM   16  C           1     -23.302  -4.405  -7.240  0.00  0.00     0.096 A 
ENDBRANCH   6   7
ENDBRANCH   5   6
BRANCH   5  17
HETATM   17  N           1     -21.990  -6.005  -4.205  0.00  0.00    -0.066 N 
HETATM   18  H           1     -21.102  -5.918  -3.661  0.00  0.00     0.275 HD
HETATM   19  H           1     -22.503  -5.095  -4.181  0.00  0.00     0.275 HD
HETATM   20  H           1     -22.585  -6.752  -3.780  0.00  0.00     0.275 HD
ENDBRANCH   5  17
ENDBRANCH   4   5
BRANCH   2  21
HETATM   21  C           1     -20.167  -9.849  -5.118  0.00  0.00     0.191 C 
BRANCH  21  22
HETATM   22  C           1     -20.897 -11.091  -5.568  0.00  0.00     0.197 C 
HETATM   23  O           1     -21.324 -11.174  -6.740  0.00  0.00    -0.646 OA
HETATM   24  O           1     -21.076 -12.035  -4.769  0.00  0.00    -0.646 OA
ENDBRANCH  21  22
BRANCH  21  25
HETATM   25  C           1     -19.604 -10.071  -3.719  0.00  0.00     0.094 C 
BRANCH  25  26
HETATM   26  C           1     -18.120  -9.883  -3.743  0.00  0.00     0.028 A 
HETATM   27  C           1     -17.335 -10.001  -4.865  0.00  0.00     0.114 A 
HETATM   28  N           1     -16.061  -9.752  -4.434  0.00  0.00    -0.360 N 
HETATM   29  C           1     -16.124  -9.498  -3.094  0.00  0.00     0.180 A 
HETATM   30  H           1     -15.194  -9.756  -5.026  0.00  0.00     0.166 HD
HETATM   31  N           1     -17.356  -9.570  -2.648  0.00  0.00    -0.354 N 
ATOM     32  HN          1     -17.677  -9.423  -1.691  1.00  0.00     0.166 HD
ENDBRANCH  25  26
ENDBRANCH  21  25
ENDBRANCH   2  21
TORSDOF 8
ENDMDL
MODEL 4
REMARK VINA RESULT:      -7.8      2.715      8.842
REMARK  8 active torsions:
REMARK  status: ('A' for Active; 'I' for Inactive)
REMARK    1  A    between atoms: C_3  and  C_25 
REMARK    2  A    between atoms: C_3  and  C_11 
REMARK    3  A    between atoms: C_5  and  C_30 
REMARK    4  A    between atoms: N_6  and  C_25 
REMARK    5  A    between atoms: N_15  and  C_31 
REMARK       I    between atoms: N_15  and  C_24 
REMARK    6  A    between atoms: C_24  and  C_25 
REMARK    7  A    between atoms: C_26  and  C_31 
REMARK    8  A    between atoms: C_30  and  C_31 
ROOT
HETATM    1  H           1     -21.668  -8.148  -6.127  0.00  0.00     0.163 HD
HETATM    2  N           1     -21.294  -7.590  -5.371  0.00  0.00    -0.344 N 
HETATM    3  O           1     -21.003  -5.563  -4.479  0.00  0.00    -0.271 OA
HETATM    4  C           1     -21.449  -6.229  -5.382  0.00  0.00     0.249 C 
ENDROOT
BRANCH   4   5
HETATM    5  C           1     -22.179  -5.563  -6.522  0.00  0.00     0.278 C 
BRANCH   5   6
HETATM    6  C           1     -21.430  -4.305  -6.939  0.00  0.00     0.083 C 
BRANCH   6   7
HETATM    7  C           1     -21.255  -4.296  -8.425  0.00  0.00    -0.028 A 
HETATM    8  C           1     -22.258  -3.991  -9.387  0.00  0.00    -0.002 A 
HETATM    9  C           1     -23.616  -3.630  -9.304  0.00  0.00     0.014 A 
HETATM   10  C           1     -21.668  -4.103 -10.646  0.00  0.00     0.042 A 
HETATM   11  C           1     -24.334  -3.393 -10.482  0.00  0.00     0.001 A 
HETATM   12  C           1     -23.719  -3.512 -11.726  0.00  0.00     0.002 A 
HETATM   13  C           1     -22.371  -3.870 -11.834  0.00  0.00     0.030 A 
HETATM   14  N           1     -20.354  -4.463 -10.447  0.00  0.00    -0.365 N 
HETATM   15  H           1     -19.652  -4.624 -11.211  0.00  0.00     0.165 HD
HETATM   16  C           1     -20.094  -4.583  -9.107  0.00  0.00     0.096 A 
ENDBRANCH   6   7
ENDBRANCH   5   6
BRANCH   5  17
HETATM   17  N           1     -23.565  -5.196  -6.082  0.00  0.00    -0.066 N 
HETATM   18  H           1     -24.264  -5.683  -6.687  0.00  0.00     0.275 HD
HETATM   19  H           1     -23.703  -5.487  -5.088  0.00  0.00     0.275 HD
HETATM   20  H           1     -23.694  -4.162  -6.164  0.00  0.00     0.275 HD
ENDBRANCH   5  17
ENDBRANCH   4   5
BRANCH   2  21
HETATM   21  C           1     -20.593  -8.230  -4.275  0.00  0.00     0.191 C 
BRANCH  21  22
HETATM   22  C           1     -19.461  -9.066  -4.820  0.00  0.00     0.197 C 
HETATM   23  O           1     -18.357  -9.081  -4.233  0.00  0.00    -0.646 OA
HETATM   24  O           1     -19.626  -9.741  -5.858  0.00  0.00    -0.646 OA
ENDBRANCH  21  22
BRANCH  21  25
HETATM   25  C           1     -21.559  -9.125  -3.508  0.00  0.00     0.094 C 
BRANCH  25  26
HETATM   26  C           1     -21.528  -8.765  -2.056  0.00  0.00     0.028 A 
HETATM   27  C           1     -21.873  -7.536  -1.547  0.00  0.00     0.114 A 
HETATM   28  N           1     -21.699  -7.650  -0.196  0.00  0.00    -0.360 N 
HETATM   29  C           1     -21.263  -8.919   0.056  0.00  0.00     0.180 A 
HETATM   30  H           1     -21.869  -6.898   0.517  0.00  0.00     0.166 HD
HETATM   31  N           1     -21.150  -9.617  -1.050  0.00  0.00    -0.354 N 
ATOM     32  HN          1     -20.847 -10.587  -1.141  1.00  0.00     0.166 HD
ENDBRANCH  25  26
ENDBRANCH  21  25
ENDBRANCH   2  21
TORSDOF 8
ENDMDL
MODEL 5
REMARK VINA RESULT:      -7.8      2.758      8.460
REMARK  8 active torsions:
REMARK  status: ('A' for Active; 'I' for Inactive)
REMARK    1  A    between atoms: C_3  and  C_25 
REMARK    2  A    between atoms: C_3  and  C_11 
REMARK    3  A    between atoms: C_5  and  C_30 
REMARK    4  A    between atoms: N_6  and  C_25 
REMARK    5  A    between atoms: N_15  and  C_31 
REMARK       I    between atoms: N_15  and  C_24 
REMARK    6  A    between atoms: C_24  and  C_25 
REMARK    7  A    between atoms: C_26  and  C_31 
REMARK    8  A    between atoms: C_30  and  C_31 
ROOT
HETATM    1  H           1     -20.259  -5.728  -3.504  0.00  0.00     0.163 HD
HETATM    2  N           1     -20.873  -6.435  -3.886  0.00  0.00    -0.344 N 
HETATM    3  O           1     -21.652  -7.487  -5.696  0.00  0.00    -0.271 OA
HETATM    4  C           1     -20.919  -6.643  -5.239  0.00  0.00     0.249 C 
ENDROOT
BRANCH   4   5
HETATM    5  C           1     -20.053  -5.818  -6.158  0.00  0.00     0.278 C 
BRANCH   5   6
HETATM    6  C           1     -20.586  -4.392  -6.216  0.00  0.00     0.083 C 
BRANCH   6   7
HETATM    7  C           1     -21.669  -4.304  -7.244  0.00  0.00    -0.028 A 
HETATM    8  C           1     -21.488  -4.067  -8.635  0.00  0.00    -0.002 A 
HETATM    9  C           1     -20.363  -3.854  -9.454  0.00  0.00     0.014 A 
HETATM   10  C           1     -22.754  -4.063  -9.220  0.00  0.00     0.042 A 
HETATM   11  C           1     -20.544  -3.646 -10.826  0.00  0.00     0.001 A 
HETATM   12  C           1     -21.821  -3.648 -11.383  0.00  0.00     0.002 A 
HETATM   13  C           1     -22.954  -3.856 -10.590  0.00  0.00     0.030 A 
HETATM   14  N           1     -23.665  -4.290  -8.213  0.00  0.00    -0.365 N 
HETATM   15  H           1     -24.706  -4.343  -8.344  0.00  0.00     0.165 HD
HETATM   16  C           1     -23.020  -4.437  -7.014  0.00  0.00     0.096 A 
ENDBRANCH   6   7
ENDBRANCH   5   6
BRANCH   5  17
HETATM   17  N           1     -20.075  -6.415  -7.534  0.00  0.00    -0.066 N 
HETATM   18  H           1     -20.012  -5.653  -8.246  0.00  0.00     0.275 HD
HETATM   19  H           1     -19.263  -7.062  -7.645  0.00  0.00     0.275 HD
HETATM   20  H           1     -20.965  -6.945  -7.670  0.00  0.00     0.275 HD
ENDBRANCH   5  17
ENDBRANCH   4   5
BRANCH   2  21
HETATM   21  C           1     -21.705  -7.229  -3.002  0.00  0.00     0.191 C 
BRANCH  21  22
HETATM   22  C           1     -22.152  -6.382  -1.836  0.00  0.00     0.197 C 
HETATM   23  O           1     -22.751  -6.910  -0.875  0.00  0.00    -0.646 OA
HETATM   24  O           1     -21.925  -5.153  -1.832  0.00  0.00    -0.646 OA
ENDBRANCH  21  22
BRANCH  21  25
HETATM   25  C           1     -20.906  -8.419  -2.487  0.00  0.00     0.094 C 
BRANCH  25  26
HETATM   26  C           1     -21.652  -9.684  -2.777  0.00  0.00     0.028 A 
HETATM   27  C           1     -22.208 -10.500  -1.821  0.00  0.00     0.114 A 
HETATM   28  N           1     -22.782 -11.525  -2.520  0.00  0.00    -0.360 N 
HETATM   29  C           1     -22.556 -11.294  -3.847  0.00  0.00     0.180 A 
HETATM   30  H           1     -23.302 -12.341  -2.111  0.00  0.00     0.166 HD
HETATM   31  N           1     -21.875 -10.187  -4.033  0.00  0.00    -0.354 N 
ATOM     32  HN          1     -21.576  -9.787  -4.922  1.00  0.00     0.166 HD
ENDBRANCH  25  26
ENDBRANCH  21  25
ENDBRANCH   2  21
TORSDOF 8
ENDMDL
MODEL 6
REMARK VINA RESULT:      -7.6      3.150      8.849
REMARK  8 active torsions:
REMARK  status: ('A' for Active; 'I' for Inactive)
REMARK    1  A    between atoms: C_3  and  C_25 
REMARK    2  A    between atoms: C_3  and  C_11 
REMARK    3  A    between atoms: C_5  and  C_30 
REMARK    4  A    between atoms: N_6  and  C_25 
REMARK    5  A    between atoms: N_15  and  C_31 
REMARK       I    between atoms: N_15  and  C_24 
REMARK    6  A    between atoms: C_24  and  C_25 
REMARK    7  A    between atoms: C_26  and  C_31 
REMARK    8  A    between atoms: C_30  and  C_31 
ROOT
HETATM    1  H           1     -21.912  -8.577  -4.078  0.00  0.00     0.163 HD
HETATM    2  N           1     -21.031  -8.608  -4.574  0.00  0.00    -0.344 N 
HETATM    3  O           1     -19.660  -7.655  -6.057  0.00  0.00    -0.271 OA
HETATM    4  C           1     -20.712  -7.619  -5.465  0.00  0.00     0.249 C 
ENDROOT
BRANCH   4   5
HETATM    5  C           1     -21.674  -6.482  -5.706  0.00  0.00     0.278 C 
BRANCH   5   6
HETATM    6  C           1     -20.958  -5.357  -6.442  0.00  0.00     0.083 C 
BRANCH   6   7
HETATM    7  C           1     -21.877  -4.762  -7.462  0.00  0.00    -0.028 A 
HETATM    8  C           1     -21.544  -4.444  -8.808  0.00  0.00    -0.002 A 
HETATM    9  C           1     -20.372  -4.558  -9.579  0.00  0.00     0.014 A 
HETATM   10  C           1     -22.689  -3.913  -9.400  0.00  0.00     0.042 A 
HETATM   11  C           1     -20.388  -4.138 -10.914  0.00  0.00     0.001 A 
HETATM   12  C           1     -21.546  -3.612 -11.481  0.00  0.00     0.002 A 
HETATM   13  C           1     -22.723  -3.488 -10.734  0.00  0.00     0.030 A 
HETATM   14  N           1     -23.677  -3.912  -8.442  0.00  0.00    -0.365 N 
HETATM   15  H           1     -24.659  -3.569  -8.591  0.00  0.00     0.165 HD
HETATM   16  C           1     -23.197  -4.423  -7.266  0.00  0.00     0.096 A 
ENDBRANCH   6   7
ENDBRANCH   5   6
BRANCH   5  17
HETATM   17  N           1     -22.186  -5.973  -4.391  0.00  0.00    -0.066 N 
HETATM   18  H           1     -23.210  -6.166  -4.317  0.00  0.00     0.275 HD
HETATM   19  H           1     -21.684  -6.455  -3.613  0.00  0.00     0.275 HD
HETATM   20  H           1     -22.021  -4.942  -4.329  0.00  0.00     0.275 HD
ENDBRANCH   5  17
ENDBRANCH   4   5
BRANCH   2  21
HETATM   21  C           1     -20.106  -9.701  -4.342  0.00  0.00     0.191 C 
BRANCH  21  22
HETATM   22  C           1     -20.841 -11.015  -4.449  0.00  0.00     0.197 C 
HETATM   23  O           1     -22.090 -11.032  -4.454  0.00  0.00    -0.646 OA
HETATM   24  O           1     -20.200 -12.084  -4.530  0.00  0.00    -0.646 OA
ENDBRANCH  21  22
BRANCH  21  25
HETATM   25  C           1     -19.504  -9.568  -2.948  0.00  0.00     0.094 C 
BRANCH  25  26
HETATM   26  C           1     -20.563  -9.128  -1.987  0.00  0.00     0.028 A 
HETATM   27  C           1     -20.685  -7.853  -1.489  0.00  0.00     0.114 A 
HETATM   28  N           1     -21.771  -7.898  -0.660  0.00  0.00    -0.360 N 
HETATM   29  C           1     -22.255  -9.174  -0.687  0.00  0.00     0.180 A 
HETATM   30  H           1     -22.161  -7.097  -0.103  0.00  0.00     0.166 HD
HETATM   31  N           1     -21.545  -9.941  -1.482  0.00  0.00    -0.354 N 
ATOM     32  HN          1     -21.692 -10.930  -1.681  1.00  0.00     0.166 HD
ENDBRANCH  25  26
ENDBRANCH  21  25
ENDBRANCH   2  21
TORSDOF 8
ENDMDL
MODEL 7
REMARK VINA RESULT:      -7.6      1.214      1.971
REMARK  8 active torsions:
REMARK  status: ('A' for Active; 'I' for Inactive)
REMARK    1  A    between atoms: C_3  and  C_25 
REMARK    2  A    between atoms: C_3  and  C_11 
REMARK    3  A    between atoms: C_5  and  C_30 
REMARK    4  A    between atoms: N_6  and  C_25 
REMARK    5  A    between atoms: N_15  and  C_31 
REMARK       I    between atoms: N_15  and  C_24 
REMARK    6  A    between atoms: C_24  and  C_25 
REMARK    7  A    between atoms: C_26  and  C_31 
REMARK    8  A    between atoms: C_30  and  C_31 
ROOT
HETATM    1  H           1     -22.674  -5.648  -8.219  0.00  0.00     0.163 HD
HETATM    2  N           1     -22.126  -4.850  -8.512  0.00  0.00    -0.344 N 
HETATM    3  O           1     -20.274  -3.629  -8.255  0.00  0.00    -0.271 OA
HETATM    4  C           1     -20.928  -4.581  -7.906  0.00  0.00     0.249 C 
ENDROOT
BRANCH   4   5
HETATM    5  C           1     -20.425  -5.478  -6.801  0.00  0.00     0.278 C 
BRANCH   5   6
HETATM    6  C           1     -21.520  -6.459  -6.403  0.00  0.00     0.083 C 
BRANCH   6   7
HETATM    7  C           1     -21.288  -6.925  -5.001  0.00  0.00    -0.028 A 
HETATM    8  C           1     -20.314  -7.874  -4.582  0.00  0.00    -0.002 A 
HETATM    9  C           1     -19.332  -8.629  -5.251  0.00  0.00     0.014 A 
HETATM   10  C           1     -20.444  -8.014  -3.200  0.00  0.00     0.042 A 
HETATM   11  C           1     -18.515  -9.495  -4.514  0.00  0.00     0.001 A 
HETATM   12  C           1     -18.667  -9.615  -3.135  0.00  0.00     0.002 A 
HETATM   13  C           1     -19.636  -8.875  -2.448  0.00  0.00     0.030 A 
HETATM   14  N           1     -21.462  -7.177  -2.803  0.00  0.00    -0.365 N 
HETATM   15  H           1     -21.794  -7.063  -1.813  0.00  0.00     0.165 HD
HETATM   16  C           1     -21.980  -6.514  -3.884  0.00  0.00     0.096 A 
ENDBRANCH   6   7
ENDBRANCH   5   6
BRANCH   5  17
HETATM   17  N           1     -20.047  -4.643  -5.614  0.00  0.00    -0.066 N 
HETATM   18  H           1     -20.244  -5.175  -4.736  0.00  0.00     0.275 HD
HETATM   19  H           1     -19.029  -4.413  -5.660  0.00  0.00     0.275 HD
HETATM   20  H           1     -20.605  -3.759  -5.618  0.00  0.00     0.275 HD
ENDBRANCH   5  17
ENDBRANCH   4   5
BRANCH   2  21
HETATM   21  C           1     -22.610  -3.989  -9.574  0.00  0.00     0.191 C 
BRANCH  21  22
HETATM   22  C           1     -24.119  -3.980  -9.569  0.00  0.00     0.197 C 
HETATM   23  O           1     -24.736  -2.915  -9.352  0.00  0.00    -0.646 OA
HETATM   24  O           1     -24.751  -5.037  -9.780  0.00  0.00    -0.646 OA
ENDBRANCH  21  22
BRANCH  21  25
HETATM   25  C           1     -22.111  -4.509 -10.916  0.00  0.00     0.094 C 
BRANCH  25  26
HETATM   26  C           1     -22.729  -3.713 -12.022  0.00  0.00     0.028 A 
HETATM   27  C           1     -22.607  -2.352 -12.168  0.00  0.00     0.114 A 
HETATM   28  N           1     -23.319  -2.051 -13.295  0.00  0.00    -0.360 N 
HETATM   29  C           1     -23.835  -3.219 -13.779  0.00  0.00     0.180 A 
HETATM   30  H           1     -23.447  -1.095 -13.712  0.00  0.00     0.166 HD
HETATM   31  N           1     -23.494  -4.242 -13.030  0.00  0.00    -0.354 N 
ATOM     32  HN          1     -23.745  -5.221 -13.168  1.00  0.00     0.166 HD
ENDBRANCH  25  26
ENDBRANCH  21  25
ENDBRANCH   2  21
TORSDOF 8
ENDMDL
MODEL 8
REMARK VINA RESULT:      -7.4      2.584      4.454
REMARK  8 active torsions:
REMARK  status: ('A' for Active; 'I' for Inactive)
REMARK    1  A    between atoms: C_3  and  C_25 
REMARK    2  A    between atoms: C_3  and  C_11 
REMARK    3  A    between atoms: C_5  and  C_30 
REMARK    4  A    between atoms: N_6  and  C_25 
REMARK    5  A    between atoms: N_15  and  C_31 
REMARK       I    between atoms: N_15  and  C_24 
REMARK    6  A    between atoms: C_24  and  C_25 
REMARK    7  A    between atoms: C_26  and  C_31 
REMARK    8  A    between atoms: C_30  and  C_31 
ROOT
HETATM    1  H           1     -22.188  -3.966 -11.899  0.00  0.00     0.163 HD
HETATM    2  N           1     -23.165  -3.713 -11.962  0.00  0.00    -0.344 N 
HETATM    3  O           1     -25.056  -3.182 -10.897  0.00  0.00    -0.271 OA
HETATM    4  C           1     -23.889  -3.484 -10.823  0.00  0.00     0.249 C 
ENDROOT
BRANCH   4   5
HETATM    5  C           1     -23.227  -3.607  -9.472  0.00  0.00     0.278 C 
BRANCH   5   6
HETATM    6  C           1     -22.329  -4.837  -9.456  0.00  0.00     0.083 C 
BRANCH   6   7
HETATM    7  C           1     -21.318  -4.705  -8.360  0.00  0.00    -0.028 A 
HETATM    8  C           1     -21.452  -5.196  -7.032  0.00  0.00    -0.002 A 
HETATM    9  C           1     -22.458  -5.899  -6.344  0.00  0.00     0.014 A 
HETATM   10  C           1     -20.284  -4.855  -6.349  0.00  0.00     0.042 A 
HETATM   11  C           1     -22.261  -6.237  -5.000  0.00  0.00     0.001 A 
HETATM   12  C           1     -21.085  -5.884  -4.343  0.00  0.00     0.002 A 
HETATM   13  C           1     -20.070  -5.184  -5.005  0.00  0.00     0.030 A 
HETATM   14  N           1     -19.477  -4.182  -7.238  0.00  0.00    -0.365 N 
HETATM   15  H           1     -18.525  -3.798  -7.014  0.00  0.00     0.165 HD
HETATM   16  C           1     -20.093  -4.086  -8.458  0.00  0.00     0.096 A 
ENDBRANCH   6   7
ENDBRANCH   5   6
BRANCH   5  17
HETATM   17  N           1     -24.278  -3.742  -8.411  0.00  0.00    -0.066 N 
HETATM   18  H           1     -24.700  -2.806  -8.216  0.00  0.00     0.275 HD
HETATM   19  H           1     -25.022  -4.397  -8.740  0.00  0.00     0.275 HD
HETATM   20  H           1     -23.845  -4.117  -7.536  0.00  0.00     0.275 HD
ENDBRANCH   5  17
ENDBRANCH   4   5
BRANCH   2  21
HETATM   21  C           1     -23.801  -3.594 -13.260  0.00  0.00     0.191 C 
BRANCH  21  22
HETATM   22  C           1     -24.216  -4.961 -13.746  0.00  0.00     0.197 C 
HETATM   23  O           1     -24.699  -5.097 -14.890  0.00  0.00    -0.646 OA
HETATM   24  O           1     -24.077  -5.956 -13.004  0.00  0.00    -0.646 OA
ENDBRANCH  21  22
BRANCH  21  25
HETATM   25  C           1     -22.820  -2.980 -14.251  0.00  0.00     0.094 C 
BRANCH  25  26
HETATM   26  C           1     -23.381  -1.697 -14.779  0.00  0.00     0.028 A 
HETATM   27  C           1     -24.512  -1.082 -14.299  0.00  0.00     0.114 A 
HETATM   28  N           1     -24.654   0.045 -15.061  0.00  0.00    -0.360 N 
HETATM   29  C           1     -23.624   0.067 -15.956  0.00  0.00     0.180 A 
HETATM   30  H           1     -25.417   0.761 -14.973  0.00  0.00     0.166 HD
HETATM   31  N           1     -22.836  -0.974 -15.810  0.00  0.00    -0.354 N 
ATOM     32  HN          1     -21.999  -1.196 -16.347  1.00  0.00     0.166 HD
ENDBRANCH  25  26
ENDBRANCH  21  25
ENDBRANCH   2  21
TORSDOF 8
ENDMDL
MODEL 9
REMARK VINA RESULT:      -7.3      3.366      8.754
REMARK  8 active torsions:
REMARK  status: ('A' for Active; 'I' for Inactive)
REMARK    1  A    between atoms: C_3  and  C_25 
REMARK    2  A    between atoms: C_3  and  C_11 
REMARK    3  A    between atoms: C_5  and  C_30 
REMARK    4  A    between atoms: N_6  and  C_25 
REMARK    5  A    between atoms: N_15  and  C_31 
REMARK       I    between atoms: N_15  and  C_24 
REMARK    6  A    between atoms: C_24  and  C_25 
REMARK    7  A    between atoms: C_26  and  C_31 
REMARK    8  A    between atoms: C_30  and  C_31 
ROOT
HETATM    1  H           1     -20.564  -8.895  -6.504  0.00  0.00     0.163 HD
HETATM    2  N           1     -20.344  -8.677  -5.541  0.00  0.00    -0.344 N 
HETATM    3  O           1     -20.629  -7.308  -3.799  0.00  0.00    -0.271 OA
HETATM    4  C           1     -20.890  -7.570  -4.949  0.00  0.00     0.249 C 
ENDROOT
BRANCH   4   5
HETATM    5  C           1     -21.821  -6.677  -5.732  0.00  0.00     0.278 C 
BRANCH   5   6
HETATM    6  C           1     -21.051  -5.470  -6.251  0.00  0.00     0.083 C 
BRANCH   6   7
HETATM    7  C           1     -21.825  -4.818  -7.353  0.00  0.00    -0.028 A 
HETATM    8  C           1     -21.357  -4.567  -8.673  0.00  0.00    -0.002 A 
HETATM    9  C           1     -20.144  -4.810  -9.344  0.00  0.00     0.014 A 
HETATM   10  C           1     -22.396  -3.947  -9.366  0.00  0.00     0.042 A 
HETATM   11  C           1     -20.014  -4.425 -10.684  0.00  0.00     0.001 A 
HETATM   12  C           1     -21.069  -3.807 -11.352  0.00  0.00     0.002 A 
HETATM   13  C           1     -22.283  -3.555 -10.706  0.00  0.00     0.030 A 
HETATM   14  N           1     -23.453  -3.829  -8.492  0.00  0.00    -0.365 N 
HETATM   15  H           1     -24.382  -3.400  -8.726  0.00  0.00     0.165 HD
HETATM   16  C           1     -23.118  -4.353  -7.271  0.00  0.00     0.096 A 
ENDBRANCH   6   7
ENDBRANCH   5   6
BRANCH   5  17
HETATM   17  N           1     -22.936  -6.214  -4.843  0.00  0.00    -0.066 N 
HETATM   18  H           1     -23.591  -5.610  -5.390  0.00  0.00     0.275 HD
HETATM   19  H           1     -23.453  -7.042  -4.473  0.00  0.00     0.275 HD
HETATM   20  H           1     -22.540  -5.664  -4.046  0.00  0.00     0.275 HD
ENDBRANCH   5  17
ENDBRANCH   4   5
BRANCH   2  21
HETATM   21  C           1     -19.451  -9.535  -4.788  0.00  0.00     0.191 C 
BRANCH  21  22
HETATM   22  C           1     -18.147  -9.683  -5.533  0.00  0.00     0.197 C 
HETATM   23  O           1     -17.997  -9.132  -6.645  0.00  0.00    -0.646 OA
HETATM   24  O           1     -17.218 -10.357  -5.039  0.00  0.00    -0.646 OA
ENDBRANCH  21  22
BRANCH  21  25
HETATM   25  C           1     -20.092 -10.906  -4.612  0.00  0.00     0.094 C 
BRANCH  25  26
HETATM   26  C           1     -21.148 -10.830  -3.555  0.00  0.00     0.028 A 
HETATM   27  C           1     -22.371 -11.453  -3.626  0.00  0.00     0.114 A 
HETATM   28  N           1     -23.008 -11.120  -2.463  0.00  0.00    -0.360 N 
HETATM   29  C           1     -22.162 -10.323  -1.746  0.00  0.00     0.180 A 
HETATM   30  H           1     -23.972 -11.421  -2.174  0.00  0.00     0.166 HD
HETATM   31  N           1     -21.029 -10.130  -2.381  0.00  0.00    -0.354 N 
ATOM     32  HN          1     -20.230  -9.579  -2.068  1.00  0.00     0.166 HD
ENDBRANCH  25  26
ENDBRANCH  21  25
ENDBRANCH   2  21
TORSDOF 8
ENDMDL
