MODEL 1
REMARK VINA RESULT:      -5.3      0.000      0.000
REMARK  9 active torsions:
REMARK  status: ('A' for Active; 'I' for Inactive)
REMARK    1  A    between atoms: S_1  and  C_6 
REMARK    2  A    between atoms: N_5  and  C_9 
REMARK    3  A    between atoms: C_6  and  C_8 
REMARK    4  A    between atoms: C_8  and  C_9 
REMARK    5  A    between atoms: C_9  and  C_10 
REMARK       I    between atoms: C_10  and  N_18 
REMARK    6  A    between atoms: C_15  and  C_20 
REMARK    7  A    between atoms: S_17  and  C_19 
REMARK    8  A    between atoms: N_18  and  C_20 
REMARK    9  A    between atoms: C_19  and  C_20 
ROOT
HETATM    1  C           1     -21.736  -4.691  -7.720  0.00  0.00     0.249 C 
HETATM    2  O           1     -21.671  -3.591  -7.224  0.00  0.00    -0.271 OA
HETATM    3  H           1     -22.356  -5.773  -9.372  0.00  0.00     0.163 HD
HETATM    4  N           1     -22.302  -4.852  -8.956  0.00  0.00    -0.344 N 
ENDROOT
BRANCH   1   5
HETATM    5  C           1     -21.194  -5.886  -6.976  0.00  0.00     0.275 C 
BRANCH   5   6
HETATM    6  N           1     -19.807  -6.189  -7.462  0.00  0.00    -0.066 N 
HETATM    7  H           1     -19.796  -7.125  -7.924  0.00  0.00     0.275 HD
HETATM    8  H           1     -19.147  -6.192  -6.651  0.00  0.00     0.275 HD
HETATM    9  H           1     -19.511  -5.458  -8.148  0.00  0.00     0.275 HD
ENDBRANCH   5   6
BRANCH   5  10
HETATM   10  C           1     -21.153  -5.582  -5.484  0.00  0.00     0.053 C 
BRANCH  10  11
HETATM   11  C           1     -22.099  -6.522  -4.748  0.00  0.00     0.076 C 
BRANCH  11  12
HETATM   12  S           1     -21.259  -7.210  -3.294  0.00  0.00    -0.173 SA
HETATM   13  C           1     -22.139  -6.207  -2.063  0.00  0.00     0.089 C 
ENDBRANCH  11  12
ENDBRANCH  10  11
ENDBRANCH   5  10
ENDBRANCH   1   5
BRANCH   4  14
HETATM   14  C           1     -22.823  -3.703  -9.670  0.00  0.00     0.194 C 
BRANCH  14  15
HETATM   15  C           1     -24.329  -3.781  -9.717  0.00  0.00     0.197 C 
HETATM   16  O           1     -25.014  -2.749  -9.545  0.00  0.00    -0.646 OA
HETATM   17  O           1     -24.892  -4.878  -9.928  0.00  0.00    -0.646 OA
ENDBRANCH  14  15
BRANCH  14  18
HETATM   18  C           1     -22.270  -3.695 -11.090  0.00  0.00     0.106 C 
BRANCH  18  19
HETATM   19  S           1     -20.464  -3.866 -11.036  0.00  0.00    -0.180 SA
HETATM   20  H           1     -20.366  -3.917  -9.696  0.00  0.00     0.101 HD
ENDBRANCH  18  19
ENDBRANCH  14  18
ENDBRANCH   4  14
TORSDOF 9
ENDMDL
MODEL 2
REMARK VINA RESULT:      -4.9      2.198      6.349
REMARK  9 active torsions:
REMARK  status: ('A' for Active; 'I' for Inactive)
REMARK    1  A    between atoms: S_1  and  C_6 
REMARK    2  A    between atoms: N_5  and  C_9 
REMARK    3  A    between atoms: C_6  and  C_8 
REMARK    4  A    between atoms: C_8  and  C_9 
REMARK    5  A    between atoms: C_9  and  C_10 
REMARK       I    between atoms: C_10  and  N_18 
REMARK    6  A    between atoms: C_15  and  C_20 
REMARK    7  A    between atoms: S_17  and  C_19 
REMARK    8  A    between atoms: N_18  and  C_20 
REMARK    9  A    between atoms: C_19  and  C_20 
ROOT
HETATM    1  C           1     -22.430  -4.181  -8.199  0.00  0.00     0.249 C 
HETATM    2  O           1     -21.679  -3.319  -8.590  0.00  0.00    -0.271 OA
HETATM    3  H           1     -22.738  -5.641  -6.764  0.00  0.00     0.163 HD
HETATM    4  N           1     -22.108  -4.920  -7.093  0.00  0.00    -0.344 N 
ENDROOT
BRANCH   1   5
HETATM    5  C           1     -23.725  -4.440  -8.930  0.00  0.00     0.275 C 
BRANCH   5   6
HETATM    6  N           1     -24.553  -3.190  -8.937  0.00  0.00    -0.066 N 
HETATM    7  H           1     -23.977  -2.392  -9.285  0.00  0.00     0.275 HD
HETATM    8  H           1     -24.883  -2.985  -7.967  0.00  0.00     0.275 HD
HETATM    9  H           1     -25.379  -3.322  -9.564  0.00  0.00     0.275 HD
ENDBRANCH   5   6
BRANCH   5  10
HETATM   10  C           1     -23.425  -4.858 -10.363  0.00  0.00     0.053 C 
BRANCH  10  11
HETATM   11  C           1     -23.872  -3.758 -11.317  0.00  0.00     0.076 C 
BRANCH  11  12
HETATM   12  S           1     -22.421  -3.044 -12.140  0.00  0.00    -0.173 SA
HETATM   13  C           1     -23.206  -2.808 -13.759  0.00  0.00     0.089 C 
ENDBRANCH  11  12
ENDBRANCH  10  11
ENDBRANCH   5  10
ENDBRANCH   1   5
BRANCH   4  14
HETATM   14  C           1     -20.863  -4.670  -6.391  0.00  0.00     0.194 C 
BRANCH  14  15
HETATM   15  C           1     -19.712  -5.216  -7.200  0.00  0.00     0.197 C 
HETATM   16  O           1     -19.722  -6.409  -7.572  0.00  0.00    -0.646 OA
HETATM   17  O           1     -18.750  -4.475  -7.496  0.00  0.00    -0.646 OA
ENDBRANCH  14  15
BRANCH  14  18
HETATM   18  C           1     -20.902  -5.356  -5.032  0.00  0.00     0.106 C 
BRANCH  18  19
HETATM   19  S           1     -22.198  -6.627  -5.032  0.00  0.00    -0.180 SA
HETATM   20  H           1     -21.638  -7.400  -4.085  0.00  0.00     0.101 HD
ENDBRANCH  18  19
ENDBRANCH  14  18
ENDBRANCH   4  14
TORSDOF 9
ENDMDL
MODEL 3
REMARK VINA RESULT:      -4.8      2.802      6.558
REMARK  9 active torsions:
REMARK  status: ('A' for Active; 'I' for Inactive)
REMARK    1  A    between atoms: S_1  and  C_6 
REMARK    2  A    between atoms: N_5  and  C_9 
REMARK    3  A    between atoms: C_6  and  C_8 
REMARK    4  A    between atoms: C_8  and  C_9 
REMARK    5  A    between atoms: C_9  and  C_10 
REMARK       I    between atoms: C_10  and  N_18 
REMARK    6  A    between atoms: C_15  and  C_20 
REMARK    7  A    between atoms: S_17  and  C_19 
REMARK    8  A    between atoms: N_18  and  C_20 
REMARK    9  A    between atoms: C_19  and  C_20 
ROOT
HETATM    1  C           1     -22.929  -4.377  -9.515  0.00  0.00     0.249 C 
HETATM    2  O           1     -21.961  -4.783 -10.114  0.00  0.00    -0.271 OA
HETATM    3  H           1     -23.762  -4.069  -7.646  0.00  0.00     0.163 HD
HETATM    4  N           1     -22.951  -4.410  -8.147  0.00  0.00    -0.344 N 
ENDROOT
BRANCH   1   5
HETATM    5  C           1     -24.113  -3.834 -10.277  0.00  0.00     0.275 C 
BRANCH   5   6
HETATM    6  N           1     -25.057  -3.166  -9.322  0.00  0.00    -0.066 N 
HETATM    7  H           1     -24.715  -3.298  -8.344  0.00  0.00     0.275 HD
HETATM    8  H           1     -26.007  -3.590  -9.419  0.00  0.00     0.275 HD
HETATM    9  H           1     -25.108  -2.145  -9.538  0.00  0.00     0.275 HD
ENDBRANCH   5   6
BRANCH   5  10
HETATM   10  C           1     -23.633  -2.819 -11.307  0.00  0.00     0.053 C 
BRANCH  10  11
HETATM   11  C           1     -24.315  -3.090 -12.642  0.00  0.00     0.076 C 
BRANCH  11  12
HETATM   12  S           1     -23.105  -2.922 -13.984  0.00  0.00    -0.173 SA
HETATM   13  C           1     -23.822  -1.422 -14.713  0.00  0.00     0.089 C 
ENDBRANCH  11  12
ENDBRANCH  10  11
ENDBRANCH   5  10
ENDBRANCH   1   5
BRANCH   4  14
HETATM   14  C           1     -21.813  -4.932  -7.416  0.00  0.00     0.194 C 
BRANCH  14  15
HETATM   15  C           1     -22.281  -5.503  -6.099  0.00  0.00     0.197 C 
HETATM   16  O           1     -23.498  -5.495  -5.812  0.00  0.00    -0.646 OA
HETATM   17  O           1     -21.452  -5.984  -5.297  0.00  0.00    -0.646 OA
ENDBRANCH  14  15
BRANCH  14  18
HETATM   18  C           1     -20.818  -3.808  -7.158  0.00  0.00     0.106 C 
BRANCH  18  19
HETATM   19  S           1     -19.161  -4.336  -7.676  0.00  0.00    -0.180 SA
HETATM   20  H           1     -18.686  -4.547  -6.436  0.00  0.00     0.101 HD
ENDBRANCH  18  19
ENDBRANCH  14  18
ENDBRANCH   4  14
TORSDOF 9
ENDMDL
MODEL 4
REMARK VINA RESULT:      -4.7      2.930      6.365
REMARK  9 active torsions:
REMARK  status: ('A' for Active; 'I' for Inactive)
REMARK    1  A    between atoms: S_1  and  C_6 
REMARK    2  A    between atoms: N_5  and  C_9 
REMARK    3  A    between atoms: C_6  and  C_8 
REMARK    4  A    between atoms: C_8  and  C_9 
REMARK    5  A    between atoms: C_9  and  C_10 
REMARK       I    between atoms: C_10  and  N_18 
REMARK    6  A    between atoms: C_15  and  C_20 
REMARK    7  A    between atoms: S_17  and  C_19 
REMARK    8  A    between atoms: N_18  and  C_20 
REMARK    9  A    between atoms: C_19  and  C_20 
ROOT
HETATM    1  C           1     -21.450  -5.762  -5.727  0.00  0.00     0.249 C 
HETATM    2  O           1     -22.649  -5.614  -5.712  0.00  0.00    -0.271 OA
HETATM    3  H           1     -19.859  -6.803  -4.908  0.00  0.00     0.163 HD
HETATM    4  N           1     -20.863  -6.678  -4.895  0.00  0.00    -0.344 N 
ENDROOT
BRANCH   1   5
HETATM    5  C           1     -20.600  -4.940  -6.664  0.00  0.00     0.275 C 
BRANCH   5   6
HETATM    6  N           1     -20.100  -5.810  -7.778  0.00  0.00    -0.066 N 
HETATM    7  H           1     -20.206  -6.815  -7.511  0.00  0.00     0.275 HD
HETATM    8  H           1     -19.092  -5.602  -7.957  0.00  0.00     0.275 HD
HETATM    9  H           1     -20.653  -5.620  -8.645  0.00  0.00     0.275 HD
ENDBRANCH   5   6
BRANCH   5  10
HETATM   10  C           1     -21.434  -3.805  -7.244  0.00  0.00     0.053 C 
BRANCH  10  11
HETATM   11  C           1     -21.744  -4.098  -8.706  0.00  0.00     0.076 C 
BRANCH  11  12
HETATM   12  S           1     -23.538  -4.023  -8.970  0.00  0.00    -0.173 SA
HETATM   13  C           1     -23.534  -4.827 -10.598  0.00  0.00     0.089 C 
ENDBRANCH  11  12
ENDBRANCH  10  11
ENDBRANCH   5  10
ENDBRANCH   1   5
BRANCH   4  14
HETATM   14  C           1     -21.680  -7.468  -3.995  0.00  0.00     0.194 C 
BRANCH  14  15
HETATM   15  C           1     -21.608  -6.882  -2.606  0.00  0.00     0.197 C 
HETATM   16  O           1     -22.330  -5.908  -2.300  0.00  0.00    -0.646 OA
HETATM   17  O           1     -20.826  -7.371  -1.762  0.00  0.00    -0.646 OA
ENDBRANCH  14  15
BRANCH  14  18
HETATM   18  C           1     -21.165  -8.901  -3.970  0.00  0.00     0.106 C 
BRANCH  18  19
HETATM   19  S           1     -19.546  -8.976  -4.786  0.00  0.00    -0.180 SA
HETATM   20  H           1     -19.475  -7.666  -5.079  0.00  0.00     0.101 HD
ENDBRANCH  18  19
ENDBRANCH  14  18
ENDBRANCH   4  14
TORSDOF 9
ENDMDL
MODEL 5
REMARK VINA RESULT:      -4.5     11.876     13.329
REMARK  9 active torsions:
REMARK  status: ('A' for Active; 'I' for Inactive)
REMARK    1  A    between atoms: S_1  and  C_6 
REMARK    2  A    between atoms: N_5  and  C_9 
REMARK    3  A    between atoms: C_6  and  C_8 
REMARK    4  A    between atoms: C_8  and  C_9 
REMARK    5  A    between atoms: C_9  and  C_10 
REMARK       I    between atoms: C_10  and  N_18 
REMARK    6  A    between atoms: C_15  and  C_20 
REMARK    7  A    between atoms: S_17  and  C_19 
REMARK    8  A    between atoms: N_18  and  C_20 
REMARK    9  A    between atoms: C_19  and  C_20 
ROOT
HETATM    1  C           1     -26.456  -6.371 -18.105  0.00  0.00     0.249 C 
HETATM    2  O           1     -26.391  -5.865 -17.010  0.00  0.00    -0.271 OA
HETATM    3  H           1     -27.721  -7.199 -19.519  0.00  0.00     0.163 HD
HETATM    4  N           1     -27.666  -6.775 -18.602  0.00  0.00    -0.344 N 
ENDROOT
BRANCH   1   5
HETATM    5  C           1     -25.203  -6.559 -18.925  0.00  0.00     0.275 C 
BRANCH   5   6
HETATM    6  N           1     -24.214  -7.373 -18.144  0.00  0.00    -0.066 N 
HETATM    7  H           1     -24.700  -8.187 -17.706  0.00  0.00     0.275 HD
HETATM    8  H           1     -23.786  -6.779 -17.398  0.00  0.00     0.275 HD
HETATM    9  H           1     -23.464  -7.719 -18.785  0.00  0.00     0.275 HD
ENDBRANCH   5   6
BRANCH   5  10
HETATM   10  C           1     -25.545  -7.284 -20.220  0.00  0.00     0.053 C 
BRANCH  10  11
HETATM   11  C           1     -24.850  -6.595 -21.387  0.00  0.00     0.076 C 
BRANCH  11  12
HETATM   12  S           1     -24.107  -7.845 -22.472  0.00  0.00    -0.173 SA
HETATM   13  C           1     -22.868  -8.431 -21.282  0.00  0.00     0.089 C 
ENDBRANCH  11  12
ENDBRANCH  10  11
ENDBRANCH   5  10
ENDBRANCH   1   5
BRANCH   4  14
HETATM   14  C           1     -28.870  -6.594 -17.813  0.00  0.00     0.194 C 
BRANCH  14  15
HETATM   15  C           1     -29.656  -7.882 -17.795  0.00  0.00     0.197 C 
HETATM   16  O           1     -30.338  -8.212 -18.790  0.00  0.00    -0.646 OA
HETATM   17  O           1     -29.626  -8.618 -16.785  0.00  0.00    -0.646 OA
ENDBRANCH  14  15
BRANCH  14  18
HETATM   18  C           1     -29.718  -5.489 -18.430  0.00  0.00     0.106 C 
BRANCH  18  19
HETATM   19  S           1     -31.057  -5.045 -17.289  0.00  0.00    -0.180 SA
HETATM   20  H           1     -31.677  -4.193 -18.124  0.00  0.00     0.101 HD
ENDBRANCH  18  19
ENDBRANCH  14  18
ENDBRANCH   4  14
TORSDOF 9
ENDMDL
MODEL 6
REMARK VINA RESULT:      -4.4      2.657      6.445
REMARK  9 active torsions:
REMARK  status: ('A' for Active; 'I' for Inactive)
REMARK    1  A    between atoms: S_1  and  C_6 
REMARK    2  A    between atoms: N_5  and  C_9 
REMARK    3  A    between atoms: C_6  and  C_8 
REMARK    4  A    between atoms: C_8  and  C_9 
REMARK    5  A    between atoms: C_9  and  C_10 
REMARK       I    between atoms: C_10  and  N_18 
REMARK    6  A    between atoms: C_15  and  C_20 
REMARK    7  A    between atoms: S_17  and  C_19 
REMARK    8  A    between atoms: N_18  and  C_20 
REMARK    9  A    between atoms: C_19  and  C_20 
ROOT
HETATM    1  C           1     -21.040  -5.314  -7.275  0.00  0.00     0.249 C 
HETATM    2  O           1     -19.833  -5.254  -7.256  0.00  0.00    -0.271 OA
HETATM    3  H           1     -22.720  -5.991  -6.275  0.00  0.00     0.163 HD
HETATM    4  N           1     -21.710  -5.941  -6.259  0.00  0.00    -0.344 N 
ENDROOT
BRANCH   1   5
HETATM    5  C           1     -21.808  -4.699  -8.419  0.00  0.00     0.275 C 
BRANCH   5   6
HETATM    6  N           1     -22.461  -3.430  -7.956  0.00  0.00    -0.066 N 
HETATM    7  H           1     -21.731  -2.701  -7.794  0.00  0.00     0.275 HD
HETATM    8  H           1     -22.978  -3.610  -7.066  0.00  0.00     0.275 HD
HETATM    9  H           1     -23.130  -3.096  -8.686  0.00  0.00     0.275 HD
ENDBRANCH   5   6
BRANCH   5  10
HETATM   10  C           1     -20.853  -4.388  -9.565  0.00  0.00     0.053 C 
BRANCH  10  11
HETATM   11  C           1     -21.577  -3.561 -10.619  0.00  0.00     0.076 C 
BRANCH  11  12
HETATM   12  S           1     -22.896  -4.556 -11.368  0.00  0.00    -0.173 SA
HETATM   13  C           1     -24.106  -3.211 -11.508  0.00  0.00     0.089 C 
ENDBRANCH  11  12
ENDBRANCH  10  11
ENDBRANCH   5  10
ENDBRANCH   1   5
BRANCH   4  14
HETATM   14  C           1     -20.971  -6.533  -5.161  0.00  0.00     0.194 C 
BRANCH  14  15
HETATM   15  C           1     -20.545  -7.931  -5.536  0.00  0.00     0.197 C 
HETATM   16  O           1     -21.408  -8.805  -5.767  0.00  0.00    -0.646 OA
HETATM   17  O           1     -19.330  -8.214  -5.616  0.00  0.00    -0.646 OA
ENDBRANCH  14  15
BRANCH  14  18
HETATM   18  C           1     -21.859  -6.586  -3.924  0.00  0.00     0.106 C 
BRANCH  18  19
HETATM   19  S           1     -20.962  -7.393  -2.569  0.00  0.00    -0.180 SA
HETATM   20  H           1     -21.642  -8.552  -2.619  0.00  0.00     0.101 HD
ENDBRANCH  18  19
ENDBRANCH  14  18
ENDBRANCH   4  14
TORSDOF 9
ENDMDL
MODEL 7
REMARK VINA RESULT:      -4.3      2.982      3.989
REMARK  9 active torsions:
REMARK  status: ('A' for Active; 'I' for Inactive)
REMARK    1  A    between atoms: S_1  and  C_6 
REMARK    2  A    between atoms: N_5  and  C_9 
REMARK    3  A    between atoms: C_6  and  C_8 
REMARK    4  A    between atoms: C_8  and  C_9 
REMARK    5  A    between atoms: C_9  and  C_10 
REMARK       I    between atoms: C_10  and  N_18 
REMARK    6  A    between atoms: C_15  and  C_20 
REMARK    7  A    between atoms: S_17  and  C_19 
REMARK    8  A    between atoms: N_18  and  C_20 
REMARK    9  A    between atoms: C_19  and  C_20 
ROOT
HETATM    1  C           1     -21.586  -6.936  -5.610  0.00  0.00     0.249 C 
HETATM    2  O           1     -21.040  -7.696  -6.374  0.00  0.00    -0.271 OA
HETATM    3  H           1     -22.261  -4.998  -5.337  0.00  0.00     0.163 HD
HETATM    4  N           1     -21.803  -5.634  -5.977  0.00  0.00    -0.344 N 
ENDROOT
BRANCH   1   5
HETATM    5  C           1     -22.029  -7.421  -4.251  0.00  0.00     0.275 C 
BRANCH   5   6
HETATM    6  N           1     -21.630  -8.857  -4.081  0.00  0.00    -0.066 N 
HETATM    7  H           1     -20.698  -8.907  -3.612  0.00  0.00     0.275 HD
HETATM    8  H           1     -21.574  -9.317  -5.017  0.00  0.00     0.275 HD
HETATM    9  H           1     -22.341  -9.349  -3.494  0.00  0.00     0.275 HD
ENDBRANCH   5   6
BRANCH   5  10
HETATM   10  C           1     -21.367  -6.579  -3.169  0.00  0.00     0.053 C 
BRANCH  10  11
HETATM   11  C           1     -21.024  -7.463  -1.977  0.00  0.00     0.076 C 
BRANCH  11  12
HETATM   12  S           1     -22.296  -7.271  -0.696  0.00  0.00    -0.173 SA
HETATM   13  C           1     -22.542  -9.043  -0.393  0.00  0.00     0.089 C 
ENDBRANCH  11  12
ENDBRANCH  10  11
ENDBRANCH   5  10
ENDBRANCH   1   5
BRANCH   4  14
HETATM   14  C           1     -21.377  -5.169  -7.282  0.00  0.00     0.194 C 
BRANCH  14  15
HETATM   15  C           1     -20.021  -4.517  -7.165  0.00  0.00     0.197 C 
HETATM   16  O           1     -19.420  -4.519  -6.069  0.00  0.00    -0.646 OA
HETATM   17  O           1     -19.500  -3.976  -8.165  0.00  0.00    -0.646 OA
ENDBRANCH  14  15
BRANCH  14  18
HETATM   18  C           1     -22.384  -4.156  -7.811  0.00  0.00     0.106 C 
BRANCH  18  19
HETATM   19  S           1     -22.787  -4.548  -9.537  0.00  0.00    -0.180 SA
HETATM   20  H           1     -22.242  -3.438 -10.065  0.00  0.00     0.101 HD
ENDBRANCH  18  19
ENDBRANCH  14  18
ENDBRANCH   4  14
TORSDOF 9
ENDMDL
MODEL 8
REMARK VINA RESULT:      -4.2      4.721      7.989
REMARK  9 active torsions:
REMARK  status: ('A' for Active; 'I' for Inactive)
REMARK    1  A    between atoms: S_1  and  C_6 
REMARK    2  A    between atoms: N_5  and  C_9 
REMARK    3  A    between atoms: C_6  and  C_8 
REMARK    4  A    between atoms: C_8  and  C_9 
REMARK    5  A    between atoms: C_9  and  C_10 
REMARK       I    between atoms: C_10  and  N_18 
REMARK    6  A    between atoms: C_15  and  C_20 
REMARK    7  A    between atoms: S_17  and  C_19 
REMARK    8  A    between atoms: N_18  and  C_20 
REMARK    9  A    between atoms: C_19  and  C_20 
ROOT
HETATM    1  C           1     -21.060  -8.565  -3.682  0.00  0.00     0.249 C 
HETATM    2  O           1     -21.881  -9.404  -3.966  0.00  0.00    -0.271 OA
HETATM    3  H           1     -20.218  -7.469  -2.141  0.00  0.00     0.163 HD
HETATM    4  N           1     -20.906  -8.171  -2.379  0.00  0.00    -0.344 N 
ENDROOT
BRANCH   1   5
HETATM    5  C           1     -20.205  -7.950  -4.762  0.00  0.00     0.275 C 
BRANCH   5   6
HETATM    6  N           1     -19.586  -9.039  -5.587  0.00  0.00    -0.066 N 
HETATM    7  H           1     -19.909  -8.954  -6.577  0.00  0.00     0.275 HD
HETATM    8  H           1     -19.870  -9.969  -5.206  0.00  0.00     0.275 HD
HETATM    9  H           1     -18.545  -8.953  -5.553  0.00  0.00     0.275 HD
ENDBRANCH   5   6
BRANCH   5  10
HETATM   10  C           1     -21.068  -7.067  -5.654  0.00  0.00     0.053 C 
BRANCH  10  11
HETATM   11  C           1     -20.807  -5.603  -5.324  0.00  0.00     0.076 C 
BRANCH  11  12
HETATM   12  S           1     -19.889  -4.830  -6.685  0.00  0.00    -0.173 SA
HETATM   13  C           1     -21.217  -3.711  -7.211  0.00  0.00     0.089 C 
ENDBRANCH  11  12
ENDBRANCH  10  11
ENDBRANCH   5  10
ENDBRANCH   1   5
BRANCH   4  14
HETATM   14  C           1     -21.728  -8.762  -1.341  0.00  0.00     0.194 C 
BRANCH  14  15
HETATM   15  C           1     -22.271  -7.673  -0.449  0.00  0.00     0.197 C 
HETATM   16  O           1     -22.696  -6.609  -0.950  0.00  0.00    -0.646 OA
HETATM   17  O           1     -22.295  -7.835   0.790  0.00  0.00    -0.646 OA
ENDBRANCH  14  15
BRANCH  14  18
HETATM   18  C           1     -20.885  -9.724  -0.514  0.00  0.00     0.106 C 
BRANCH  18  19
HETATM   19  S           1     -21.695 -11.348  -0.463  0.00  0.00    -0.180 SA
HETATM   20  H           1     -22.954 -10.877  -0.433  0.00  0.00     0.101 HD
ENDBRANCH  18  19
ENDBRANCH  14  18
ENDBRANCH   4  14
TORSDOF 9
ENDMDL
MODEL 9
REMARK VINA RESULT:      -4.1      4.194      7.839
REMARK  9 active torsions:
REMARK  status: ('A' for Active; 'I' for Inactive)
REMARK    1  A    between atoms: S_1  and  C_6 
REMARK    2  A    between atoms: N_5  and  C_9 
REMARK    3  A    between atoms: C_6  and  C_8 
REMARK    4  A    between atoms: C_8  and  C_9 
REMARK    5  A    between atoms: C_9  and  C_10 
REMARK       I    between atoms: C_10  and  N_18 
REMARK    6  A    between atoms: C_15  and  C_20 
REMARK    7  A    between atoms: S_17  and  C_19 
REMARK    8  A    between atoms: N_18  and  C_20 
REMARK    9  A    between atoms: C_19  and  C_20 
ROOT
HETATM    1  C           1     -21.652  -6.835  -3.762  0.00  0.00     0.249 C 
HETATM    2  O           1     -21.691  -5.952  -2.937  0.00  0.00    -0.271 OA
HETATM    3  H           1     -21.226  -8.834  -4.087  0.00  0.00     0.163 HD
HETATM    4  N           1     -21.259  -8.095  -3.397  0.00  0.00    -0.344 N 
ENDROOT
BRANCH   1   5
HETATM    5  C           1     -22.036  -6.548  -5.192  0.00  0.00     0.275 C 
BRANCH   5   6
HETATM    6  N           1     -23.435  -6.007  -5.234  0.00  0.00    -0.066 N 
HETATM    7  H           1     -23.837  -6.154  -6.187  0.00  0.00     0.275 HD
HETATM    8  H           1     -23.419  -4.985  -5.016  0.00  0.00     0.275 HD
HETATM    9  H           1     -24.022  -6.504  -4.527  0.00  0.00     0.275 HD
ENDBRANCH   5   6
BRANCH   5  10
HETATM   10  C           1     -21.078  -5.521  -5.781  0.00  0.00     0.053 C 
BRANCH  10  11
HETATM   11  C           1     -21.074  -5.641  -7.299  0.00  0.00     0.076 C 
BRANCH  11  12
HETATM   12  S           1     -21.284  -3.996  -8.037  0.00  0.00    -0.173 SA
HETATM   13  C           1     -23.042  -4.184  -8.445  0.00  0.00     0.089 C 
ENDBRANCH  11  12
ENDBRANCH  10  11
ENDBRANCH   5  10
ENDBRANCH   1   5
BRANCH   4  14
HETATM   14  C           1     -20.890  -8.369  -2.022  0.00  0.00     0.194 C 
BRANCH  14  15
HETATM   15  C           1     -19.724  -9.327  -1.997  0.00  0.00     0.197 C 
HETATM   16  O           1     -19.787 -10.370  -1.311  0.00  0.00    -0.646 OA
HETATM   17  O           1     -18.695  -9.077  -2.662  0.00  0.00    -0.646 OA
ENDBRANCH  14  15
BRANCH  14  18
HETATM   18  C           1     -22.075  -8.991  -1.295  0.00  0.00     0.106 C 
BRANCH  18  19
HETATM   19  S           1     -22.589  -7.904   0.064  0.00  0.00    -0.180 SA
HETATM   20  H           1     -22.646  -6.779  -0.669  0.00  0.00     0.101 HD
ENDBRANCH  18  19
ENDBRANCH  14  18
ENDBRANCH   4  14
TORSDOF 9
ENDMDL
