MODEL 1
REMARK VINA RESULT:      -5.8      0.000      0.000
REMARK  12 active torsions:
REMARK  status: ('A' for Active; 'I' for Inactive)
REMARK    1  A    between atoms: C_4  and  C_11 
REMARK    2  A    between atoms: C_4  and  C_22 
REMARK    3  A    between atoms: C_5  and  C_22 
REMARK    4  A    between atoms: C_7  and  C_9 
REMARK    5  A    between atoms: C_7  and  N_10 
REMARK    6  A    between atoms: C_9  and  C_21 
REMARK    7  A    between atoms: C_11  and  Se_15 
REMARK       I    between atoms: C_18  and  N_19 
REMARK    8  A    between atoms: C_18  and  C_23 
REMARK    9  A    between atoms: N_19  and  C_22 
REMARK   10  A    between atoms: N_20  and  C_23 
REMARK   11  A    between atoms: C_21  and  C_24 
REMARK   12  A    between atoms: C_23  and  C_24 
ROOT
HETATM    1  C           1     -20.891  -5.445  -7.318  0.00  0.00     0.274 C 
ENDROOT
BRANCH   1   2
HETATM    2  C           1     -21.642  -4.378  -8.075  0.00  0.00     0.249 C 
HETATM    3  O           1     -21.844  -3.303  -7.563  0.00  0.00    -0.271 OA
HETATM    4  N           1     -22.095  -4.629  -9.343  0.00  0.00    -0.345 N 
HETATM    5  H           1     -21.925  -5.529  -9.772  0.00  0.00     0.163 HD
BRANCH   4   6
HETATM    6  C           1     -22.816  -3.603 -10.072  0.00  0.00     0.185 C 
BRANCH   6   7
HETATM    7  C           1     -22.510  -3.727 -11.558  0.00  0.00     0.036 C 
BRANCH   7   8
HETATM    8  C           1     -23.313  -2.689 -12.331  0.00  0.00     0.003 C 
BRANCH   8   9
HETATM    9 Se           1     -22.986  -2.902 -14.240  0.00  0.00     0.000 Se
HETATM   10  C           1     -23.869  -1.239 -14.743  0.00  0.00     0.000 C 
ENDBRANCH   8   9
ENDBRANCH   7   8
ENDBRANCH   6   7
BRANCH   6  11
HETATM   11  C           1     -24.298  -3.775  -9.846  0.00  0.00     0.196 C 
HETATM   12  O           1     -24.997  -2.795  -9.512  0.00  0.00    -0.646 OA
HETATM   13  O           1     -24.826  -4.897  -9.995  0.00  0.00    -0.646 OA
ENDBRANCH   6  11
ENDBRANCH   4   6
ENDBRANCH   1   2
BRANCH   1  14
HETATM   14  N           1     -19.546  -4.919  -6.914  0.00  0.00    -0.067 N 
HETATM   15  H           1     -18.855  -5.703  -6.897  0.00  0.00     0.275 HD
HETATM   16  H           1     -19.235  -4.196  -7.601  0.00  0.00     0.275 HD
HETATM   17  H           1     -19.611  -4.492  -5.962  0.00  0.00     0.275 HD
ENDBRANCH   1  14
BRANCH   1  18
HETATM   18  C           1     -21.678  -5.835  -6.074  0.00  0.00     0.042 C 
BRANCH  18  19
HETATM   19  C           1     -20.750  -6.516  -5.078  0.00  0.00     0.004 C 
BRANCH  19  20
HETATM   20  C           1     -21.574  -7.327  -4.087  0.00  0.00     0.027 C 
BRANCH  20  21
HETATM   21  C           1     -21.312  -6.822  -2.674  0.00  0.00     0.229 C 
BRANCH  21  22
HETATM   22  N           1     -22.408  -5.882  -2.268  0.00  0.00    -0.079 N 
HETATM   23  H           1     -23.313  -6.202  -2.681  0.00  0.00     0.274 HD
HETATM   24  H           1     -22.486  -5.868  -1.226  0.00  0.00     0.274 HD
HETATM   25  H           1     -22.189  -4.920  -2.614  0.00  0.00     0.274 HD
ENDBRANCH  21  22
ENDBRANCH  20  21
ENDBRANCH  19  20
ENDBRANCH  18  19
ENDBRANCH   1  18
TORSDOF 12
ENDMDL
MODEL 2
REMARK VINA RESULT:      -5.8      3.316      7.173
REMARK  12 active torsions:
REMARK  status: ('A' for Active; 'I' for Inactive)
REMARK    1  A    between atoms: C_4  and  C_11 
REMARK    2  A    between atoms: C_4  and  C_22 
REMARK    3  A    between atoms: C_5  and  C_22 
REMARK    4  A    between atoms: C_7  and  C_9 
REMARK    5  A    between atoms: C_7  and  N_10 
REMARK    6  A    between atoms: C_9  and  C_21 
REMARK    7  A    between atoms: C_11  and  Se_15 
REMARK       I    between atoms: C_18  and  N_19 
REMARK    8  A    between atoms: C_18  and  C_23 
REMARK    9  A    between atoms: N_19  and  C_22 
REMARK   10  A    between atoms: N_20  and  C_23 
REMARK   11  A    between atoms: C_21  and  C_24 
REMARK   12  A    between atoms: C_23  and  C_24 
ROOT
HETATM    1  C           1     -24.138  -4.711  -9.764  0.00  0.00     0.274 C 
ENDROOT
BRANCH   1   2
HETATM    2  C           1     -23.018  -4.145  -8.927  0.00  0.00     0.249 C 
HETATM    3  O           1     -22.829  -2.952  -8.898  0.00  0.00    -0.271 OA
HETATM    4  N           1     -22.215  -4.983  -8.201  0.00  0.00    -0.345 N 
HETATM    5  H           1     -22.374  -5.982  -8.225  0.00  0.00     0.163 HD
BRANCH   4   6
HETATM    6  C           1     -21.139  -4.439  -7.395  0.00  0.00     0.185 C 
BRANCH   6   7
HETATM    7  C           1     -21.063  -5.194  -6.074  0.00  0.00     0.036 C 
BRANCH   7   8
HETATM    8  C           1     -21.075  -6.693  -6.345  0.00  0.00     0.003 C 
BRANCH   8   9
HETATM    9 Se           1     -21.634  -7.640  -4.736  0.00  0.00     0.000 Se
HETATM   10  C           1     -21.387  -6.112  -3.553  0.00  0.00     0.000 C 
ENDBRANCH   8   9
ENDBRANCH   7   8
ENDBRANCH   6   7
BRANCH   6  11
HETATM   11  C           1     -19.833  -4.589  -8.136  0.00  0.00     0.196 C 
HETATM   12  O           1     -19.834  -4.901  -9.346  0.00  0.00    -0.646 OA
HETATM   13  O           1     -18.752  -4.400  -7.540  0.00  0.00    -0.646 OA
ENDBRANCH   6  11
ENDBRANCH   4   6
ENDBRANCH   1   2
BRANCH   1  14
HETATM   14  N           1     -25.337  -3.815  -9.666  0.00  0.00    -0.067 N 
HETATM   15  H           1     -25.287  -3.260  -8.782  0.00  0.00     0.275 HD
HETATM   16  H           1     -25.354  -3.166 -10.484  0.00  0.00     0.275 HD
HETATM   17  H           1     -26.206  -4.396  -9.663  0.00  0.00     0.275 HD
ENDBRANCH   1  14
BRANCH   1  18
HETATM   18  C           1     -23.691  -4.803 -11.217  0.00  0.00     0.042 C 
BRANCH  18  19
HETATM   19  C           1     -24.160  -3.567 -11.972  0.00  0.00     0.004 C 
BRANCH  19  20
HETATM   20  C           1     -22.956  -2.718 -12.357  0.00  0.00     0.027 C 
BRANCH  20  21
HETATM   21  C           1     -21.695  -3.572 -12.310  0.00  0.00     0.229 C 
BRANCH  21  22
HETATM   22  N           1     -20.675  -2.911 -11.431  0.00  0.00    -0.079 N 
HETATM   23  H           1     -19.734  -2.976 -11.880  0.00  0.00     0.274 HD
HETATM   24  H           1     -20.929  -1.907 -11.297  0.00  0.00     0.274 HD
HETATM   25  H           1     -20.651  -3.392 -10.503  0.00  0.00     0.274 HD
ENDBRANCH  21  22
ENDBRANCH  20  21
ENDBRANCH  19  20
ENDBRANCH  18  19
ENDBRANCH   1  18
TORSDOF 12
ENDMDL
MODEL 3
REMARK VINA RESULT:      -5.7      4.186      8.054
REMARK  12 active torsions:
REMARK  status: ('A' for Active; 'I' for Inactive)
REMARK    1  A    between atoms: C_4  and  C_11 
REMARK    2  A    between atoms: C_4  and  C_22 
REMARK    3  A    between atoms: C_5  and  C_22 
REMARK    4  A    between atoms: C_7  and  C_9 
REMARK    5  A    between atoms: C_7  and  N_10 
REMARK    6  A    between atoms: C_9  and  C_21 
REMARK    7  A    between atoms: C_11  and  Se_15 
REMARK       I    between atoms: C_18  and  N_19 
REMARK    8  A    between atoms: C_18  and  C_23 
REMARK    9  A    between atoms: N_19  and  C_22 
REMARK   10  A    between atoms: N_20  and  C_23 
REMARK   11  A    between atoms: C_21  and  C_24 
REMARK   12  A    between atoms: C_23  and  C_24 
ROOT
HETATM    1  C           1     -21.463  -4.714  -8.401  0.00  0.00     0.274 C 
ENDROOT
BRANCH   1   2
HETATM    2  C           1     -21.012  -5.214  -7.051  0.00  0.00     0.249 C 
HETATM    3  O           1     -20.502  -4.453  -6.264  0.00  0.00    -0.271 OA
HETATM    4  N           1     -21.180  -6.532  -6.718  0.00  0.00    -0.345 N 
HETATM    5  H           1     -21.607  -7.170  -7.377  0.00  0.00     0.163 HD
BRANCH   4   6
HETATM    6  C           1     -20.747  -7.013  -5.421  0.00  0.00     0.185 C 
BRANCH   6   7
HETATM    7  C           1     -21.917  -6.965  -4.446  0.00  0.00     0.036 C 
BRANCH   7   8
HETATM    8  C           1     -21.460  -6.339  -3.135  0.00  0.00     0.003 C 
BRANCH   8   9
HETATM    9 Se           1     -21.052  -7.745  -1.849  0.00  0.00     0.000 Se
HETATM   10  C           1     -22.431  -7.210  -0.580  0.00  0.00     0.000 C 
ENDBRANCH   8   9
ENDBRANCH   7   8
ENDBRANCH   6   7
BRANCH   6  11
HETATM   11  C           1     -20.257  -8.435  -5.550  0.00  0.00     0.196 C 
HETATM   12  O           1     -21.076  -9.379  -5.555  0.00  0.00    -0.646 OA
HETATM   13  O           1     -19.035  -8.667  -5.653  0.00  0.00    -0.646 OA
ENDBRANCH   6  11
ENDBRANCH   4   6
ENDBRANCH   1   2
BRANCH   1  14
HETATM   14  N           1     -22.481  -3.628  -8.217  0.00  0.00    -0.067 N 
HETATM   15  H           1     -23.132  -3.888  -7.442  0.00  0.00     0.275 HD
HETATM   16  H           1     -21.997  -2.734  -7.978  0.00  0.00     0.275 HD
HETATM   17  H           1     -23.024  -3.506  -9.101  0.00  0.00     0.275 HD
ENDBRANCH   1  14
BRANCH   1  18
HETATM   18  C           1     -20.266  -4.163  -9.165  0.00  0.00     0.042 C 
BRANCH  18  19
HETATM   19  C           1     -20.461  -4.405 -10.656  0.00  0.00     0.004 C 
BRANCH  19  20
HETATM   20  C           1     -20.796  -3.089 -11.344  0.00  0.00     0.027 C 
BRANCH  20  21
HETATM   21  C           1     -22.148  -3.207 -12.037  0.00  0.00     0.229 C 
BRANCH  21  22
HETATM   22  N           1     -22.624  -4.627 -11.968  0.00  0.00    -0.079 N 
HETATM   23  H           1     -23.592  -4.652 -11.576  0.00  0.00     0.274 HD
HETATM   24  H           1     -22.626  -5.040 -12.928  0.00  0.00     0.274 HD
HETATM   25  H           1     -21.984  -5.180 -11.353  0.00  0.00     0.274 HD
ENDBRANCH  21  22
ENDBRANCH  20  21
ENDBRANCH  19  20
ENDBRANCH  18  19
ENDBRANCH   1  18
TORSDOF 12
ENDMDL
MODEL 4
REMARK VINA RESULT:      -5.6      4.441      7.879
REMARK  12 active torsions:
REMARK  status: ('A' for Active; 'I' for Inactive)
REMARK    1  A    between atoms: C_4  and  C_11 
REMARK    2  A    between atoms: C_4  and  C_22 
REMARK    3  A    between atoms: C_5  and  C_22 
REMARK    4  A    between atoms: C_7  and  C_9 
REMARK    5  A    between atoms: C_7  and  N_10 
REMARK    6  A    between atoms: C_9  and  C_21 
REMARK    7  A    between atoms: C_11  and  Se_15 
REMARK       I    between atoms: C_18  and  N_19 
REMARK    8  A    between atoms: C_18  and  C_23 
REMARK    9  A    between atoms: N_19  and  C_22 
REMARK   10  A    between atoms: N_20  and  C_23 
REMARK   11  A    between atoms: C_21  and  C_24 
REMARK   12  A    between atoms: C_23  and  C_24 
ROOT
HETATM    1  C           1     -21.086  -3.841  -7.525  0.00  0.00     0.274 C 
ENDROOT
BRANCH   1   2
HETATM    2  C           1     -20.645  -4.701  -6.366  0.00  0.00     0.249 C 
HETATM    3  O           1     -19.526  -4.591  -5.924  0.00  0.00    -0.271 OA
HETATM    4  N           1     -21.512  -5.606  -5.816  0.00  0.00    -0.345 N 
HETATM    5  H           1     -22.449  -5.699  -6.186  0.00  0.00     0.163 HD
BRANCH   4   6
HETATM    6  C           1     -21.088  -6.432  -4.702  0.00  0.00     0.185 C 
BRANCH   6   7
HETATM    7  C           1     -22.265  -6.657  -3.761  0.00  0.00     0.036 C 
BRANCH   7   8
HETATM    8  C           1     -21.857  -6.286  -2.341  0.00  0.00     0.003 C 
BRANCH   8   9
HETATM    9 Se           1     -21.286  -7.887  -1.388  0.00  0.00     0.000 Se
HETATM   10  C           1     -22.625  -7.725   0.019  0.00  0.00     0.000 C 
ENDBRANCH   8   9
ENDBRANCH   7   8
ENDBRANCH   6   7
BRANCH   6  11
HETATM   11  C           1     -20.598  -7.762  -5.221  0.00  0.00     0.196 C 
HETATM   12  O           1     -21.234  -8.355  -6.118  0.00  0.00    -0.646 OA
HETATM   13  O           1     -19.556  -8.269  -4.755  0.00  0.00    -0.646 OA
ENDBRANCH   6  11
ENDBRANCH   4   6
ENDBRANCH   1   2
BRANCH   1  14
HETATM   14  N           1     -20.048  -3.888  -8.606  0.00  0.00    -0.067 N 
HETATM   15  H           1     -20.099  -3.013  -9.176  0.00  0.00     0.275 HD
HETATM   16  H           1     -19.100  -3.967  -8.175  0.00  0.00     0.275 HD
HETATM   17  H           1     -20.222  -4.714  -9.221  0.00  0.00     0.275 HD
ENDBRANCH   1  14
BRANCH   1  18
HETATM   18  C           1     -22.410  -4.362  -8.069  0.00  0.00     0.042 C 
BRANCH  18  19
HETATM   19  C           1     -22.281  -4.608  -9.566  0.00  0.00     0.004 C 
BRANCH  19  20
HETATM   20  C           1     -23.667  -4.787 -10.172  0.00  0.00     0.027 C 
BRANCH  20  21
HETATM   21  C           1     -24.352  -3.431 -10.284  0.00  0.00     0.229 C 
BRANCH  21  22
HETATM   22  N           1     -25.708  -3.501  -9.646  0.00  0.00    -0.079 N 
HETATM   23  H           1     -25.886  -4.475  -9.311  0.00  0.00     0.274 HD
HETATM   24  H           1     -25.747  -2.842  -8.836  0.00  0.00     0.274 HD
HETATM   25  H           1     -26.437  -3.236 -10.347  0.00  0.00     0.274 HD
ENDBRANCH  21  22
ENDBRANCH  20  21
ENDBRANCH  19  20
ENDBRANCH  18  19
ENDBRANCH   1  18
TORSDOF 12
ENDMDL
MODEL 5
REMARK VINA RESULT:      -5.5     10.552     12.938
REMARK  12 active torsions:
REMARK  status: ('A' for Active; 'I' for Inactive)
REMARK    1  A    between atoms: C_4  and  C_11 
REMARK    2  A    between atoms: C_4  and  C_22 
REMARK    3  A    between atoms: C_5  and  C_22 
REMARK    4  A    between atoms: C_7  and  C_9 
REMARK    5  A    between atoms: C_7  and  N_10 
REMARK    6  A    between atoms: C_9  and  C_21 
REMARK    7  A    between atoms: C_11  and  Se_15 
REMARK       I    between atoms: C_18  and  N_19 
REMARK    8  A    between atoms: C_18  and  C_23 
REMARK    9  A    between atoms: N_19  and  C_22 
REMARK   10  A    between atoms: N_20  and  C_23 
REMARK   11  A    between atoms: C_21  and  C_24 
REMARK   12  A    between atoms: C_23  and  C_24 
ROOT
HETATM    1  C           1     -25.701  -6.494 -19.536  0.00  0.00     0.274 C 
ENDROOT
BRANCH   1   2
HETATM    2  C           1     -27.038  -6.243 -18.884  0.00  0.00     0.249 C 
HETATM    3  O           1     -27.894  -5.631 -19.478  0.00  0.00    -0.271 OA
HETATM    4  N           1     -27.282  -6.708 -17.620  0.00  0.00    -0.345 N 
HETATM    5  H           1     -26.566  -7.221 -17.122  0.00  0.00     0.163 HD
BRANCH   4   6
HETATM    6  C           1     -28.568  -6.468 -16.994  0.00  0.00     0.185 C 
BRANCH   6   7
HETATM    7  C           1     -29.549  -7.554 -17.416  0.00  0.00     0.036 C 
BRANCH   7   8
HETATM    8  C           1     -30.957  -6.976 -17.462  0.00  0.00     0.003 C 
BRANCH   8   9
HETATM    9 Se           1     -30.861  -5.041 -17.673  0.00  0.00     0.000 Se
HETATM   10  C           1     -32.473  -4.684 -16.638  0.00  0.00     0.000 C 
ENDBRANCH   8   9
ENDBRANCH   7   8
ENDBRANCH   6   7
BRANCH   6  11
HETATM   11  C           1     -28.408  -6.491 -15.493  0.00  0.00     0.196 C 
HETATM   12  O           1     -28.745  -5.497 -14.814  0.00  0.00    -0.646 OA
HETATM   13  O           1     -27.939  -7.502 -14.931  0.00  0.00    -0.646 OA
ENDBRANCH   6  11
ENDBRANCH   4   6
ENDBRANCH   1   2
BRANCH   1  14
HETATM   14  N           1     -24.786  -7.164 -18.555  0.00  0.00    -0.067 N 
HETATM   15  H           1     -24.775  -6.623 -17.661  0.00  0.00     0.275 HD
HETATM   16  H           1     -25.124  -8.135 -18.370  0.00  0.00     0.275 HD
HETATM   17  H           1     -23.819  -7.200 -18.950  0.00  0.00     0.275 HD
ENDBRANCH   1  14
BRANCH   1  18
HETATM   18  C           1     -25.888  -7.392 -20.751  0.00  0.00     0.042 C 
BRANCH  18  19
HETATM   19  C           1     -24.596  -8.146 -21.029  0.00  0.00     0.004 C 
BRANCH  19  20
HETATM   20  C           1     -24.070  -7.764 -22.406  0.00  0.00     0.027 C 
BRANCH  20  21
HETATM   21  C           1     -22.751  -8.482 -22.665  0.00  0.00     0.229 C 
BRANCH  21  22
HETATM   22  N           1     -22.357  -9.261 -21.445  0.00  0.00    -0.079 N 
HETATM   23  H           1     -21.887  -8.624 -20.762  0.00  0.00     0.274 HD
HETATM   24  H           1     -23.210  -9.675 -21.005  0.00  0.00     0.274 HD
HETATM   25  H           1     -21.698 -10.025 -21.717  0.00  0.00     0.274 HD
ENDBRANCH  21  22
ENDBRANCH  20  21
ENDBRANCH  19  20
ENDBRANCH  18  19
ENDBRANCH   1  18
TORSDOF 12
ENDMDL
MODEL 6
REMARK VINA RESULT:      -5.5      3.432      7.691
REMARK  12 active torsions:
REMARK  status: ('A' for Active; 'I' for Inactive)
REMARK    1  A    between atoms: C_4  and  C_11 
REMARK    2  A    between atoms: C_4  and  C_22 
REMARK    3  A    between atoms: C_5  and  C_22 
REMARK    4  A    between atoms: C_7  and  C_9 
REMARK    5  A    between atoms: C_7  and  N_10 
REMARK    6  A    between atoms: C_9  and  C_21 
REMARK    7  A    between atoms: C_11  and  Se_15 
REMARK       I    between atoms: C_18  and  N_19 
REMARK    8  A    between atoms: C_18  and  C_23 
REMARK    9  A    between atoms: N_19  and  C_22 
REMARK   10  A    between atoms: N_20  and  C_23 
REMARK   11  A    between atoms: C_21  and  C_24 
REMARK   12  A    between atoms: C_23  and  C_24 
ROOT
HETATM    1  C           1     -22.491  -4.159 -10.229  0.00  0.00     0.274 C 
ENDROOT
BRANCH   1   2
HETATM    2  C           1     -22.436  -4.389  -8.739  0.00  0.00     0.249 C 
HETATM    3  O           1     -23.382  -4.096  -8.047  0.00  0.00    -0.271 OA
HETATM    4  N           1     -21.313  -4.928  -8.170  0.00  0.00    -0.345 N 
HETATM    5  H           1     -20.521  -5.174  -8.749  0.00  0.00     0.163 HD
BRANCH   4   6
HETATM    6  C           1     -21.261  -5.150  -6.738  0.00  0.00     0.185 C 
BRANCH   6   7
HETATM    7  C           1     -21.426  -6.636  -6.448  0.00  0.00     0.036 C 
BRANCH   7   8
HETATM    8  C           1     -22.282  -6.818  -5.202  0.00  0.00     0.003 C 
BRANCH   8   9
HETATM    9 Se           1     -21.194  -7.565  -3.768  0.00  0.00     0.000 Se
HETATM   10  C           1     -21.706  -6.217  -2.457  0.00  0.00     0.000 C 
ENDBRANCH   8   9
ENDBRANCH   7   8
ENDBRANCH   6   7
BRANCH   6  11
HETATM   11  C           1     -19.929  -4.679  -6.206  0.00  0.00     0.196 C 
HETATM   12  O           1     -19.806  -4.393  -4.995  0.00  0.00    -0.646 OA
HETATM   13  O           1     -18.951  -4.575  -6.975  0.00  0.00    -0.646 OA
ENDBRANCH   6  11
ENDBRANCH   4   6
ENDBRANCH   1   2
BRANCH   1  14
HETATM   14  N           1     -21.166  -4.509 -10.838  0.00  0.00    -0.067 N 
HETATM   15  H           1     -21.158  -4.224 -11.843  0.00  0.00     0.275 HD
HETATM   16  H           1     -20.405  -4.007 -10.328  0.00  0.00     0.275 HD
HETATM   17  H           1     -21.012  -5.540 -10.768  0.00  0.00     0.275 HD
ENDBRANCH   1  14
BRANCH   1  18
HETATM   18  C           1     -23.577  -5.036 -10.838  0.00  0.00     0.042 C 
BRANCH  18  19
HETATM   19  C           1     -23.828  -4.606 -12.277  0.00  0.00     0.004 C 
BRANCH  19  20
HETATM   20  C           1     -24.320  -3.165 -12.299  0.00  0.00     0.027 C 
BRANCH  20  21
HETATM   21  C           1     -23.567  -2.387 -13.371  0.00  0.00     0.229 C 
BRANCH  21  22
HETATM   22  N           1     -22.407  -3.202 -13.860  0.00  0.00    -0.079 N 
HETATM   23  H           1     -22.169  -2.918 -14.838  0.00  0.00     0.274 HD
HETATM   24  H           1     -21.582  -3.041 -13.240  0.00  0.00     0.274 HD
HETATM   25  H           1     -22.662  -4.215 -13.846  0.00  0.00     0.274 HD
ENDBRANCH  21  22
ENDBRANCH  20  21
ENDBRANCH  19  20
ENDBRANCH  18  19
ENDBRANCH   1  18
TORSDOF 12
ENDMDL
MODEL 7
REMARK VINA RESULT:      -5.4      4.412      7.986
REMARK  12 active torsions:
REMARK  status: ('A' for Active; 'I' for Inactive)
REMARK    1  A    between atoms: C_4  and  C_11 
REMARK    2  A    between atoms: C_4  and  C_22 
REMARK    3  A    between atoms: C_5  and  C_22 
REMARK    4  A    between atoms: C_7  and  C_9 
REMARK    5  A    between atoms: C_7  and  N_10 
REMARK    6  A    between atoms: C_9  and  C_21 
REMARK    7  A    between atoms: C_11  and  Se_15 
REMARK       I    between atoms: C_18  and  N_19 
REMARK    8  A    between atoms: C_18  and  C_23 
REMARK    9  A    between atoms: N_19  and  C_22 
REMARK   10  A    between atoms: N_20  and  C_23 
REMARK   11  A    between atoms: C_21  and  C_24 
REMARK   12  A    between atoms: C_23  and  C_24 
ROOT
HETATM    1  C           1     -20.596  -4.967  -6.578  0.00  0.00     0.274 C 
ENDROOT
BRANCH   1   2
HETATM    2  C           1     -21.405  -5.821  -5.634  0.00  0.00     0.249 C 
HETATM    3  O           1     -22.607  -5.713  -5.601  0.00  0.00    -0.271 OA
HETATM    4  N           1     -20.776  -6.720  -4.814  0.00  0.00    -0.345 N 
HETATM    5  H           1     -19.768  -6.812  -4.842  0.00  0.00     0.163 HD
BRANCH   4   6
HETATM    6  C           1     -21.553  -7.542  -3.907  0.00  0.00     0.185 C 
BRANCH   6   7
HETATM    7  C           1     -20.955  -8.942  -3.853  0.00  0.00     0.036 C 
BRANCH   7   8
HETATM    8  C           1     -19.603  -8.944  -4.554  0.00  0.00     0.003 C 
BRANCH   8   9
HETATM    9 Se           1     -18.215  -9.468  -3.290  0.00  0.00     0.000 Se
HETATM   10  C           1     -16.937  -9.998  -4.662  0.00  0.00     0.000 C 
ENDBRANCH   8   9
ENDBRANCH   7   8
ENDBRANCH   6   7
BRANCH   6  11
HETATM   11  C           1     -21.528  -6.930  -2.528  0.00  0.00     0.196 C 
HETATM   12  O           1     -22.210  -5.912  -2.284  0.00  0.00    -0.646 OA
HETATM   13  O           1     -20.826  -7.442  -1.631  0.00  0.00    -0.646 OA
ENDBRANCH   6  11
ENDBRANCH   4   6
ENDBRANCH   1   2
BRANCH   1  14
HETATM   14  N           1     -20.204  -5.779  -7.776  0.00  0.00    -0.067 N 
HETATM   15  H           1     -19.632  -6.599  -7.471  0.00  0.00     0.275 HD
HETATM   16  H           1     -21.064  -6.117  -8.263  0.00  0.00     0.275 HD
HETATM   17  H           1     -19.642  -5.188  -8.429  0.00  0.00     0.275 HD
ENDBRANCH   1  14
BRANCH   1  18
HETATM   18  C           1     -21.429  -3.773  -7.024  0.00  0.00     0.042 C 
BRANCH  18  19
HETATM   19  C           1     -21.870  -3.972  -8.467  0.00  0.00     0.004 C 
BRANCH  19  20
HETATM   20  C           1     -23.383  -4.138  -8.518  0.00  0.00     0.027 C 
BRANCH  20  21
HETATM   21  C           1     -23.913  -3.569  -9.828  0.00  0.00     0.229 C 
BRANCH  21  22
HETATM   22  N           1     -25.413  -3.563  -9.800  0.00  0.00    -0.079 N 
HETATM   23  H           1     -25.773  -4.444 -10.232  0.00  0.00     0.274 HD
HETATM   24  H           1     -25.743  -3.501  -8.811  0.00  0.00     0.274 HD
HETATM   25  H           1     -25.768  -2.741 -10.339  0.00  0.00     0.274 HD
ENDBRANCH  21  22
ENDBRANCH  20  21
ENDBRANCH  19  20
ENDBRANCH  18  19
ENDBRANCH   1  18
TORSDOF 12
ENDMDL
MODEL 8
REMARK VINA RESULT:      -5.3      9.743     12.972
REMARK  12 active torsions:
REMARK  status: ('A' for Active; 'I' for Inactive)
REMARK    1  A    between atoms: C_4  and  C_11 
REMARK    2  A    between atoms: C_4  and  C_22 
REMARK    3  A    between atoms: C_5  and  C_22 
REMARK    4  A    between atoms: C_7  and  C_9 
REMARK    5  A    between atoms: C_7  and  N_10 
REMARK    6  A    between atoms: C_9  and  C_21 
REMARK    7  A    between atoms: C_11  and  Se_15 
REMARK       I    between atoms: C_18  and  N_19 
REMARK    8  A    between atoms: C_18  and  C_23 
REMARK    9  A    between atoms: N_19  and  C_22 
REMARK   10  A    between atoms: N_20  and  C_23 
REMARK   11  A    between atoms: C_21  and  C_24 
REMARK   12  A    between atoms: C_23  and  C_24 
ROOT
HETATM    1  C           1     -26.003  -6.764 -20.640  0.00  0.00     0.274 C 
ENDROOT
BRANCH   1   2
HETATM    2  C           1     -26.597  -6.323 -19.325  0.00  0.00     0.249 C 
HETATM    3  O           1     -27.579  -5.619 -19.311  0.00  0.00    -0.271 OA
HETATM    4  N           1     -26.023  -6.720 -18.147  0.00  0.00    -0.345 N 
HETATM    5  H           1     -25.201  -7.309 -18.157  0.00  0.00     0.163 HD
BRANCH   4   6
HETATM    6  C           1     -26.595  -6.296 -16.883  0.00  0.00     0.185 C 
BRANCH   6   7
HETATM    7  C           1     -27.795  -7.173 -16.551  0.00  0.00     0.036 C 
BRANCH   7   8
HETATM    8  C           1     -28.867  -6.330 -15.871  0.00  0.00     0.003 C 
BRANCH   8   9
HETATM    9 Se           1     -30.461  -6.277 -16.990  0.00  0.00     0.000 Se
HETATM   10  C           1     -29.888  -7.728 -18.159  0.00  0.00     0.000 C 
ENDBRANCH   8   9
ENDBRANCH   7   8
ENDBRANCH   6   7
BRANCH   6  11
HETATM   11  C           1     -25.558  -6.429 -15.794  0.00  0.00     0.196 C 
HETATM   12  O           1     -25.271  -7.558 -15.340  0.00  0.00    -0.646 OA
HETATM   13  O           1     -24.987  -5.412 -15.348  0.00  0.00    -0.646 OA
ENDBRANCH   6  11
ENDBRANCH   4   6
ENDBRANCH   1   2
BRANCH   1  14
HETATM   14  N           1     -25.479  -5.567 -21.377  0.00  0.00    -0.067 N 
HETATM   15  H           1     -25.002  -5.879 -22.254  0.00  0.00     0.275 HD
HETATM   16  H           1     -26.273  -4.934 -21.620  0.00  0.00     0.275 HD
HETATM   17  H           1     -24.796  -5.058 -20.773  0.00  0.00     0.275 HD
ENDBRANCH   1  14
BRANCH   1  18
HETATM   18  C           1     -24.863  -7.740 -20.380  0.00  0.00     0.042 C 
BRANCH  18  19
HETATM   19  C           1     -24.184  -8.089 -21.698  0.00  0.00     0.004 C 
BRANCH  19  20
HETATM   20  C           1     -22.761  -8.559 -21.427  0.00  0.00     0.027 C 
BRANCH  20  21
HETATM   21  C           1     -22.086  -8.920 -22.744  0.00  0.00     0.229 C 
BRANCH  21  22
HETATM   22  N           1     -22.055 -10.411 -22.899  0.00  0.00    -0.079 N 
HETATM   23  H           1     -21.064 -10.743 -22.882  0.00  0.00     0.274 HD
HETATM   24  H           1     -22.584 -10.854 -22.113  0.00  0.00     0.274 HD
HETATM   25  H           1     -22.496 -10.677 -23.809  0.00  0.00     0.274 HD
ENDBRANCH  21  22
ENDBRANCH  20  21
ENDBRANCH  19  20
ENDBRANCH  18  19
ENDBRANCH   1  18
TORSDOF 12
ENDMDL
MODEL 9
REMARK VINA RESULT:      -5.3      4.448      8.154
REMARK  12 active torsions:
REMARK  status: ('A' for Active; 'I' for Inactive)
REMARK    1  A    between atoms: C_4  and  C_11 
REMARK    2  A    between atoms: C_4  and  C_22 
REMARK    3  A    between atoms: C_5  and  C_22 
REMARK    4  A    between atoms: C_7  and  C_9 
REMARK    5  A    between atoms: C_7  and  N_10 
REMARK    6  A    between atoms: C_9  and  C_21 
REMARK    7  A    between atoms: C_11  and  Se_15 
REMARK       I    between atoms: C_18  and  N_19 
REMARK    8  A    between atoms: C_18  and  C_23 
REMARK    9  A    between atoms: N_19  and  C_22 
REMARK   10  A    between atoms: N_20  and  C_23 
REMARK   11  A    between atoms: C_21  and  C_24 
REMARK   12  A    between atoms: C_23  and  C_24 
ROOT
HETATM    1  C           1     -20.865  -4.508  -6.652  0.00  0.00     0.274 C 
ENDROOT
BRANCH   1   2
HETATM    2  C           1     -21.577  -5.511  -5.779  0.00  0.00     0.249 C 
HETATM    3  O           1     -22.782  -5.590  -5.808  0.00  0.00    -0.271 OA
HETATM    4  N           1     -20.858  -6.333  -4.953  0.00  0.00    -0.345 N 
HETATM    5  H           1     -19.848  -6.268  -4.929  0.00  0.00     0.163 HD
BRANCH   4   6
HETATM    6  C           1     -21.542  -7.298  -4.114  0.00  0.00     0.185 C 
BRANCH   6   7
HETATM    7  C           1     -20.799  -8.627  -4.162  0.00  0.00     0.036 C 
BRANCH   7   8
HETATM    8  C           1     -21.794  -9.771  -4.014  0.00  0.00     0.003 C 
BRANCH   8   9
HETATM    9 Se           1     -21.469 -10.703  -2.334  0.00  0.00     0.000 Se
HETATM   10  C           1     -22.554 -12.255  -2.796  0.00  0.00     0.000 C 
ENDBRANCH   8   9
ENDBRANCH   7   8
ENDBRANCH   6   7
BRANCH   6  11
HETATM   11  C           1     -21.578  -6.792  -2.693  0.00  0.00     0.196 C 
HETATM   12  O           1     -22.431  -5.944  -2.354  0.00  0.00    -0.646 OA
HETATM   13  O           1     -20.756  -7.221  -1.856  0.00  0.00    -0.646 OA
ENDBRANCH   6  11
ENDBRANCH   4   6
ENDBRANCH   1   2
BRANCH   1  14
HETATM   14  N           1     -19.854  -5.216  -7.505  0.00  0.00    -0.067 N 
HETATM   15  H           1     -19.771  -6.210  -7.194  0.00  0.00     0.275 HD
HETATM   16  H           1     -20.161  -5.188  -8.503  0.00  0.00     0.275 HD
HETATM   17  H           1     -18.927  -4.743  -7.411  0.00  0.00     0.275 HD
ENDBRANCH   1  14
BRANCH   1  18
HETATM   18  C           1     -21.877  -3.802  -7.544  0.00  0.00     0.042 C 
BRANCH  18  19
HETATM   19  C           1     -21.742  -4.316  -8.971  0.00  0.00     0.004 C 
BRANCH  19  20
HETATM   20  C           1     -22.816  -3.681  -9.844  0.00  0.00     0.027 C 
BRANCH  20  21
HETATM   21  C           1     -24.105  -4.485  -9.731  0.00  0.00     0.229 C 
BRANCH  21  22
HETATM   22  N           1     -25.276  -3.550  -9.680  0.00  0.00    -0.079 N 
HETATM   23  H           1     -26.153  -4.077  -9.896  0.00  0.00     0.274 HD
HETATM   24  H           1     -25.347  -3.132  -8.725  0.00  0.00     0.274 HD
HETATM   25  H           1     -25.146  -2.790 -10.385  0.00  0.00     0.274 HD
ENDBRANCH  21  22
ENDBRANCH  20  21
ENDBRANCH  19  20
ENDBRANCH  18  19
ENDBRANCH   1  18
TORSDOF 12
ENDMDL
