MODEL 1
REMARK VINA RESULT:      -7.8      0.000      0.000
REMARK  10 active torsions:
REMARK  status: ('A' for Active; 'I' for Inactive)
REMARK    1  A    between atoms: C_1  and  O_20 
REMARK    2  A    between atoms: C_3  and  C_9 
REMARK       I    between atoms: C_4  and  N_15 
REMARK    3  A    between atoms: C_4  and  C_22 
REMARK    4  A    between atoms: C_9  and  C_10 
REMARK    5  A    between atoms: C_10  and  C_18 
REMARK    6  A    between atoms: N_15  and  C_18 
REMARK    7  A    between atoms: C_18  and  C_23 
REMARK    8  A    between atoms: N_19  and  C_22 
REMARK    9  A    between atoms: C_22  and  C_26 
REMARK   10  A    between atoms: C_25  and  C_26 
ROOT
HETATM    1  C           1     -21.073  -5.647  -7.151  0.00  0.00     0.278 C 
ENDROOT
BRANCH   1   2
HETATM    2  C           1     -21.706  -4.552  -7.975  0.00  0.00     0.249 C 
HETATM    3  N           1     -22.235  -4.841  -9.206  0.00  0.00    -0.345 N 
HETATM    4  H           1     -22.200  -5.787  -9.562  0.00  0.00     0.163 HD
HETATM    5  O           1     -21.747  -3.423  -7.550  0.00  0.00    -0.271 OA
BRANCH   3   6
HETATM    6  C           1     -22.844  -3.790  -9.997  0.00  0.00     0.186 C 
BRANCH   6   7
HETATM    7  C           1     -22.517  -4.007 -11.468  0.00  0.00     0.046 C 
BRANCH   7   8
HETATM    8  C           1     -22.727  -2.707 -12.233  0.00  0.00     0.116 C 
BRANCH   8   9
HETATM    9  C           1     -23.772  -2.915 -13.302  0.00  0.00     0.172 C 
HETATM   10  O           1     -23.427  -3.052 -14.495  0.00  0.00    -0.648 OA
HETATM   11  O           1     -24.983  -2.950 -12.993  0.00  0.00    -0.648 OA
ENDBRANCH   8   9
ENDBRANCH   7   8
ENDBRANCH   6   7
BRANCH   6  12
HETATM   12  C           1     -24.341  -3.821  -9.805  0.00  0.00     0.196 C 
HETATM   13  O           1     -24.959  -2.767  -9.543  0.00  0.00    -0.646 OA
HETATM   14  O           1     -24.961  -4.901  -9.906  0.00  0.00    -0.646 OA
ENDBRANCH   6  12
ENDBRANCH   3   6
ENDBRANCH   1   2
BRANCH   1  15
HETATM   15  N           1     -19.734  -5.997  -7.732  0.00  0.00    -0.066 N 
HETATM   16  H           1     -19.310  -5.147  -8.168  0.00  0.00     0.275 HD
HETATM   17  H           1     -19.854  -6.740  -8.458  0.00  0.00     0.275 HD
HETATM   18  H           1     -19.107  -6.350  -6.974  0.00  0.00     0.275 HD
ENDBRANCH   1  15
BRANCH   1  19
HETATM   19  C           1     -20.892  -5.163  -5.718  0.00  0.00     0.081 C 
BRANCH  19  20
HETATM   20  C           1     -21.135  -6.300  -4.774  0.00  0.00    -0.056 A 
HETATM   21  C           1     -21.268  -7.598  -5.266  0.00  0.00     0.010 A 
HETATM   22  C           1     -21.495  -8.657  -4.385  0.00  0.00     0.037 A 
HETATM   23  C           1     -21.588  -8.417  -3.015  0.00  0.00     0.065 A 
HETATM   24  C           1     -21.456  -7.118  -2.524  0.00  0.00     0.037 A 
HETATM   25  C           1     -21.229  -6.059  -3.404  0.00  0.00     0.010 A 
BRANCH  23  26
HETATM   26  O           1     -21.809  -9.445  -2.160  0.00  0.00    -0.361 OA
HETATM   27  H           1     -21.100 -10.097  -2.286  0.00  0.00     0.217 HD
ENDBRANCH  23  26
ENDBRANCH  19  20
ENDBRANCH   1  19
TORSDOF 10
ENDMDL
MODEL 2
REMARK VINA RESULT:      -7.7      2.395      8.406
REMARK  10 active torsions:
REMARK  status: ('A' for Active; 'I' for Inactive)
REMARK    1  A    between atoms: C_1  and  O_20 
REMARK    2  A    between atoms: C_3  and  C_9 
REMARK       I    between atoms: C_4  and  N_15 
REMARK    3  A    between atoms: C_4  and  C_22 
REMARK    4  A    between atoms: C_9  and  C_10 
REMARK    5  A    between atoms: C_10  and  C_18 
REMARK    6  A    between atoms: N_15  and  C_18 
REMARK    7  A    between atoms: C_18  and  C_23 
REMARK    8  A    between atoms: N_19  and  C_22 
REMARK    9  A    between atoms: C_22  and  C_26 
REMARK   10  A    between atoms: C_25  and  C_26 
ROOT
HETATM    1  C           1     -22.093  -5.272  -6.792  0.00  0.00     0.278 C 
ENDROOT
BRANCH   1   2
HETATM    2  C           1     -21.228  -5.841  -5.694  0.00  0.00     0.249 C 
HETATM    3  N           1     -21.198  -7.193  -5.477  0.00  0.00    -0.345 N 
HETATM    4  H           1     -21.755  -7.810  -6.053  0.00  0.00     0.163 HD
HETATM    5  O           1     -20.563  -5.104  -5.006  0.00  0.00    -0.271 OA
BRANCH   3   6
HETATM    6  C           1     -20.366  -7.739  -4.422  0.00  0.00     0.186 C 
BRANCH   6   7
HETATM    7  C           1     -21.251  -8.319  -3.327  0.00  0.00     0.046 C 
BRANCH   7   8
HETATM    8  C           1     -20.962  -7.609  -2.011  0.00  0.00     0.116 C 
BRANCH   8   9
HETATM    9  C           1     -22.140  -6.744  -1.635  0.00  0.00     0.172 C 
HETATM   10  O           1     -22.789  -6.990  -0.596  0.00  0.00    -0.648 OA
HETATM   11  O           1     -22.467  -5.782  -2.364  0.00  0.00    -0.648 OA
ENDBRANCH   8   9
ENDBRANCH   7   8
ENDBRANCH   6   7
BRANCH   6  12
HETATM   12  C           1     -19.489  -8.828  -4.989  0.00  0.00     0.196 C 
HETATM   13  O           1     -19.310  -9.885  -4.344  0.00  0.00    -0.646 OA
HETATM   14  O           1     -18.940  -8.674  -6.101  0.00  0.00    -0.646 OA
ENDBRANCH   6  12
ENDBRANCH   3   6
ENDBRANCH   1   2
BRANCH   1  15
HETATM   15  N           1     -23.473  -5.021  -6.261  0.00  0.00    -0.066 N 
HETATM   16  H           1     -24.165  -5.094  -7.041  0.00  0.00     0.275 HD
HETATM   17  H           1     -23.517  -4.064  -5.844  0.00  0.00     0.275 HD
HETATM   18  H           1     -23.699  -5.730  -5.528  0.00  0.00     0.275 HD
ENDBRANCH   1  15
BRANCH   1  19
HETATM   19  C           1     -21.493  -3.961  -7.284  0.00  0.00     0.081 C 
BRANCH  19  20
HETATM   20  C           1     -21.553  -3.915  -8.779  0.00  0.00    -0.056 A 
HETATM   21  C           1     -20.415  -4.202  -9.532  0.00  0.00     0.010 A 
HETATM   22  C           1     -20.471  -4.158 -10.926  0.00  0.00     0.037 A 
HETATM   23  C           1     -21.666  -3.828 -11.565  0.00  0.00     0.065 A 
HETATM   24  C           1     -22.803  -3.540 -10.811  0.00  0.00     0.037 A 
HETATM   25  C           1     -22.748  -3.583  -9.418  0.00  0.00     0.010 A 
BRANCH  23  26
HETATM   26  O           1     -21.721  -3.785 -12.918  0.00  0.00    -0.361 OA
HETATM   27  H           1     -20.867  -4.094 -13.262  0.00  0.00     0.217 HD
ENDBRANCH  23  26
ENDBRANCH  19  20
ENDBRANCH   1  19
TORSDOF 10
ENDMDL
MODEL 3
REMARK VINA RESULT:      -7.4      1.956      8.635
REMARK  10 active torsions:
REMARK  status: ('A' for Active; 'I' for Inactive)
REMARK    1  A    between atoms: C_1  and  O_20 
REMARK    2  A    between atoms: C_3  and  C_9 
REMARK       I    between atoms: C_4  and  N_15 
REMARK    3  A    between atoms: C_4  and  C_22 
REMARK    4  A    between atoms: C_9  and  C_10 
REMARK    5  A    between atoms: C_10  and  C_18 
REMARK    6  A    between atoms: N_15  and  C_18 
REMARK    7  A    between atoms: C_18  and  C_23 
REMARK    8  A    between atoms: N_19  and  C_22 
REMARK    9  A    between atoms: C_22  and  C_26 
REMARK   10  A    between atoms: C_25  and  C_26 
ROOT
HETATM    1  C           1     -21.785  -4.398  -7.350  0.00  0.00     0.278 C 
ENDROOT
BRANCH   1   2
HETATM    2  C           1     -21.078  -5.139  -6.241  0.00  0.00     0.249 C 
HETATM    3  N           1     -21.650  -6.254  -5.690  0.00  0.00    -0.345 N 
HETATM    4  H           1     -22.547  -6.581  -6.026  0.00  0.00     0.163 HD
HETATM    5  O           1     -20.008  -4.748  -5.841  0.00  0.00    -0.271 OA
BRANCH   3   6
HETATM    6  C           1     -20.971  -6.966  -4.625  0.00  0.00     0.186 C 
BRANCH   6   7
HETATM    7  C           1     -21.973  -7.334  -3.540  0.00  0.00     0.046 C 
BRANCH   7   8
HETATM    8  C           1     -21.797  -6.401  -2.348  0.00  0.00     0.116 C 
BRANCH   8   9
HETATM    9  C           1     -21.938  -7.188  -1.068  0.00  0.00     0.172 C 
HETATM   10  O           1     -22.977  -7.084  -0.382  0.00  0.00    -0.648 OA
HETATM   11  O           1     -21.015  -7.944  -0.694  0.00  0.00    -0.648 OA
ENDBRANCH   8   9
ENDBRANCH   7   8
ENDBRANCH   6   7
BRANCH   6  12
HETATM   12  C           1     -20.347  -8.223  -5.181  0.00  0.00     0.196 C 
HETATM   13  O           1     -20.843  -9.338  -4.910  0.00  0.00    -0.646 OA
HETATM   14  O           1     -19.335  -8.149  -5.910  0.00  0.00    -0.646 OA
ENDBRANCH   6  12
ENDBRANCH   3   6
ENDBRANCH   1   2
BRANCH   1  15
HETATM   15  N           1     -21.602  -2.921  -7.160  0.00  0.00    -0.066 N 
HETATM   16  H           1     -20.624  -2.729  -6.846  0.00  0.00     0.275 HD
HETATM   17  H           1     -22.275  -2.577  -6.438  0.00  0.00     0.275 HD
HETATM   18  H           1     -21.780  -2.429  -8.064  0.00  0.00     0.275 HD
ENDBRANCH   1  15
BRANCH   1  19
HETATM   19  C           1     -21.197  -4.813  -8.693  0.00  0.00     0.081 C 
BRANCH  19  20
HETATM   20  C           1     -21.967  -4.158  -9.798  0.00  0.00    -0.056 A 
HETATM   21  C           1     -21.290  -3.553 -10.856  0.00  0.00     0.010 A 
HETATM   22  C           1     -22.009  -2.943 -11.885  0.00  0.00     0.037 A 
HETATM   23  C           1     -23.404  -2.939 -11.855  0.00  0.00     0.065 A 
HETATM   24  C           1     -24.079  -3.544 -10.796  0.00  0.00     0.037 A 
HETATM   25  C           1     -23.362  -4.154  -9.767  0.00  0.00     0.010 A 
BRANCH  23  26
HETATM   26  O           1     -24.101  -2.346 -12.854  0.00  0.00    -0.361 OA
HETATM   27  H           1     -23.502  -1.737 -13.317  0.00  0.00     0.217 HD
ENDBRANCH  23  26
ENDBRANCH  19  20
ENDBRANCH   1  19
TORSDOF 10
ENDMDL
MODEL 4
REMARK VINA RESULT:      -7.2      1.964      3.079
REMARK  10 active torsions:
REMARK  status: ('A' for Active; 'I' for Inactive)
REMARK    1  A    between atoms: C_1  and  O_20 
REMARK    2  A    between atoms: C_3  and  C_9 
REMARK       I    between atoms: C_4  and  N_15 
REMARK    3  A    between atoms: C_4  and  C_22 
REMARK    4  A    between atoms: C_9  and  C_10 
REMARK    5  A    between atoms: C_10  and  C_18 
REMARK    6  A    between atoms: N_15  and  C_18 
REMARK    7  A    between atoms: C_18  and  C_23 
REMARK    8  A    between atoms: N_19  and  C_22 
REMARK    9  A    between atoms: C_22  and  C_26 
REMARK   10  A    between atoms: C_25  and  C_26 
ROOT
HETATM    1  C           1     -21.552  -5.933  -5.265  0.00  0.00     0.278 C 
ENDROOT
BRANCH   1   2
HETATM    2  C           1     -21.197  -5.941  -6.732  0.00  0.00     0.249 C 
HETATM    3  N           1     -21.807  -5.063  -7.588  0.00  0.00    -0.345 N 
HETATM    4  H           1     -22.495  -4.409  -7.237  0.00  0.00     0.163 HD
HETATM    5  O           1     -20.377  -6.722  -7.150  0.00  0.00    -0.271 OA
BRANCH   3   6
HETATM    6  C           1     -21.466  -5.070  -8.997  0.00  0.00     0.186 C 
BRANCH   6   7
HETATM    7  C           1     -22.720  -4.827  -9.824  0.00  0.00     0.046 C 
BRANCH   7   8
HETATM    8  C           1     -23.591  -3.785  -9.134  0.00  0.00     0.116 C 
BRANCH   8   9
HETATM    9  C           1     -24.620  -3.264 -10.107  0.00  0.00     0.172 C 
HETATM   10  O           1     -24.275  -2.920 -11.258  0.00  0.00    -0.648 OA
HETATM   11  O           1     -25.818  -3.176  -9.762  0.00  0.00    -0.648 OA
ENDBRANCH   8   9
ENDBRANCH   7   8
ENDBRANCH   6   7
BRANCH   6  12
HETATM   12  C           1     -20.460  -3.980  -9.275  0.00  0.00     0.196 C 
HETATM   13  O           1     -19.716  -3.568  -8.358  0.00  0.00    -0.646 OA
HETATM   14  O           1     -20.373  -3.487 -10.420  0.00  0.00    -0.646 OA
ENDBRANCH   6  12
ENDBRANCH   3   6
ENDBRANCH   1   2
BRANCH   1  15
HETATM   15  N           1     -23.001  -6.286  -5.099  0.00  0.00    -0.066 N 
HETATM   16  H           1     -23.472  -5.560  -4.514  0.00  0.00     0.275 HD
HETATM   17  H           1     -23.081  -7.218  -4.631  0.00  0.00     0.275 HD
HETATM   18  H           1     -23.458  -6.328  -6.037  0.00  0.00     0.275 HD
ENDBRANCH   1  15
BRANCH   1  19
HETATM   19  C           1     -20.694  -6.955  -4.529  0.00  0.00     0.081 C 
BRANCH  19  20
HETATM   20  C           1     -21.280  -7.215  -3.176  0.00  0.00    -0.056 A 
HETATM   21  C           1     -21.389  -8.523  -2.704  0.00  0.00     0.010 A 
HETATM   22  C           1     -21.935  -8.765  -1.442  0.00  0.00     0.037 A 
HETATM   23  C           1     -22.370  -7.699  -0.654  0.00  0.00     0.065 A 
HETATM   24  C           1     -22.261  -6.392  -1.128  0.00  0.00     0.037 A 
HETATM   25  C           1     -21.715  -6.150  -2.389  0.00  0.00     0.010 A 
BRANCH  23  26
HETATM   26  O           1     -22.901  -7.935   0.570  0.00  0.00    -0.361 OA
HETATM   27  H           1     -23.131  -7.078   0.967  0.00  0.00     0.217 HD
ENDBRANCH  23  26
ENDBRANCH  19  20
ENDBRANCH   1  19
TORSDOF 10
ENDMDL
MODEL 5
REMARK VINA RESULT:      -6.9     12.246     14.742
REMARK  10 active torsions:
REMARK  status: ('A' for Active; 'I' for Inactive)
REMARK    1  A    between atoms: C_1  and  O_20 
REMARK    2  A    between atoms: C_3  and  C_9 
REMARK       I    between atoms: C_4  and  N_15 
REMARK    3  A    between atoms: C_4  and  C_22 
REMARK    4  A    between atoms: C_9  and  C_10 
REMARK    5  A    between atoms: C_10  and  C_18 
REMARK    6  A    between atoms: N_15  and  C_18 
REMARK    7  A    between atoms: C_18  and  C_23 
REMARK    8  A    between atoms: N_19  and  C_22 
REMARK    9  A    between atoms: C_22  and  C_26 
REMARK   10  A    between atoms: C_25  and  C_26 
ROOT
HETATM    1  C           1     -35.763  -0.727 -11.261  0.00  0.00     0.278 C 
ENDROOT
BRANCH   1   2
HETATM    2  C           1     -36.126  -0.804 -12.724  0.00  0.00     0.249 C 
HETATM    3  N           1     -35.141  -0.787 -13.675  0.00  0.00    -0.345 N 
HETATM    4  H           1     -34.170  -0.723 -13.397  0.00  0.00     0.163 HD
HETATM    5  O           1     -37.284  -0.879 -13.056  0.00  0.00    -0.271 OA
BRANCH   3   6
HETATM    6  C           1     -35.489  -0.861 -15.080  0.00  0.00     0.186 C 
BRANCH   6   7
HETATM    7  C           1     -34.922   0.349 -15.809  0.00  0.00     0.046 C 
BRANCH   7   8
HETATM    8  C           1     -35.524   1.621 -15.228  0.00  0.00     0.116 C 
BRANCH   8   9
HETATM    9  C           1     -36.601   2.136 -16.151  0.00  0.00     0.172 C 
HETATM   10  O           1     -37.716   1.572 -16.187  0.00  0.00    -0.648 OA
HETATM   11  O           1     -36.378   3.126 -16.882  0.00  0.00    -0.648 OA
ENDBRANCH   8   9
ENDBRANCH   7   8
ENDBRANCH   6   7
BRANCH   6  12
HETATM   12  C           1     -34.911  -2.123 -15.674  0.00  0.00     0.196 C 
HETATM   13  O           1     -34.630  -3.090 -14.933  0.00  0.00    -0.646 OA
HETATM   14  O           1     -34.712  -2.200 -16.905  0.00  0.00    -0.646 OA
ENDBRANCH   6  12
ENDBRANCH   3   6
ENDBRANCH   1   2
BRANCH   1  15
HETATM   15  N           1     -36.505   0.410 -10.622  0.00  0.00    -0.066 N 
HETATM   16  H           1     -36.873   1.047 -11.364  0.00  0.00     0.275 HD
HETATM   17  H           1     -35.857   0.941  -9.996  0.00  0.00     0.275 HD
HETATM   18  H           1     -37.301   0.035 -10.059  0.00  0.00     0.275 HD
ENDBRANCH   1  15
BRANCH   1  19
HETATM   19  C           1     -36.146  -2.031 -10.573  0.00  0.00     0.081 C 
BRANCH  19  20
HETATM   20  C           1     -35.116  -3.075 -10.876  0.00  0.00    -0.056 A 
HETATM   21  C           1     -35.475  -4.422 -10.900  0.00  0.00     0.010 A 
HETATM   22  C           1     -34.514  -5.395 -11.182  0.00  0.00     0.037 A 
HETATM   23  C           1     -33.196  -5.018 -11.439  0.00  0.00     0.065 A 
HETATM   24  C           1     -32.838  -3.671 -11.414  0.00  0.00     0.037 A 
HETATM   25  C           1     -33.798  -2.698 -11.132  0.00  0.00     0.010 A 
BRANCH  23  26
HETATM   26  O           1     -32.263  -5.963 -11.712  0.00  0.00    -0.361 OA
HETATM   27  H           1     -31.417  -5.664 -11.340  0.00  0.00     0.217 HD
ENDBRANCH  23  26
ENDBRANCH  19  20
ENDBRANCH   1  19
TORSDOF 10
ENDMDL
MODEL 6
REMARK VINA RESULT:      -6.9      2.320      8.367
REMARK  10 active torsions:
REMARK  status: ('A' for Active; 'I' for Inactive)
REMARK    1  A    between atoms: C_1  and  O_20 
REMARK    2  A    between atoms: C_3  and  C_9 
REMARK       I    between atoms: C_4  and  N_15 
REMARK    3  A    between atoms: C_4  and  C_22 
REMARK    4  A    between atoms: C_9  and  C_10 
REMARK    5  A    between atoms: C_10  and  C_18 
REMARK    6  A    between atoms: N_15  and  C_18 
REMARK    7  A    between atoms: C_18  and  C_23 
REMARK    8  A    between atoms: N_19  and  C_22 
REMARK    9  A    between atoms: C_22  and  C_26 
REMARK   10  A    between atoms: C_25  and  C_26 
ROOT
HETATM    1  C           1     -20.947  -4.868  -6.442  0.00  0.00     0.278 C 
ENDROOT
BRANCH   1   2
HETATM    2  C           1     -21.661  -5.818  -5.511  0.00  0.00     0.249 C 
HETATM    3  N           1     -20.941  -6.601  -4.649  0.00  0.00    -0.345 N 
HETATM    4  H           1     -19.931  -6.543  -4.635  0.00  0.00     0.163 HD
HETATM    5  O           1     -22.866  -5.887  -5.528  0.00  0.00    -0.271 OA
BRANCH   3   6
HETATM    6  C           1     -21.628  -7.513  -3.755  0.00  0.00     0.186 C 
BRANCH   6   7
HETATM    7  C           1     -20.904  -8.853  -3.743  0.00  0.00     0.046 C 
BRANCH   7   8
HETATM    8  C           1     -19.656  -8.765  -4.611  0.00  0.00     0.116 C 
BRANCH   8   9
HETATM    9  C           1     -18.493  -9.398  -3.887  0.00  0.00     0.172 C 
HETATM   10  O           1     -17.719 -10.165  -4.498  0.00  0.00    -0.648 OA
HETATM   11  O           1     -18.305  -9.155  -2.675  0.00  0.00    -0.648 OA
ENDBRANCH   8   9
ENDBRANCH   7   8
ENDBRANCH   6   7
BRANCH   6  12
HETATM   12  C           1     -21.639  -6.935  -2.361  0.00  0.00     0.196 C 
HETATM   13  O           1     -20.971  -7.479  -1.454  0.00  0.00    -0.646 OA
HETATM   14  O           1     -22.316  -5.915  -2.113  0.00  0.00    -0.646 OA
ENDBRANCH   6  12
ENDBRANCH   3   6
ENDBRANCH   1   2
BRANCH   1  15
HETATM   15  N           1     -19.655  -4.433  -5.815  0.00  0.00    -0.066 N 
HETATM   16  H           1     -18.889  -5.079  -6.110  0.00  0.00     0.275 HD
HETATM   17  H           1     -19.749  -4.454  -4.774  0.00  0.00     0.275 HD
HETATM   18  H           1     -19.428  -3.461  -6.124  0.00  0.00     0.275 HD
ENDBRANCH   1  15
BRANCH   1  19
HETATM   19  C           1     -20.658  -5.572  -7.762  0.00  0.00     0.081 C 
BRANCH  19  20
HETATM   20  C           1     -21.201  -4.754  -8.892  0.00  0.00    -0.056 A 
HETATM   21  C           1     -20.378  -4.413  -9.965  0.00  0.00     0.010 A 
HETATM   22  C           1     -20.886  -3.651 -11.018  0.00  0.00     0.037 A 
HETATM   23  C           1     -22.216  -3.231 -10.997  0.00  0.00     0.065 A 
HETATM   24  C           1     -23.037  -3.571  -9.924  0.00  0.00     0.037 A 
HETATM   25  C           1     -22.531  -4.333  -8.870  0.00  0.00     0.010 A 
BRANCH  23  26
HETATM   26  O           1     -22.708  -2.490 -12.020  0.00  0.00    -0.361 OA
HETATM   27  H           1     -22.299  -2.805 -12.842  0.00  0.00     0.217 HD
ENDBRANCH  23  26
ENDBRANCH  19  20
ENDBRANCH   1  19
TORSDOF 10
ENDMDL
MODEL 7
REMARK VINA RESULT:      -6.9     12.287     14.537
REMARK  10 active torsions:
REMARK  status: ('A' for Active; 'I' for Inactive)
REMARK    1  A    between atoms: C_1  and  O_20 
REMARK    2  A    between atoms: C_3  and  C_9 
REMARK       I    between atoms: C_4  and  N_15 
REMARK    3  A    between atoms: C_4  and  C_22 
REMARK    4  A    between atoms: C_9  and  C_10 
REMARK    5  A    between atoms: C_10  and  C_18 
REMARK    6  A    between atoms: N_15  and  C_18 
REMARK    7  A    between atoms: C_18  and  C_23 
REMARK    8  A    between atoms: N_19  and  C_22 
REMARK    9  A    between atoms: C_22  and  C_26 
REMARK   10  A    between atoms: C_25  and  C_26 
ROOT
HETATM    1  C           1     -35.483  -0.584 -11.520  0.00  0.00     0.278 C 
ENDROOT
BRANCH   1   2
HETATM    2  C           1     -35.780  -0.560 -13.000  0.00  0.00     0.249 C 
HETATM    3  N           1     -34.858  -0.050 -13.875  0.00  0.00    -0.345 N 
HETATM    4  H           1     -33.977   0.309 -13.529  0.00  0.00     0.163 HD
HETATM    5  O           1     -36.831  -0.989 -13.412  0.00  0.00    -0.271 OA
BRANCH   3   6
HETATM    6  C           1     -35.143  -0.028 -15.296  0.00  0.00     0.186 C 
BRANCH   6   7
HETATM    7  C           1     -35.804  -1.337 -15.702  0.00  0.00     0.046 C 
BRANCH   7   8
HETATM    8  C           1     -35.225  -1.809 -17.030  0.00  0.00     0.116 C 
BRANCH   8   9
HETATM    9  C           1     -34.178  -2.865 -16.775  0.00  0.00     0.172 C 
HETATM   10  O           1     -34.314  -3.664 -15.824  0.00  0.00    -0.648 OA
HETATM   11  O           1     -33.173  -2.940 -17.515  0.00  0.00    -0.648 OA
ENDBRANCH   8   9
ENDBRANCH   7   8
ENDBRANCH   6   7
BRANCH   6  12
HETATM   12  C           1     -36.072   1.122 -15.603  0.00  0.00     0.196 C 
HETATM   13  O           1     -35.651   2.298 -15.545  0.00  0.00    -0.646 OA
HETATM   14  O           1     -37.262   0.898 -15.912  0.00  0.00    -0.646 OA
ENDBRANCH   6  12
ENDBRANCH   3   6
ENDBRANCH   1   2
BRANCH   1  15
HETATM   15  N           1     -36.107   0.613 -10.866  0.00  0.00    -0.066 N 
HETATM   16  H           1     -36.954   0.315 -10.331  0.00  0.00     0.275 HD
HETATM   17  H           1     -36.383   1.305 -11.599  0.00  0.00     0.275 HD
HETATM   18  H           1     -35.419   1.052 -10.214  0.00  0.00     0.275 HD
ENDBRANCH   1  15
BRANCH   1  19
HETATM   19  C           1     -36.059  -1.855 -10.908  0.00  0.00     0.081 C 
BRANCH  19  20
HETATM   20  C           1     -35.081  -2.976 -11.074  0.00  0.00    -0.056 A 
HETATM   21  C           1     -35.499  -4.296 -10.905  0.00  0.00     0.010 A 
HETATM   22  C           1     -34.586  -5.341 -11.060  0.00  0.00     0.037 A 
HETATM   23  C           1     -33.258  -5.065 -11.384  0.00  0.00     0.065 A 
HETATM   24  C           1     -32.842  -3.745 -11.551  0.00  0.00     0.037 A 
HETATM   25  C           1     -33.753  -2.699 -11.397  0.00  0.00     0.010 A 
BRANCH  23  26
HETATM   26  O           1     -32.373  -6.079 -11.533  0.00  0.00    -0.361 OA
HETATM   27  H           1     -31.974  -6.259 -10.666  0.00  0.00     0.217 HD
ENDBRANCH  23  26
ENDBRANCH  19  20
ENDBRANCH   1  19
TORSDOF 10
ENDMDL
MODEL 8
REMARK VINA RESULT:      -6.8      2.216      8.130
REMARK  10 active torsions:
REMARK  status: ('A' for Active; 'I' for Inactive)
REMARK    1  A    between atoms: C_1  and  O_20 
REMARK    2  A    between atoms: C_3  and  C_9 
REMARK       I    between atoms: C_4  and  N_15 
REMARK    3  A    between atoms: C_4  and  C_22 
REMARK    4  A    between atoms: C_9  and  C_10 
REMARK    5  A    between atoms: C_10  and  C_18 
REMARK    6  A    between atoms: N_15  and  C_18 
REMARK    7  A    between atoms: C_18  and  C_23 
REMARK    8  A    between atoms: N_19  and  C_22 
REMARK    9  A    between atoms: C_22  and  C_26 
REMARK   10  A    between atoms: C_25  and  C_26 
ROOT
HETATM    1  C           1     -20.865  -4.841  -6.548  0.00  0.00     0.278 C 
ENDROOT
BRANCH   1   2
HETATM    2  C           1     -21.594  -5.785  -5.622  0.00  0.00     0.249 C 
HETATM    3  N           1     -20.886  -6.592  -4.772  0.00  0.00    -0.345 N 
HETATM    4  H           1     -19.875  -6.556  -4.764  0.00  0.00     0.163 HD
HETATM    5  O           1     -22.800  -5.829  -5.632  0.00  0.00    -0.271 OA
BRANCH   3   6
HETATM    6  C           1     -21.586  -7.499  -3.883  0.00  0.00     0.186 C 
BRANCH   6   7
HETATM    7  C           1     -20.853  -8.833  -3.838  0.00  0.00     0.046 C 
BRANCH   7   8
HETATM    8  C           1     -21.862  -9.970  -3.926  0.00  0.00     0.116 C 
BRANCH   8   9
HETATM    9  C           1     -21.475 -10.900  -5.049  0.00  0.00     0.172 C 
HETATM   10  O           1     -20.838 -10.463  -6.031  0.00  0.00    -0.648 OA
HETATM   11  O           1     -21.792 -12.109  -4.998  0.00  0.00    -0.648 OA
ENDBRANCH   8   9
ENDBRANCH   7   8
ENDBRANCH   6   7
BRANCH   6  12
HETATM   12  C           1     -21.633  -6.904  -2.496  0.00  0.00     0.196 C 
HETATM   13  O           1     -22.376  -5.925  -2.262  0.00  0.00    -0.646 OA
HETATM   14  O           1     -20.929  -7.387  -1.584  0.00  0.00    -0.646 OA
ENDBRANCH   6  12
ENDBRANCH   3   6
ENDBRANCH   1   2
BRANCH   1  15
HETATM   15  N           1     -19.559  -4.443  -5.927  0.00  0.00    -0.066 N 
HETATM   16  H           1     -18.783  -4.624  -6.603  0.00  0.00     0.275 HD
HETATM   17  H           1     -19.402  -5.002  -5.058  0.00  0.00     0.275 HD
HETATM   18  H           1     -19.582  -3.427  -5.687  0.00  0.00     0.275 HD
ENDBRANCH   1  15
BRANCH   1  19
HETATM   19  C           1     -20.603  -5.536  -7.878  0.00  0.00     0.081 C 
BRANCH  19  20
HETATM   20  C           1     -21.185  -4.719  -8.990  0.00  0.00    -0.056 A 
HETATM   21  C           1     -22.520  -4.322  -8.939  0.00  0.00     0.010 A 
HETATM   22  C           1     -23.061  -3.560  -9.976  0.00  0.00     0.037 A 
HETATM   23  C           1     -22.266  -3.197 -11.062  0.00  0.00     0.065 A 
HETATM   24  C           1     -20.931  -3.595 -11.113  0.00  0.00     0.037 A 
HETATM   25  C           1     -20.389  -4.356 -10.077  0.00  0.00     0.010 A 
BRANCH  23  26
HETATM   26  O           1     -22.792  -2.458 -12.069  0.00  0.00    -0.361 OA
HETATM   27  H           1     -22.242  -2.593 -12.859  0.00  0.00     0.217 HD
ENDBRANCH  23  26
ENDBRANCH  19  20
ENDBRANCH   1  19
TORSDOF 10
ENDMDL
MODEL 9
REMARK VINA RESULT:      -6.4     10.816     13.711
REMARK  10 active torsions:
REMARK  status: ('A' for Active; 'I' for Inactive)
REMARK    1  A    between atoms: C_1  and  O_20 
REMARK    2  A    between atoms: C_3  and  C_9 
REMARK       I    between atoms: C_4  and  N_15 
REMARK    3  A    between atoms: C_4  and  C_22 
REMARK    4  A    between atoms: C_9  and  C_10 
REMARK    5  A    between atoms: C_10  and  C_18 
REMARK    6  A    between atoms: N_15  and  C_18 
REMARK    7  A    between atoms: C_18  and  C_23 
REMARK    8  A    between atoms: N_19  and  C_22 
REMARK    9  A    between atoms: C_22  and  C_26 
REMARK   10  A    between atoms: C_25  and  C_26 
ROOT
HETATM    1  C           1     -26.895  -7.361 -19.776  0.00  0.00     0.278 C 
ENDROOT
BRANCH   1   2
HETATM    2  C           1     -27.773  -6.510 -18.891  0.00  0.00     0.249 C 
HETATM    3  N           1     -28.275  -7.027 -17.725  0.00  0.00    -0.345 N 
HETATM    4  H           1     -28.057  -7.978 -17.458  0.00  0.00     0.163 HD
HETATM    5  O           1     -28.033  -5.376 -19.210  0.00  0.00    -0.271 OA
BRANCH   3   6
HETATM    6  C           1     -29.118  -6.209 -16.875  0.00  0.00     0.186 C 
BRANCH   6   7
HETATM    7  C           1     -30.567  -6.655 -17.017  0.00  0.00     0.046 C 
BRANCH   7   8
HETATM    8  C           1     -31.336  -5.629 -17.839  0.00  0.00     0.116 C 
BRANCH   8   9
HETATM    9  C           1     -31.585  -4.398 -17.002  0.00  0.00     0.172 C 
HETATM   10  O           1     -32.160  -4.500 -15.897  0.00  0.00    -0.648 OA
HETATM   11  O           1     -31.217  -3.277 -17.415  0.00  0.00    -0.648 OA
ENDBRANCH   8   9
ENDBRANCH   7   8
ENDBRANCH   6   7
BRANCH   6  12
HETATM   12  C           1     -28.682  -6.365 -15.439  0.00  0.00     0.196 C 
HETATM   13  O           1     -29.055  -5.537 -14.579  0.00  0.00    -0.646 OA
HETATM   14  O           1     -27.948  -7.321 -15.108  0.00  0.00    -0.646 OA
ENDBRANCH   6  12
ENDBRANCH   3   6
ENDBRANCH   1   2
BRANCH   1  15
HETATM   15  N           1     -27.753  -8.266 -20.610  0.00  0.00    -0.066 N 
HETATM   16  H           1     -27.978  -9.130 -20.067  0.00  0.00     0.275 HD
HETATM   17  H           1     -27.241  -8.524 -21.483  0.00  0.00     0.275 HD
HETATM   18  H           1     -28.640  -7.772 -20.860  0.00  0.00     0.275 HD
ENDBRANCH   1  15
BRANCH   1  19
HETATM   19  C           1     -26.071  -6.462 -20.688  0.00  0.00     0.081 C 
BRANCH  19  20
HETATM   20  C           1     -24.840  -7.192 -21.129  0.00  0.00    -0.056 A 
HETATM   21  C           1     -24.560  -7.330 -22.487  0.00  0.00     0.010 A 
HETATM   22  C           1     -23.412  -8.011 -22.897  0.00  0.00     0.037 A 
HETATM   23  C           1     -22.547  -8.553 -21.947  0.00  0.00     0.065 A 
HETATM   24  C           1     -22.829  -8.416 -20.589  0.00  0.00     0.037 A 
HETATM   25  C           1     -23.975  -7.735 -20.178  0.00  0.00     0.010 A 
BRANCH  23  26
HETATM   26  O           1     -21.433  -9.215 -22.346  0.00  0.00    -0.361 OA
HETATM   27  H           1     -21.671  -9.769 -23.108  0.00  0.00     0.217 HD
ENDBRANCH  23  26
ENDBRANCH  19  20
ENDBRANCH   1  19
TORSDOF 10
ENDMDL
