MODEL 1
REMARK VINA RESULT:      -5.3      0.000      0.000
REMARK  4 active torsions:
REMARK  status: ('A' for Active; 'I' for Inactive)
REMARK    1  A    between atoms: N_1  and  C_6 
REMARK       I    between atoms: N_1  and  C_2 
REMARK    2  A    between atoms: C_2  and  C_10 
REMARK    3  A    between atoms: C_4  and  C_6 
REMARK    4  A    between atoms: C_10  and  N_11 
ROOT
HETATM    1  N           1     -28.482  -7.576 -16.640  0.00  0.00    -0.350 N 
HETATM    2  C           1     -29.585  -6.923 -17.120  0.00  0.00     0.243 C 
HETATM    3  H           1     -28.173  -8.435 -17.075  0.00  0.00     0.163 HD
HETATM    4  O           1     -29.954  -5.898 -16.600  0.00  0.00    -0.272 OA
ENDROOT
BRANCH   2   5
HETATM    5  C           1     -30.341  -7.485 -18.300  0.00  0.00     0.332 C 
BRANCH   5   6
HETATM    6  N           1     -29.525  -8.563 -18.949  0.00  0.00    -0.071 N 
HETATM    7  H           1     -29.909  -8.764 -19.899  0.00  0.00     0.274 HD
HETATM    8  H           1     -29.566  -9.429 -18.365  0.00  0.00     0.274 HD
HETATM    9  H           1     -28.533  -8.247 -19.033  0.00  0.00     0.274 HD
ENDBRANCH   5   6
ENDBRANCH   2   5
BRANCH   1  10
HETATM   10  C           1     -27.757  -7.037 -15.506  0.00  0.00     0.235 C 
BRANCH  10  11
HETATM   11  C           1     -26.325  -6.772 -15.903  0.00  0.00     0.191 C 
HETATM   12  O           1     -25.403  -7.452 -15.404  0.00  0.00    -0.647 OA
HETATM   13  O           1     -26.062  -5.873 -16.730  0.00  0.00    -0.647 OA
ENDBRANCH  10  11
ENDBRANCH   1  10
TORSDOF 4
ENDMDL
MODEL 2
REMARK VINA RESULT:      -5.2      7.241      7.966
REMARK  4 active torsions:
REMARK  status: ('A' for Active; 'I' for Inactive)
REMARK    1  A    between atoms: N_1  and  C_6 
REMARK       I    between atoms: N_1  and  C_2 
REMARK    2  A    between atoms: C_2  and  C_10 
REMARK    3  A    between atoms: C_4  and  C_6 
REMARK    4  A    between atoms: C_10  and  N_11 
ROOT
HETATM    1  N           1     -23.814  -2.372 -12.947  0.00  0.00    -0.350 N 
HETATM    2  C           1     -23.605  -2.364 -14.299  0.00  0.00     0.243 C 
HETATM    3  H           1     -23.840  -1.500 -12.433  0.00  0.00     0.163 HD
HETATM    4  O           1     -23.575  -3.404 -14.911  0.00  0.00    -0.272 OA
ENDROOT
BRANCH   2   5
HETATM    5  C           1     -23.413  -1.055 -15.026  0.00  0.00     0.332 C 
BRANCH   5   6
HETATM    6  N           1     -24.615  -0.183 -14.813  0.00  0.00    -0.071 N 
HETATM    7  H           1     -24.711   0.034 -13.796  0.00  0.00     0.274 HD
HETATM    8  H           1     -25.470  -0.682 -15.146  0.00  0.00     0.274 HD
HETATM    9  H           1     -24.499   0.706 -15.349  0.00  0.00     0.274 HD
ENDBRANCH   5   6
ENDBRANCH   2   5
BRANCH   1  10
HETATM   10  C           1     -23.998  -3.629 -12.248  0.00  0.00     0.235 C 
BRANCH  10  11
HETATM   11  C           1     -24.180  -3.366 -10.774  0.00  0.00     0.191 C 
HETATM   12  O           1     -25.324  -3.165 -10.312  0.00  0.00    -0.647 OA
HETATM   13  O           1     -23.188  -3.348 -10.015  0.00  0.00    -0.647 OA
ENDBRANCH  10  11
ENDBRANCH   1  10
TORSDOF 4
ENDMDL
MODEL 3
REMARK VINA RESULT:      -5.1      7.669      8.399
REMARK  4 active torsions:
REMARK  status: ('A' for Active; 'I' for Inactive)
REMARK    1  A    between atoms: N_1  and  C_6 
REMARK       I    between atoms: N_1  and  C_2 
REMARK    2  A    between atoms: C_2  and  C_10 
REMARK    3  A    between atoms: C_4  and  C_6 
REMARK    4  A    between atoms: C_10  and  N_11 
ROOT
HETATM    1  N           1     -23.517  -2.676 -11.893  0.00  0.00    -0.350 N 
HETATM    2  C           1     -23.918  -3.657 -11.027  0.00  0.00     0.243 C 
HETATM    3  H           1     -23.838  -1.725 -11.765  0.00  0.00     0.163 HD
HETATM    4  O           1     -23.535  -4.791 -11.181  0.00  0.00    -0.272 OA
ENDROOT
BRANCH   2   5
HETATM    5  C           1     -24.840  -3.320  -9.880  0.00  0.00     0.332 C 
BRANCH   5   6
HETATM    6  N           1     -24.195  -3.720  -8.586  0.00  0.00    -0.071 N 
HETATM    7  H           1     -24.759  -3.351  -7.788  0.00  0.00     0.274 HD
HETATM    8  H           1     -23.228  -3.326  -8.543  0.00  0.00     0.274 HD
HETATM    9  H           1     -24.149  -4.762  -8.527  0.00  0.00     0.274 HD
ENDBRANCH   5   6
ENDBRANCH   2   5
BRANCH   1  10
HETATM   10  C           1     -22.632  -2.999 -12.996  0.00  0.00     0.235 C 
BRANCH  10  11
HETATM   11  C           1     -23.233  -2.503 -14.288  0.00  0.00     0.191 C 
HETATM   12  O           1     -22.661  -2.738 -15.374  0.00  0.00    -0.647 OA
HETATM   13  O           1     -24.303  -1.857 -14.272  0.00  0.00    -0.647 OA
ENDBRANCH  10  11
ENDBRANCH   1  10
TORSDOF 4
ENDMDL
MODEL 4
REMARK VINA RESULT:      -4.8      7.517      8.756
REMARK  4 active torsions:
REMARK  status: ('A' for Active; 'I' for Inactive)
REMARK    1  A    between atoms: N_1  and  C_6 
REMARK       I    between atoms: N_1  and  C_2 
REMARK    2  A    between atoms: C_2  and  C_10 
REMARK    3  A    between atoms: C_4  and  C_6 
REMARK    4  A    between atoms: C_10  and  N_11 
ROOT
HETATM    1  N           1     -23.673  -3.564 -11.494  0.00  0.00    -0.350 N 
HETATM    2  C           1     -24.026  -3.493 -10.173  0.00  0.00     0.243 C 
HETATM    3  H           1     -22.810  -4.017 -11.764  0.00  0.00     0.163 HD
HETATM    4  O           1     -25.056  -2.952  -9.851  0.00  0.00    -0.272 OA
ENDROOT
BRANCH   2   5
HETATM    5  C           1     -23.127  -4.092  -9.119  0.00  0.00     0.332 C 
BRANCH   5   6
HETATM    6  N           1     -23.848  -4.121  -7.804  0.00  0.00    -0.071 N 
HETATM    7  H           1     -23.790  -3.180  -7.355  0.00  0.00     0.274 HD
HETATM    8  H           1     -23.405  -4.834  -7.181  0.00  0.00     0.274 HD
HETATM    9  H           1     -24.849  -4.372  -7.962  0.00  0.00     0.274 HD
ENDBRANCH   5   6
ENDBRANCH   2   5
BRANCH   1  10
HETATM   10  C           1     -24.537  -2.989 -12.507  0.00  0.00     0.235 C 
BRANCH  10  11
HETATM   11  C           1     -23.701  -2.504 -13.666  0.00  0.00     0.191 C 
HETATM   12  O           1     -24.166  -1.658 -14.460  0.00  0.00    -0.647 OA
HETATM   13  O           1     -22.546  -2.950 -13.833  0.00  0.00    -0.647 OA
ENDBRANCH  10  11
ENDBRANCH   1  10
TORSDOF 4
ENDMDL
MODEL 5
REMARK VINA RESULT:      -4.7      7.586      8.364
REMARK  4 active torsions:
REMARK  status: ('A' for Active; 'I' for Inactive)
REMARK    1  A    between atoms: N_1  and  C_6 
REMARK       I    between atoms: N_1  and  C_2 
REMARK    2  A    between atoms: C_2  and  C_10 
REMARK    3  A    between atoms: C_4  and  C_6 
REMARK    4  A    between atoms: C_10  and  N_11 
ROOT
HETATM    1  N           1     -22.342  -3.288 -13.182  0.00  0.00    -0.350 N 
HETATM    2  C           1     -23.381  -2.585 -13.729  0.00  0.00     0.243 C 
HETATM    3  H           1     -21.429  -3.265 -13.619  0.00  0.00     0.163 HD
HETATM    4  O           1     -24.469  -2.612 -13.208  0.00  0.00    -0.272 OA
ENDROOT
BRANCH   2   5
HETATM    5  C           1     -23.166  -1.775 -14.985  0.00  0.00     0.332 C 
BRANCH   5   6
HETATM    6  N           1     -24.132  -0.628 -15.012  0.00  0.00    -0.071 N 
HETATM    7  H           1     -24.080  -0.152 -15.940  0.00  0.00     0.274 HD
HETATM    8  H           1     -23.888   0.051 -14.256  0.00  0.00     0.274 HD
HETATM    9  H           1     -25.102  -0.986 -14.859  0.00  0.00     0.274 HD
ENDBRANCH   5   6
ENDBRANCH   2   5
BRANCH   1  10
HETATM   10  C           1     -22.548  -4.066 -11.976  0.00  0.00     0.235 C 
BRANCH  10  11
HETATM   11  C           1     -21.624  -3.570 -10.891  0.00  0.00     0.191 C 
HETATM   12  O           1     -20.500  -3.110 -11.189  0.00  0.00    -0.647 OA
HETATM   13  O           1     -21.982  -3.618  -9.695  0.00  0.00    -0.647 OA
ENDBRANCH  10  11
ENDBRANCH   1  10
TORSDOF 4
ENDMDL
MODEL 6
REMARK VINA RESULT:      -4.7      7.579      9.067
REMARK  4 active torsions:
REMARK  status: ('A' for Active; 'I' for Inactive)
REMARK    1  A    between atoms: N_1  and  C_6 
REMARK       I    between atoms: N_1  and  C_2 
REMARK    2  A    between atoms: C_2  and  C_10 
REMARK    3  A    between atoms: C_4  and  C_6 
REMARK    4  A    between atoms: C_10  and  N_11 
ROOT
HETATM    1  N           1     -23.015  -3.142 -11.241  0.00  0.00    -0.350 N 
HETATM    2  C           1     -22.340  -3.836 -10.273  0.00  0.00     0.243 C 
HETATM    3  H           1     -23.867  -2.648 -11.008  0.00  0.00     0.163 HD
HETATM    4  O           1     -21.323  -4.425 -10.551  0.00  0.00    -0.272 OA
ENDROOT
BRANCH   2   5
HETATM    5  C           1     -22.866  -3.866  -8.859  0.00  0.00     0.332 C 
BRANCH   5   6
HETATM    6  N           1     -24.328  -3.532  -8.862  0.00  0.00    -0.071 N 
HETATM    7  H           1     -24.470  -2.593  -9.295  0.00  0.00     0.274 HD
HETATM    8  H           1     -24.684  -3.521  -7.879  0.00  0.00     0.274 HD
HETATM    9  H           1     -24.849  -4.252  -9.412  0.00  0.00     0.274 HD
ENDBRANCH   5   6
ENDBRANCH   2   5
BRANCH   1  10
HETATM   10  C           1     -22.510  -3.114 -12.599  0.00  0.00     0.235 C 
BRANCH  10  11
HETATM   11  C           1     -23.659  -2.945 -13.562  0.00  0.00     0.191 C 
HETATM   12  O           1     -23.455  -2.998 -14.794  0.00  0.00    -0.647 OA
HETATM   13  O           1     -24.815  -2.751 -13.128  0.00  0.00    -0.647 OA
ENDBRANCH  10  11
ENDBRANCH   1  10
TORSDOF 4
ENDMDL
MODEL 7
REMARK VINA RESULT:      -4.7      8.608      9.361
REMARK  4 active torsions:
REMARK  status: ('A' for Active; 'I' for Inactive)
REMARK    1  A    between atoms: N_1  and  C_6 
REMARK       I    between atoms: N_1  and  C_2 
REMARK    2  A    between atoms: C_2  and  C_10 
REMARK    3  A    between atoms: C_4  and  C_6 
REMARK    4  A    between atoms: C_10  and  N_11 
ROOT
HETATM    1  N           1     -30.716 -15.313 -20.373  0.00  0.00    -0.350 N 
HETATM    2  C           1     -30.929 -15.960 -21.560  0.00  0.00     0.243 C 
HETATM    3  H           1     -31.356 -14.591 -20.067  0.00  0.00     0.163 HD
HETATM    4  O           1     -30.165 -16.822 -21.923  0.00  0.00    -0.272 OA
ENDROOT
BRANCH   2   5
HETATM    5  C           1     -32.119 -15.598 -22.414  0.00  0.00     0.332 C 
BRANCH   5   6
HETATM    6  N           1     -32.112 -14.122 -22.683  0.00  0.00    -0.071 N 
HETATM    7  H           1     -32.427 -13.946 -23.663  0.00  0.00     0.274 HD
HETATM    8  H           1     -31.143 -13.750 -22.555  0.00  0.00     0.274 HD
HETATM    9  H           1     -32.759 -13.644 -22.017  0.00  0.00     0.274 HD
ENDBRANCH   5   6
ENDBRANCH   2   5
BRANCH   1  10
HETATM   10  C           1     -29.573 -15.661 -19.551  0.00  0.00     0.235 C 
BRANCH  10  11
HETATM   11  C           1     -29.270 -14.529 -18.601  0.00  0.00     0.191 C 
HETATM   12  O           1     -29.575 -13.356 -18.910  0.00  0.00    -0.647 OA
HETATM   13  O           1     -28.716 -14.763 -17.506  0.00  0.00    -0.647 OA
ENDBRANCH  10  11
ENDBRANCH   1  10
TORSDOF 4
ENDMDL
MODEL 8
REMARK VINA RESULT:      -4.6      4.033      5.098
REMARK  4 active torsions:
REMARK  status: ('A' for Active; 'I' for Inactive)
REMARK    1  A    between atoms: N_1  and  C_6 
REMARK       I    between atoms: N_1  and  C_2 
REMARK    2  A    between atoms: C_2  and  C_10 
REMARK    3  A    between atoms: C_4  and  C_6 
REMARK    4  A    between atoms: C_10  and  N_11 
ROOT
HETATM    1  N           1     -25.104  -7.089 -18.717  0.00  0.00    -0.350 N 
HETATM    2  C           1     -25.625  -6.575 -17.561  0.00  0.00     0.243 C 
HETATM    3  H           1     -24.318  -7.726 -18.679  0.00  0.00     0.163 HD
HETATM    4  O           1     -26.563  -5.815 -17.607  0.00  0.00    -0.272 OA
ENDROOT
BRANCH   2   5
HETATM    5  C           1     -25.028  -6.957 -16.228  0.00  0.00     0.332 C 
BRANCH   5   6
HETATM    6  N           1     -23.974  -8.004 -16.433  0.00  0.00    -0.071 N 
HETATM    7  H           1     -24.428  -8.908 -16.694  0.00  0.00     0.274 HD
HETATM    8  H           1     -23.431  -8.128 -15.549  0.00  0.00     0.274 HD
HETATM    9  H           1     -23.330  -7.705 -17.199  0.00  0.00     0.274 HD
ENDBRANCH   5   6
ENDBRANCH   2   5
BRANCH   1  10
HETATM   10  C           1     -25.677  -6.722 -19.997  0.00  0.00     0.235 C 
BRANCH  10  11
HETATM   11  C           1     -25.445  -7.833 -20.991  0.00  0.00     0.191 C 
HETATM   12  O           1     -24.298  -8.037 -21.445  0.00  0.00    -0.647 OA
HETATM   13  O           1     -26.400  -8.550 -21.361  0.00  0.00    -0.647 OA
ENDBRANCH  10  11
ENDBRANCH   1  10
TORSDOF 4
ENDMDL
MODEL 9
REMARK VINA RESULT:      -4.5      9.631     10.648
REMARK  4 active torsions:
REMARK  status: ('A' for Active; 'I' for Inactive)
REMARK    1  A    between atoms: N_1  and  C_6 
REMARK       I    between atoms: N_1  and  C_2 
REMARK    2  A    between atoms: C_2  and  C_10 
REMARK    3  A    between atoms: C_4  and  C_6 
REMARK    4  A    between atoms: C_10  and  N_11 
ROOT
HETATM    1  N           1     -34.920  -0.476 -14.140  0.00  0.00    -0.350 N 
HETATM    2  C           1     -35.487  -1.074 -13.047  0.00  0.00     0.243 C 
HETATM    3  H           1     -33.913  -0.447 -14.236  0.00  0.00     0.163 HD
HETATM    4  O           1     -36.688  -1.109 -12.933  0.00  0.00    -0.272 OA
ENDROOT
BRANCH   2   5
HETATM    5  C           1     -34.610  -1.691 -11.984  0.00  0.00     0.332 C 
BRANCH   5   6
HETATM    6  N           1     -35.129  -1.318 -10.628  0.00  0.00    -0.071 N 
HETATM    7  H           1     -36.157  -1.498 -10.587  0.00  0.00     0.274 HD
HETATM    8  H           1     -34.944  -0.305 -10.451  0.00  0.00     0.274 HD
HETATM    9  H           1     -34.647  -1.892  -9.900  0.00  0.00     0.274 HD
ENDBRANCH   5   6
ENDBRANCH   2   5
BRANCH   1  10
HETATM   10  C           1     -35.762   0.116 -15.161  0.00  0.00     0.235 C 
BRANCH  10  11
HETATM   11  C           1     -35.848  -0.813 -16.346  0.00  0.00     0.191 C 
HETATM   12  O           1     -34.916  -1.612 -16.583  0.00  0.00    -0.647 OA
HETATM   13  O           1     -36.850  -0.785 -17.092  0.00  0.00    -0.647 OA
ENDBRANCH  10  11
ENDBRANCH   1  10
TORSDOF 4
ENDMDL
