MODEL 1
REMARK VINA RESULT:      -7.4      0.000      0.000
REMARK  7 active torsions:
REMARK  status: ('A' for Active; 'I' for Inactive)
REMARK    1  A    between atoms: C_3  and  C_5 
REMARK    2  A    between atoms: C_3  and  C_13 
REMARK    3  A    between atoms: C_3  and  N_17 
REMARK       I    between atoms: C_5  and  N_8 
REMARK    4  A    between atoms: C_6  and  O_20 
REMARK    5  A    between atoms: N_8  and  C_16 
REMARK    6  A    between atoms: C_13  and  C_18 
REMARK    7  A    between atoms: C_15  and  C_16 
ROOT
HETATM    1  C           1     -35.978  -0.445 -11.281  0.00  0.00     0.278 C 
ENDROOT
BRANCH   1   2
HETATM    2  C           1     -36.770  -0.359 -12.562  0.00  0.00     0.249 C 
HETATM    3  N           1     -36.180   0.117 -13.701  0.00  0.00    -0.349 N 
HETATM    4  H           1     -35.212   0.412 -13.684  0.00  0.00     0.163 HD
HETATM    5  O           1     -37.926  -0.710 -12.581  0.00  0.00    -0.271 OA
BRANCH   3   6
HETATM    6  C           1     -36.942   0.200 -14.932  0.00  0.00     0.235 C 
BRANCH   6   7
HETATM    7  C           1     -36.321  -0.703 -15.970  0.00  0.00     0.191 C 
HETATM    8  O           1     -36.791  -0.740 -17.127  0.00  0.00    -0.647 OA
HETATM    9  O           1     -35.337  -1.415 -15.671  0.00  0.00    -0.647 OA
ENDBRANCH   6   7
ENDBRANCH   3   6
ENDBRANCH   1   2
BRANCH   1  10
HETATM   10  C           1     -36.300  -1.754 -10.571  0.00  0.00     0.081 C 
BRANCH  10  11
HETATM   11  C           1     -35.237  -2.764 -10.877  0.00  0.00    -0.056 A 
HETATM   12  C           1     -35.546  -4.124 -10.872  0.00  0.00     0.010 A 
HETATM   13  C           1     -34.557  -5.064 -11.157  0.00  0.00     0.037 A 
HETATM   14  C           1     -33.258  -4.645 -11.447  0.00  0.00     0.065 A 
HETATM   15  C           1     -32.950  -3.284 -11.452  0.00  0.00     0.037 A 
HETATM   16  C           1     -33.939  -2.344 -11.166  0.00  0.00     0.010 A 
BRANCH  14  17
HETATM   17  O           1     -32.297  -5.559 -11.725  0.00  0.00    -0.361 OA
HETATM   18  H           1     -31.895  -5.837 -10.885  0.00  0.00     0.217 HD
ENDBRANCH  14  17
ENDBRANCH  10  11
ENDBRANCH   1  10
BRANCH   1  19
HETATM   19  N           1     -36.338   0.708 -10.392  0.00  0.00    -0.066 N 
HETATM   20  H           1     -37.303   1.036 -10.622  0.00  0.00     0.275 HD
HETATM   21  H           1     -35.660   1.488 -10.541  0.00  0.00     0.275 HD
HETATM   22  H           1     -36.303   0.402  -9.393  0.00  0.00     0.275 HD
ENDBRANCH   1  19
TORSDOF 7
ENDMDL
MODEL 2
REMARK VINA RESULT:      -7.1     11.562     13.409
REMARK  7 active torsions:
REMARK  status: ('A' for Active; 'I' for Inactive)
REMARK    1  A    between atoms: C_3  and  C_5 
REMARK    2  A    between atoms: C_3  and  C_13 
REMARK    3  A    between atoms: C_3  and  N_17 
REMARK       I    between atoms: C_5  and  N_8 
REMARK    4  A    between atoms: C_6  and  O_20 
REMARK    5  A    between atoms: N_8  and  C_16 
REMARK    6  A    between atoms: C_13  and  C_18 
REMARK    7  A    between atoms: C_15  and  C_16 
ROOT
HETATM    1  C           1     -23.329  -4.375 -11.365  0.00  0.00     0.278 C 
ENDROOT
BRANCH   1   2
HETATM    2  C           1     -24.100  -3.314 -12.108  0.00  0.00     0.249 C 
HETATM    3  N           1     -23.557  -2.721 -13.216  0.00  0.00    -0.349 N 
HETATM    4  H           1     -22.637  -2.995 -13.536  0.00  0.00     0.163 HD
HETATM    5  O           1     -25.199  -2.987 -11.725  0.00  0.00    -0.271 OA
BRANCH   3   6
HETATM    6  C           1     -24.300  -1.701 -13.930  0.00  0.00     0.235 C 
BRANCH   6   7
HETATM    7  C           1     -23.468  -1.184 -15.078  0.00  0.00     0.191 C 
HETATM    8  O           1     -23.631  -0.015 -15.490  0.00  0.00    -0.647 OA
HETATM    9  O           1     -22.617  -1.925 -15.617  0.00  0.00    -0.647 OA
ENDBRANCH   6   7
ENDBRANCH   3   6
ENDBRANCH   1   2
BRANCH   1  10
HETATM   10  C           1     -21.878  -3.937 -11.212  0.00  0.00     0.081 C 
BRANCH  10  11
HETATM   11  C           1     -21.464  -4.066  -9.778  0.00  0.00    -0.056 A 
HETATM   12  C           1     -22.407  -3.903  -8.763  0.00  0.00     0.010 A 
HETATM   13  C           1     -22.022  -4.024  -7.428  0.00  0.00     0.037 A 
HETATM   14  C           1     -20.694  -4.308  -7.109  0.00  0.00     0.065 A 
HETATM   15  C           1     -19.752  -4.471  -8.124  0.00  0.00     0.037 A 
HETATM   16  C           1     -20.137  -4.350  -9.459  0.00  0.00     0.010 A 
BRANCH  14  17
HETATM   17  O           1     -20.320  -4.426  -5.811  0.00  0.00    -0.361 OA
HETATM   18  H           1     -19.693  -3.711  -5.613  0.00  0.00     0.217 HD
ENDBRANCH  14  17
ENDBRANCH  10  11
ENDBRANCH   1  10
BRANCH   1  19
HETATM   19  N           1     -23.383  -5.662 -12.133  0.00  0.00    -0.066 N 
HETATM   20  H           1     -24.275  -6.160 -11.914  0.00  0.00     0.275 HD
HETATM   21  H           1     -22.573  -6.264 -11.863  0.00  0.00     0.275 HD
HETATM   22  H           1     -23.339  -5.459 -13.157  0.00  0.00     0.275 HD
ENDBRANCH   1  19
TORSDOF 7
ENDMDL
MODEL 3
REMARK VINA RESULT:      -7.0     12.382     15.751
REMARK  7 active torsions:
REMARK  status: ('A' for Active; 'I' for Inactive)
REMARK    1  A    between atoms: C_3  and  C_5 
REMARK    2  A    between atoms: C_3  and  C_13 
REMARK    3  A    between atoms: C_3  and  N_17 
REMARK       I    between atoms: C_5  and  N_8 
REMARK    4  A    between atoms: C_6  and  O_20 
REMARK    5  A    between atoms: N_8  and  C_16 
REMARK    6  A    between atoms: C_13  and  C_18 
REMARK    7  A    between atoms: C_15  and  C_16 
ROOT
HETATM    1  C           1     -21.776  -4.545  -7.829  0.00  0.00     0.278 C 
ENDROOT
BRANCH   1   2
HETATM    2  C           1     -21.179  -5.667  -7.018  0.00  0.00     0.249 C 
HETATM    3  N           1     -21.707  -5.985  -5.796  0.00  0.00    -0.349 N 
HETATM    4  H           1     -22.498  -5.466  -5.436  0.00  0.00     0.163 HD
HETATM    5  O           1     -20.234  -6.287  -7.448  0.00  0.00    -0.271 OA
BRANCH   3   6
HETATM    6  C           1     -21.133  -7.065  -5.017  0.00  0.00     0.235 C 
BRANCH   6   7
HETATM    7  C           1     -21.476  -6.872  -3.559  0.00  0.00     0.191 C 
HETATM    8  O           1     -20.888  -7.544  -2.685  0.00  0.00    -0.647 OA
HETATM    9  O           1     -22.349  -6.040  -3.228  0.00  0.00    -0.647 OA
ENDBRANCH   6   7
ENDBRANCH   3   6
ENDBRANCH   1   2
BRANCH   1  10
HETATM   10  C           1     -21.106  -4.492  -9.196  0.00  0.00     0.081 C 
BRANCH  10  11
HETATM   11  C           1     -22.067  -3.942 -10.204  0.00  0.00    -0.056 A 
HETATM   12  C           1     -23.437  -3.956  -9.941  0.00  0.00     0.010 A 
HETATM   13  C           1     -24.332  -3.443 -10.879  0.00  0.00     0.037 A 
HETATM   14  C           1     -23.857  -2.917 -12.081  0.00  0.00     0.065 A 
HETATM   15  C           1     -22.487  -2.903 -12.343  0.00  0.00     0.037 A 
HETATM   16  C           1     -21.593  -3.416 -11.405  0.00  0.00     0.010 A 
BRANCH  14  17
HETATM   17  O           1     -24.728  -2.418 -12.993  0.00  0.00    -0.361 OA
HETATM   18  H           1     -24.959  -3.132 -13.610  0.00  0.00     0.217 HD
ENDBRANCH  14  17
ENDBRANCH  10  11
ENDBRANCH   1  10
BRANCH   1  19
HETATM   19  N           1     -21.559  -3.243  -7.116  0.00  0.00    -0.066 N 
HETATM   20  H           1     -22.432  -2.671  -7.164  0.00  0.00     0.275 HD
HETATM   21  H           1     -20.776  -2.722  -7.572  0.00  0.00     0.275 HD
HETATM   22  H           1     -21.318  -3.429  -6.117  0.00  0.00     0.275 HD
ENDBRANCH   1  19
TORSDOF 7
ENDMDL
MODEL 4
REMARK VINA RESULT:      -6.9     12.063     14.104
REMARK  7 active torsions:
REMARK  status: ('A' for Active; 'I' for Inactive)
REMARK    1  A    between atoms: C_3  and  C_5 
REMARK    2  A    between atoms: C_3  and  C_13 
REMARK    3  A    between atoms: C_3  and  N_17 
REMARK       I    between atoms: C_5  and  N_8 
REMARK    4  A    between atoms: C_6  and  O_20 
REMARK    5  A    between atoms: N_8  and  C_16 
REMARK    6  A    between atoms: C_13  and  C_18 
REMARK    7  A    between atoms: C_15  and  C_16 
ROOT
HETATM    1  C           1     -21.489  -4.240 -10.844  0.00  0.00     0.278 C 
ENDROOT
BRANCH   1   2
HETATM    2  C           1     -22.703  -4.036 -11.715  0.00  0.00     0.249 C 
HETATM    3  N           1     -22.872  -2.856 -12.389  0.00  0.00    -0.349 N 
HETATM    4  H           1     -22.183  -2.121 -12.302  0.00  0.00     0.163 HD
HETATM    5  O           1     -23.527  -4.914 -11.818  0.00  0.00    -0.271 OA
BRANCH   3   6
HETATM    6  C           1     -24.039  -2.661 -13.226  0.00  0.00     0.235 C 
BRANCH   6   7
HETATM    7  C           1     -23.626  -2.001 -14.519  0.00  0.00     0.191 C 
HETATM    8  O           1     -22.723  -2.508 -15.219  0.00  0.00    -0.647 OA
HETATM    9  O           1     -24.188  -0.947 -14.890  0.00  0.00    -0.647 OA
ENDBRANCH   6   7
ENDBRANCH   3   6
ENDBRANCH   1   2
BRANCH   1  10
HETATM   10  C           1     -21.667  -3.480  -9.536  0.00  0.00     0.081 C 
BRANCH  10  11
HETATM   11  C           1     -21.333  -4.379  -8.386  0.00  0.00    -0.056 A 
HETATM   12  C           1     -20.083  -4.994  -8.322  0.00  0.00     0.010 A 
HETATM   13  C           1     -19.772  -5.831  -7.250  0.00  0.00     0.037 A 
HETATM   14  C           1     -20.712  -6.053  -6.243  0.00  0.00     0.065 A 
HETATM   15  C           1     -21.962  -5.437  -6.308  0.00  0.00     0.037 A 
HETATM   16  C           1     -22.273  -4.601  -7.379  0.00  0.00     0.010 A 
BRANCH  14  17
HETATM   17  O           1     -20.409  -6.866  -5.201  0.00  0.00    -0.361 OA
HETATM   18  H           1     -20.450  -6.338  -4.387  0.00  0.00     0.217 HD
ENDBRANCH  14  17
ENDBRANCH  10  11
ENDBRANCH   1  10
BRANCH   1  19
HETATM   19  N           1     -20.272  -3.729 -11.556  0.00  0.00    -0.066 N 
HETATM   20  H           1     -20.555  -3.303 -12.467  0.00  0.00     0.275 HD
HETATM   21  H           1     -19.613  -4.521 -11.732  0.00  0.00     0.275 HD
HETATM   22  H           1     -19.799  -3.008 -10.966  0.00  0.00     0.275 HD
ENDBRANCH   1  19
TORSDOF 7
ENDMDL
MODEL 5
REMARK VINA RESULT:      -6.8     13.399     16.161
REMARK  7 active torsions:
REMARK  status: ('A' for Active; 'I' for Inactive)
REMARK    1  A    between atoms: C_3  and  C_5 
REMARK    2  A    between atoms: C_3  and  C_13 
REMARK    3  A    between atoms: C_3  and  N_17 
REMARK       I    between atoms: C_5  and  N_8 
REMARK    4  A    between atoms: C_6  and  O_20 
REMARK    5  A    between atoms: N_8  and  C_16 
REMARK    6  A    between atoms: C_13  and  C_18 
REMARK    7  A    between atoms: C_15  and  C_16 
ROOT
HETATM    1  C           1     -22.499  -5.132  -7.103  0.00  0.00     0.278 C 
ENDROOT
BRANCH   1   2
HETATM    2  C           1     -21.671  -5.950  -6.145  0.00  0.00     0.249 C 
HETATM    3  N           1     -21.832  -5.794  -4.794  0.00  0.00    -0.349 N 
HETATM    4  H           1     -22.507  -5.129  -4.439  0.00  0.00     0.163 HD
HETATM    5  O           1     -20.864  -6.744  -6.569  0.00  0.00    -0.271 OA
BRANCH   3   6
HETATM    6  C           1     -21.035  -6.581  -3.874  0.00  0.00     0.235 C 
BRANCH   6   7
HETATM    7  C           1     -21.813  -6.805  -2.599  0.00  0.00     0.191 C 
HETATM    8  O           1     -22.583  -5.917  -2.174  0.00  0.00    -0.647 OA
HETATM    9  O           1     -21.685  -7.877  -1.970  0.00  0.00    -0.647 OA
ENDBRANCH   6   7
ENDBRANCH   3   6
ENDBRANCH   1   2
BRANCH   1  10
HETATM   10  C           1     -21.702  -3.915  -7.555  0.00  0.00     0.081 C 
BRANCH  10  11
HETATM   11  C           1     -21.714  -3.836  -9.050  0.00  0.00    -0.056 A 
HETATM   12  C           1     -20.537  -4.043  -9.769  0.00  0.00     0.010 A 
HETATM   13  C           1     -20.548  -3.970 -11.161  0.00  0.00     0.037 A 
HETATM   14  C           1     -21.737  -3.689 -11.835  0.00  0.00     0.065 A 
HETATM   15  C           1     -22.914  -3.483 -11.116  0.00  0.00     0.037 A 
HETATM   16  C           1     -22.903  -3.556  -9.724  0.00  0.00     0.010 A 
BRANCH  14  17
HETATM   17  O           1     -21.748  -3.619 -13.189  0.00  0.00    -0.361 OA
HETATM   18  H           1     -20.826  -3.579 -13.495  0.00  0.00     0.217 HD
ENDBRANCH  14  17
ENDBRANCH  10  11
ENDBRANCH   1  10
BRANCH   1  19
HETATM   19  N           1     -23.755  -4.680  -6.418  0.00  0.00    -0.066 N 
HETATM   20  H           1     -24.564  -5.239  -6.771  0.00  0.00     0.275 HD
HETATM   21  H           1     -23.917  -3.668  -6.619  0.00  0.00     0.275 HD
HETATM   22  H           1     -23.659  -4.819  -5.387  0.00  0.00     0.275 HD
ENDBRANCH   1  19
TORSDOF 7
ENDMDL
MODEL 6
REMARK VINA RESULT:      -6.8     11.597     13.473
REMARK  7 active torsions:
REMARK  status: ('A' for Active; 'I' for Inactive)
REMARK    1  A    between atoms: C_3  and  C_5 
REMARK    2  A    between atoms: C_3  and  C_13 
REMARK    3  A    between atoms: C_3  and  N_17 
REMARK       I    between atoms: C_5  and  N_8 
REMARK    4  A    between atoms: C_6  and  O_20 
REMARK    5  A    between atoms: N_8  and  C_16 
REMARK    6  A    between atoms: C_13  and  C_18 
REMARK    7  A    between atoms: C_15  and  C_16 
ROOT
HETATM    1  C           1     -23.536  -3.418 -10.214  0.00  0.00     0.278 C 
ENDROOT
BRANCH   1   2
HETATM    2  C           1     -24.100  -3.376 -11.612  0.00  0.00     0.249 C 
HETATM    3  N           1     -23.323  -3.747 -12.676  0.00  0.00    -0.349 N 
HETATM    4  H           1     -22.369  -4.049 -12.524  0.00  0.00     0.163 HD
HETATM    5  O           1     -25.239  -3.014 -11.793  0.00  0.00    -0.271 OA
BRANCH   3   6
HETATM    6  C           1     -23.866  -3.707 -14.019  0.00  0.00     0.235 C 
BRANCH   6   7
HETATM    7  C           1     -23.349  -2.483 -14.735  0.00  0.00     0.191 C 
HETATM    8  O           1     -23.934  -1.387 -14.600  0.00  0.00    -0.647 OA
HETATM    9  O           1     -22.336  -2.566 -15.463  0.00  0.00    -0.647 OA
ENDBRANCH   6   7
ENDBRANCH   3   6
ENDBRANCH   1   2
BRANCH   1  10
HETATM   10  C           1     -22.959  -4.800  -9.939  0.00  0.00     0.081 C 
BRANCH  10  11
HETATM   11  C           1     -21.959  -4.713  -8.828  0.00  0.00    -0.056 A 
HETATM   12  C           1     -20.634  -4.378  -9.107  0.00  0.00     0.010 A 
HETATM   13  C           1     -19.703  -4.297  -8.073  0.00  0.00     0.037 A 
HETATM   14  C           1     -20.096  -4.551  -6.758  0.00  0.00     0.065 A 
HETATM   15  C           1     -21.421  -4.886  -6.480  0.00  0.00     0.037 A 
HETATM   16  C           1     -22.352  -4.968  -7.514  0.00  0.00     0.010 A 
BRANCH  14  17
HETATM   17  O           1     -19.191  -4.472  -5.753  0.00  0.00    -0.361 OA
HETATM   18  H           1     -19.499  -5.037  -5.025  0.00  0.00     0.217 HD
ENDBRANCH  14  17
ENDBRANCH  10  11
ENDBRANCH   1  10
BRANCH   1  19
HETATM   19  N           1     -24.627  -3.126  -9.226  0.00  0.00    -0.066 N 
HETATM   20  H           1     -24.890  -4.007  -8.729  0.00  0.00     0.275 HD
HETATM   21  H           1     -25.460  -2.748  -9.730  0.00  0.00     0.275 HD
HETATM   22  H           1     -24.290  -2.422  -8.532  0.00  0.00     0.275 HD
ENDBRANCH   1  19
TORSDOF 7
ENDMDL
MODEL 7
REMARK VINA RESULT:      -6.4     13.462     16.461
REMARK  7 active torsions:
REMARK  status: ('A' for Active; 'I' for Inactive)
REMARK    1  A    between atoms: C_3  and  C_5 
REMARK    2  A    between atoms: C_3  and  C_13 
REMARK    3  A    between atoms: C_3  and  N_17 
REMARK       I    between atoms: C_5  and  N_8 
REMARK    4  A    between atoms: C_6  and  O_20 
REMARK    5  A    between atoms: N_8  and  C_16 
REMARK    6  A    between atoms: C_13  and  C_18 
REMARK    7  A    between atoms: C_15  and  C_16 
ROOT
HETATM    1  C           1     -22.224  -5.147  -6.892  0.00  0.00     0.278 C 
ENDROOT
BRANCH   1   2
HETATM    2  C           1     -21.403  -5.693  -5.751  0.00  0.00     0.249 C 
HETATM    3  N           1     -21.592  -6.981  -5.326  0.00  0.00    -0.349 N 
HETATM    4  H           1     -22.284  -7.566  -5.778  0.00  0.00     0.163 HD
HETATM    5  O           1     -20.577  -4.994  -5.212  0.00  0.00    -0.271 OA
BRANCH   3   6
HETATM    6  C           1     -20.802  -7.506  -4.230  0.00  0.00     0.235 C 
BRANCH   6   7
HETATM    7  C           1     -19.938  -8.639  -4.729  0.00  0.00     0.191 C 
HETATM    8  O           1     -19.905  -9.720  -4.105  0.00  0.00    -0.647 OA
HETATM    9  O           1     -19.256  -8.493  -5.767  0.00  0.00    -0.647 OA
ENDBRANCH   6   7
ENDBRANCH   3   6
ENDBRANCH   1   2
BRANCH   1  10
HETATM   10  C           1     -21.600  -3.850  -7.392  0.00  0.00     0.081 C 
BRANCH  10  11
HETATM   11  C           1     -21.641  -3.820  -8.889  0.00  0.00    -0.056 A 
HETATM   12  C           1     -22.834  -3.524  -9.548  0.00  0.00     0.010 A 
HETATM   13  C           1     -22.872  -3.496 -10.942  0.00  0.00     0.037 A 
HETATM   14  C           1     -21.716  -3.764 -11.677  0.00  0.00     0.065 A 
HETATM   15  C           1     -20.524  -4.060 -11.017  0.00  0.00     0.037 A 
HETATM   16  C           1     -20.486  -4.089  -9.623  0.00  0.00     0.010 A 
BRANCH  14  17
HETATM   17  O           1     -21.754  -3.736 -13.031  0.00  0.00    -0.361 OA
HETATM   18  H           1     -22.055  -2.854 -13.305  0.00  0.00     0.217 HD
ENDBRANCH  14  17
ENDBRANCH  10  11
ENDBRANCH   1  10
BRANCH   1  19
HETATM   19  N           1     -23.621  -4.878  -6.418  0.00  0.00    -0.066 N 
HETATM   20  H           1     -24.152  -5.777  -6.374  0.00  0.00     0.275 HD
HETATM   21  H           1     -24.095  -4.225  -7.082  0.00  0.00     0.275 HD
HETATM   22  H           1     -23.590  -4.445  -5.467  0.00  0.00     0.275 HD
ENDBRANCH   1  19
TORSDOF 7
ENDMDL
MODEL 8
REMARK VINA RESULT:      -6.4      2.216      2.885
REMARK  7 active torsions:
REMARK  status: ('A' for Active; 'I' for Inactive)
REMARK    1  A    between atoms: C_3  and  C_5 
REMARK    2  A    between atoms: C_3  and  C_13 
REMARK    3  A    between atoms: C_3  and  N_17 
REMARK       I    between atoms: C_5  and  N_8 
REMARK    4  A    between atoms: C_6  and  O_20 
REMARK    5  A    between atoms: N_8  and  C_16 
REMARK    6  A    between atoms: C_13  and  C_18 
REMARK    7  A    between atoms: C_15  and  C_16 
ROOT
HETATM    1  C           1     -34.777  -2.570 -12.788  0.00  0.00     0.278 C 
ENDROOT
BRANCH   1   2
HETATM    2  C           1     -34.857  -1.078 -12.993  0.00  0.00     0.249 C 
HETATM    3  N           1     -35.046  -0.568 -14.249  0.00  0.00    -0.349 N 
HETATM    4  H           1     -35.131  -1.192 -15.041  0.00  0.00     0.163 HD
HETATM    5  O           1     -34.755  -0.332 -12.047  0.00  0.00    -0.271 OA
BRANCH   3   6
HETATM    6  C           1     -35.123   0.867 -14.445  0.00  0.00     0.235 C 
BRANCH   6   7
HETATM    7  C           1     -35.958   1.164 -15.667  0.00  0.00     0.191 C 
HETATM    8  O           1     -35.967   2.315 -16.152  0.00  0.00    -0.647 OA
HETATM    9  O           1     -36.640   0.257 -16.192  0.00  0.00    -0.647 OA
ENDBRANCH   6   7
ENDBRANCH   3   6
ENDBRANCH   1   2
BRANCH   1  10
HETATM   10  C           1     -33.807  -2.877 -11.655  0.00  0.00     0.081 C 
BRANCH  10  11
HETATM   11  C           1     -34.047  -4.268 -11.154  0.00  0.00    -0.056 A 
HETATM   12  C           1     -35.244  -4.580 -10.509  0.00  0.00     0.010 A 
HETATM   13  C           1     -35.467  -5.875 -10.043  0.00  0.00     0.037 A 
HETATM   14  C           1     -34.493  -6.858 -10.222  0.00  0.00     0.065 A 
HETATM   15  C           1     -33.296  -6.545 -10.867  0.00  0.00     0.037 A 
HETATM   16  C           1     -33.073  -5.250 -11.332  0.00  0.00     0.010 A 
BRANCH  14  17
HETATM   17  O           1     -34.710  -8.117  -9.769  0.00  0.00    -0.361 OA
HETATM   18  H           1     -33.937  -8.387  -9.247  0.00  0.00     0.217 HD
ENDBRANCH  14  17
ENDBRANCH  10  11
ENDBRANCH   1  10
BRANCH   1  19
HETATM   19  N           1     -34.294  -3.222 -14.049  0.00  0.00    -0.066 N 
HETATM   20  H           1     -33.338  -2.868 -14.279  0.00  0.00     0.275 HD
HETATM   21  H           1     -34.947  -2.993 -14.832  0.00  0.00     0.275 HD
HETATM   22  H           1     -34.259  -4.257 -13.916  0.00  0.00     0.275 HD
ENDBRANCH   1  19
TORSDOF 7
ENDMDL
MODEL 9
REMARK VINA RESULT:      -6.2     13.012     15.317
REMARK  7 active torsions:
REMARK  status: ('A' for Active; 'I' for Inactive)
REMARK    1  A    between atoms: C_3  and  C_5 
REMARK    2  A    between atoms: C_3  and  C_13 
REMARK    3  A    between atoms: C_3  and  N_17 
REMARK       I    between atoms: C_5  and  N_8 
REMARK    4  A    between atoms: C_6  and  O_20 
REMARK    5  A    between atoms: N_8  and  C_16 
REMARK    6  A    between atoms: C_13  and  C_18 
REMARK    7  A    between atoms: C_15  and  C_16 
ROOT
HETATM    1  C           1     -21.212  -5.519  -7.136  0.00  0.00     0.278 C 
ENDROOT
BRANCH   1   2
HETATM    2  C           1     -22.449  -4.744  -7.516  0.00  0.00     0.249 C 
HETATM    3  N           1     -22.570  -4.222  -8.776  0.00  0.00    -0.349 N 
HETATM    4  H           1     -21.828  -4.355  -9.452  0.00  0.00     0.163 HD
HETATM    5  O           1     -23.335  -4.585  -6.709  0.00  0.00    -0.271 OA
BRANCH   3   6
HETATM    6  C           1     -23.759  -3.478  -9.142  0.00  0.00     0.235 C 
BRANCH   6   7
HETATM    7  C           1     -24.222  -3.911 -10.512  0.00  0.00     0.191 C 
HETATM    8  O           1     -25.035  -3.206 -11.147  0.00  0.00    -0.647 OA
HETATM    9  O           1     -23.793  -4.974 -11.009  0.00  0.00    -0.647 OA
ENDBRANCH   6   7
ENDBRANCH   3   6
ENDBRANCH   1   2
BRANCH   1  10
HETATM   10  C           1     -20.780  -5.127  -5.729  0.00  0.00     0.081 C 
BRANCH  10  11
HETATM   11  C           1     -21.012  -6.276  -4.796  0.00  0.00    -0.056 A 
HETATM   12  C           1     -21.274  -6.036  -3.447  0.00  0.00     0.010 A 
HETATM   13  C           1     -21.490  -7.106  -2.579  0.00  0.00     0.037 A 
HETATM   14  C           1     -21.444  -8.415  -3.060  0.00  0.00     0.065 A 
HETATM   15  C           1     -21.183  -8.653  -4.409  0.00  0.00     0.037 A 
HETATM   16  C           1     -20.966  -7.584  -5.277  0.00  0.00     0.010 A 
BRANCH  14  17
HETATM   17  O           1     -21.656  -9.455  -2.215  0.00  0.00    -0.361 OA
HETATM   18  H           1     -22.614  -9.544  -2.083  0.00  0.00     0.217 HD
ENDBRANCH  14  17
ENDBRANCH  10  11
ENDBRANCH   1  10
BRANCH   1  19
HETATM   19  N           1     -20.109  -5.205  -8.102  0.00  0.00    -0.066 N 
HETATM   20  H           1     -20.028  -5.978  -8.800  0.00  0.00     0.275 HD
HETATM   21  H           1     -19.208  -5.108  -7.583  0.00  0.00     0.275 HD
HETATM   22  H           1     -20.323  -4.310  -8.597  0.00  0.00     0.275 HD
ENDBRANCH   1  19
TORSDOF 7
ENDMDL
