MODEL 1
REMARK VINA RESULT:      -6.2      0.000      0.000
REMARK  8 active torsions:
REMARK  status: ('A' for Active; 'I' for Inactive)
REMARK    1  A    between atoms: N_9  and  C_19 
REMARK       I    between atoms: N_9  and  C_10 
REMARK    2  A    between atoms: C_10  and  C_11 
REMARK    3  A    between atoms: C_11  and  C_12 
REMARK    4  A    between atoms: C_11  and  N_15 
REMARK    5  A    between atoms: C_12  and  C_13 
REMARK    6  A    between atoms: C_18  and  C_19 
REMARK    7  A    between atoms: C_19  and  C_20 
REMARK    8  A    between atoms: C_20  and  C_22 
REMARK       I    between atoms: N_21  and  C_22 
ROOT
HETATM    1  H           1     -35.381  -1.910 -13.574  0.00  0.00     0.163 HD
HETATM    2  N           1     -35.512  -0.989 -13.177  0.00  0.00    -0.344 N 
HETATM    3  C           1     -35.316  -0.785 -11.837  0.00  0.00     0.249 C 
HETATM    4  O           1     -35.472   0.315 -11.363  0.00  0.00    -0.271 OA
ENDROOT
BRANCH   2   5
HETATM    5  C           1     -35.907   0.118 -14.027  0.00  0.00     0.194 C 
BRANCH   5   6
HETATM    6  C           1     -37.363  -0.027 -14.396  0.00  0.00     0.197 C 
HETATM    7  O           1     -38.073  -0.877 -13.817  0.00  0.00    -0.646 OA
HETATM    8  O           1     -37.859   0.704 -15.281  0.00  0.00    -0.646 OA
ENDBRANCH   5   6
BRANCH   5   9
HETATM    9  C           1     -35.058   0.112 -15.292  0.00  0.00     0.138 C 
BRANCH   9  10
HETATM   10  C           1     -35.423  -1.084 -16.137  0.00  0.00     0.217 C 
HETATM   11  N           1     -36.191  -0.921 -17.259  0.00  0.00    -0.370 N 
HETATM   12  H           1     -36.514   0.002 -17.521  0.00  0.00     0.159 HD
HETATM   13  H           1     -36.436  -1.723 -17.825  0.00  0.00     0.159 HD
HETATM   14  O           1     -35.038  -2.185 -15.823  0.00  0.00    -0.274 OA
ENDBRANCH   9  10
ENDBRANCH   5   9
ENDBRANCH   2   5
BRANCH   3  15
HETATM   15  C           1     -34.905  -1.936 -10.952  0.00  0.00     0.284 C 
BRANCH  15  16
HETATM   16  C           1     -33.449  -2.290 -11.223  0.00  0.00     0.155 C 
BRANCH  16  17
HETATM   17  C           1     -33.379  -3.597 -11.973  0.00  0.00     0.175 C 
HETATM   18  O           1     -33.630  -3.629 -13.198  0.00  0.00    -0.648 OA
HETATM   19  O           1     -33.069  -4.648 -11.371  0.00  0.00    -0.648 OA
ENDBRANCH  16  17
ENDBRANCH  15  16
BRANCH  15  20
HETATM   20  N           1     -35.770  -3.126 -11.246  0.00  0.00    -0.066 N 
HETATM   21  H           1     -36.769  -2.824 -11.307  0.00  0.00     0.275 HD
HETATM   22  H           1     -35.480  -3.552 -12.155  0.00  0.00     0.275 HD
HETATM   23  H           1     -35.666  -3.830 -10.481  0.00  0.00     0.275 HD
ENDBRANCH  15  20
ENDBRANCH   3  15
TORSDOF 8
ENDMDL
MODEL 2
REMARK VINA RESULT:      -6.1     11.917     14.052
REMARK  8 active torsions:
REMARK  status: ('A' for Active; 'I' for Inactive)
REMARK    1  A    between atoms: N_9  and  C_19 
REMARK       I    between atoms: N_9  and  C_10 
REMARK    2  A    between atoms: C_10  and  C_11 
REMARK    3  A    between atoms: C_11  and  C_12 
REMARK    4  A    between atoms: C_11  and  N_15 
REMARK    5  A    between atoms: C_12  and  C_13 
REMARK    6  A    between atoms: C_18  and  C_19 
REMARK    7  A    between atoms: C_19  and  C_20 
REMARK    8  A    between atoms: C_20  and  C_22 
REMARK       I    between atoms: N_21  and  C_22 
ROOT
HETATM    1  H           1     -24.248  -4.633  -8.446  0.00  0.00     0.163 HD
HETATM    2  N           1     -23.385  -4.203  -8.754  0.00  0.00    -0.344 N 
HETATM    3  C           1     -22.304  -4.157  -7.915  0.00  0.00     0.249 C 
HETATM    4  O           1     -21.274  -3.645  -8.282  0.00  0.00    -0.271 OA
ENDROOT
BRANCH   2   5
HETATM    5  C           1     -23.291  -3.638 -10.087  0.00  0.00     0.194 C 
BRANCH   5   6
HETATM    6  C           1     -24.670  -3.260 -10.570  0.00  0.00     0.197 C 
HETATM    7  O           1     -24.876  -3.076 -11.789  0.00  0.00    -0.646 OA
HETATM    8  O           1     -25.605  -3.131  -9.752  0.00  0.00    -0.646 OA
ENDBRANCH   5   6
BRANCH   5   9
HETATM    9  C           1     -22.685  -4.668 -11.032  0.00  0.00     0.138 C 
BRANCH   9  10
HETATM   10  C           1     -21.604  -4.016 -11.859  0.00  0.00     0.217 C 
HETATM   11  N           1     -21.912  -3.456 -13.070  0.00  0.00    -0.370 N 
HETATM   12  H           1     -22.865  -3.479 -13.410  0.00  0.00     0.159 HD
HETATM   13  H           1     -21.188  -3.019 -13.624  0.00  0.00     0.159 HD
HETATM   14  O           1     -20.466  -3.989 -11.453  0.00  0.00    -0.274 OA
ENDBRANCH   9  10
ENDBRANCH   5   9
ENDBRANCH   2   5
BRANCH   3  15
HETATM   15  C           1     -22.402  -4.745  -6.528  0.00  0.00     0.284 C 
BRANCH  15  16
HETATM   16  C           1     -21.529  -5.991  -6.443  0.00  0.00     0.155 C 
BRANCH  16  17
HETATM   17  C           1     -21.769  -6.684  -5.125  0.00  0.00     0.175 C 
HETATM   18  O           1     -21.739  -7.933  -5.060  0.00  0.00    -0.648 OA
HETATM   19  O           1     -21.998  -6.011  -4.096  0.00  0.00    -0.648 OA
ENDBRANCH  16  17
ENDBRANCH  15  16
BRANCH  15  20
HETATM   20  N           1     -23.827  -5.113  -6.241  0.00  0.00    -0.066 N 
HETATM   21  H           1     -24.252  -5.550  -7.089  0.00  0.00     0.275 HD
HETATM   22  H           1     -23.858  -5.793  -5.447  0.00  0.00     0.275 HD
HETATM   23  H           1     -24.364  -4.254  -5.986  0.00  0.00     0.275 HD
ENDBRANCH  15  20
ENDBRANCH   3  15
TORSDOF 8
ENDMDL
MODEL 3
REMARK VINA RESULT:      -6.1      1.770      2.530
REMARK  8 active torsions:
REMARK  status: ('A' for Active; 'I' for Inactive)
REMARK    1  A    between atoms: N_9  and  C_19 
REMARK       I    between atoms: N_9  and  C_10 
REMARK    2  A    between atoms: C_10  and  C_11 
REMARK    3  A    between atoms: C_11  and  C_12 
REMARK    4  A    between atoms: C_11  and  N_15 
REMARK    5  A    between atoms: C_12  and  C_13 
REMARK    6  A    between atoms: C_18  and  C_19 
REMARK    7  A    between atoms: C_19  and  C_20 
REMARK    8  A    between atoms: C_20  and  C_22 
REMARK       I    between atoms: N_21  and  C_22 
ROOT
HETATM    1  H           1     -34.088  -0.650 -14.094  0.00  0.00     0.163 HD
HETATM    2  N           1     -35.096  -0.625 -14.015  0.00  0.00    -0.344 N 
HETATM    3  C           1     -35.709  -1.117 -12.894  0.00  0.00     0.249 C 
HETATM    4  O           1     -36.912  -1.088 -12.800  0.00  0.00    -0.271 OA
ENDROOT
BRANCH   2   5
HETATM    5  C           1     -35.895  -0.067 -15.090  0.00  0.00     0.194 C 
BRANCH   5   6
HETATM    6  C           1     -35.751  -0.927 -16.322  0.00  0.00     0.197 C 
HETATM    7  O           1     -34.696  -1.567 -16.517  0.00  0.00    -0.646 OA
HETATM    8  O           1     -36.689  -0.999 -17.145  0.00  0.00    -0.646 OA
ENDBRANCH   5   6
BRANCH   5   9
HETATM    9  C           1     -35.413   1.346 -15.397  0.00  0.00     0.138 C 
BRANCH   9  10
HETATM   10  C           1     -36.482   2.087 -16.162  0.00  0.00     0.217 C 
HETATM   11  N           1     -37.789   1.686 -16.073  0.00  0.00    -0.370 N 
HETATM   12  H           1     -38.037   0.893 -15.495  0.00  0.00     0.159 HD
HETATM   13  H           1     -38.506   2.183 -16.586  0.00  0.00     0.159 HD
HETATM   14  O           1     -36.186   3.033 -16.851  0.00  0.00    -0.274 OA
ENDBRANCH   9  10
ENDBRANCH   5   9
ENDBRANCH   2   5
BRANCH   3  15
HETATM   15  C           1     -34.878  -1.698 -11.776  0.00  0.00     0.284 C 
BRANCH  15  16
HETATM   16  C           1     -34.956  -3.219 -11.822  0.00  0.00     0.155 C 
BRANCH  16  17
HETATM   17  C           1     -33.933  -3.746 -12.797  0.00  0.00     0.175 C 
HETATM   18  O           1     -34.177  -3.742 -14.024  0.00  0.00    -0.648 OA
HETATM   19  O           1     -32.840  -4.187 -12.380  0.00  0.00    -0.648 OA
ENDBRANCH  16  17
ENDBRANCH  15  16
BRANCH  15  20
HETATM   20  N           1     -35.405  -1.212 -10.458  0.00  0.00    -0.066 N 
HETATM   21  H           1     -36.252  -0.621 -10.618  0.00  0.00     0.275 HD
HETATM   22  H           1     -35.660  -2.031  -9.861  0.00  0.00     0.275 HD
HETATM   23  H           1     -34.671  -0.645  -9.978  0.00  0.00     0.275 HD
ENDBRANCH  15  20
ENDBRANCH   3  15
TORSDOF 8
ENDMDL
MODEL 4
REMARK VINA RESULT:      -6.1      1.696      2.127
REMARK  8 active torsions:
REMARK  status: ('A' for Active; 'I' for Inactive)
REMARK    1  A    between atoms: N_9  and  C_19 
REMARK       I    between atoms: N_9  and  C_10 
REMARK    2  A    between atoms: C_10  and  C_11 
REMARK    3  A    between atoms: C_11  and  C_12 
REMARK    4  A    between atoms: C_11  and  N_15 
REMARK    5  A    between atoms: C_12  and  C_13 
REMARK    6  A    between atoms: C_18  and  C_19 
REMARK    7  A    between atoms: C_19  and  C_20 
REMARK    8  A    between atoms: C_20  and  C_22 
REMARK       I    between atoms: N_21  and  C_22 
ROOT
HETATM    1  H           1     -35.484  -2.179 -14.503  0.00  0.00     0.163 HD
HETATM    2  N           1     -35.230  -1.727 -13.634  0.00  0.00    -0.344 N 
HETATM    3  C           1     -34.567  -2.430 -12.664  0.00  0.00     0.249 C 
HETATM    4  O           1     -34.263  -1.892 -11.626  0.00  0.00    -0.271 OA
ENDROOT
BRANCH   2   5
HETATM    5  C           1     -35.566  -0.333 -13.415  0.00  0.00     0.194 C 
BRANCH   5   6
HETATM    6  C           1     -37.000  -0.229 -12.957  0.00  0.00     0.197 C 
HETATM    7  O           1     -37.916  -0.716 -13.655  0.00  0.00    -0.646 OA
HETATM    8  O           1     -37.272   0.344 -11.880  0.00  0.00    -0.646 OA
ENDBRANCH   5   6
BRANCH   5   9
HETATM    9  C           1     -35.390   0.440 -14.716  0.00  0.00     0.138 C 
BRANCH   9  10
HETATM   10  C           1     -35.638  -0.481 -15.886  0.00  0.00     0.217 C 
HETATM   11  N           1     -36.868  -0.507 -16.487  0.00  0.00    -0.370 N 
HETATM   12  H           1     -37.611   0.091 -16.147  0.00  0.00     0.159 HD
HETATM   13  H           1     -37.035  -1.124 -17.271  0.00  0.00     0.159 HD
HETATM   14  O           1     -34.752  -1.195 -16.291  0.00  0.00    -0.274 OA
ENDBRANCH   9  10
ENDBRANCH   5   9
ENDBRANCH   2   5
BRANCH   3  15
HETATM   15  C           1     -34.216  -3.880 -12.891  0.00  0.00     0.284 C 
BRANCH  15  16
HETATM   16  C           1     -33.189  -4.323 -11.857  0.00  0.00     0.155 C 
BRANCH  16  17
HETATM   17  C           1     -33.767  -5.433 -11.015  0.00  0.00     0.175 C 
HETATM   18  O           1     -34.863  -5.272 -10.434  0.00  0.00    -0.648 OA
HETATM   19  O           1     -33.151  -6.515 -10.898  0.00  0.00    -0.648 OA
ENDBRANCH  16  17
ENDBRANCH  15  16
BRANCH  15  20
HETATM   20  N           1     -33.643  -4.046 -14.267  0.00  0.00    -0.066 N 
HETATM   21  H           1     -34.386  -3.865 -14.979  0.00  0.00     0.275 HD
HETATM   22  H           1     -32.860  -3.367 -14.402  0.00  0.00     0.275 HD
HETATM   23  H           1     -33.283  -5.020 -14.380  0.00  0.00     0.275 HD
ENDBRANCH  15  20
ENDBRANCH   3  15
TORSDOF 8
ENDMDL
MODEL 5
REMARK VINA RESULT:      -6.0      1.929      2.840
REMARK  8 active torsions:
REMARK  status: ('A' for Active; 'I' for Inactive)
REMARK    1  A    between atoms: N_9  and  C_19 
REMARK       I    between atoms: N_9  and  C_10 
REMARK    2  A    between atoms: C_10  and  C_11 
REMARK    3  A    between atoms: C_11  and  C_12 
REMARK    4  A    between atoms: C_11  and  N_15 
REMARK    5  A    between atoms: C_12  and  C_13 
REMARK    6  A    between atoms: C_18  and  C_19 
REMARK    7  A    between atoms: C_19  and  C_20 
REMARK    8  A    between atoms: C_20  and  C_22 
REMARK       I    between atoms: N_21  and  C_22 
ROOT
HETATM    1  H           1     -36.093  -2.682 -12.003  0.00  0.00     0.163 HD
HETATM    2  N           1     -35.479  -1.963 -11.641  0.00  0.00    -0.344 N 
HETATM    3  C           1     -34.303  -2.308 -11.033  0.00  0.00     0.249 C 
HETATM    4  O           1     -33.569  -1.450 -10.602  0.00  0.00    -0.271 OA
ENDROOT
BRANCH   2   5
HETATM    5  C           1     -35.845  -0.565 -11.769  0.00  0.00     0.194 C 
BRANCH   5   6
HETATM    6  C           1     -36.917  -0.232 -10.760  0.00  0.00     0.197 C 
HETATM    7  O           1     -38.075  -0.680 -10.908  0.00  0.00    -0.646 OA
HETATM    8  O           1     -36.647   0.490  -9.777  0.00  0.00    -0.646 OA
ENDBRANCH   5   6
BRANCH   5   9
HETATM    9  C           1     -36.372  -0.306 -13.175  0.00  0.00     0.138 C 
BRANCH   9  10
HETATM   10  C           1     -35.232   0.118 -14.068  0.00  0.00     0.217 C 
HETATM   11  N           1     -34.980  -0.566 -15.228  0.00  0.00    -0.370 N 
HETATM   12  H           1     -35.558  -1.355 -15.485  0.00  0.00     0.159 HD
HETATM   13  H           1     -34.216  -0.281 -15.827  0.00  0.00     0.159 HD
HETATM   14  O           1     -34.542   1.061 -13.761  0.00  0.00    -0.274 OA
ENDBRANCH   9  10
ENDBRANCH   5   9
ENDBRANCH   2   5
BRANCH   3  15
HETATM   15  C           1     -33.921  -3.762 -10.901  0.00  0.00     0.284 C 
BRANCH  15  16
HETATM   16  C           1     -33.232  -4.225 -12.177  0.00  0.00     0.155 C 
BRANCH  16  17
HETATM   17  C           1     -34.235  -4.273 -13.303  0.00  0.00     0.175 C 
HETATM   18  O           1     -35.029  -5.234 -13.393  0.00  0.00    -0.648 OA
HETATM   19  O           1     -34.273  -3.351 -14.146  0.00  0.00    -0.648 OA
ENDBRANCH  16  17
ENDBRANCH  15  16
BRANCH  15  20
HETATM   20  N           1     -35.156  -4.584 -10.674  0.00  0.00    -0.066 N 
HETATM   21  H           1     -34.890  -5.507 -10.264  0.00  0.00     0.275 HD
HETATM   22  H           1     -35.792  -4.081 -10.014  0.00  0.00     0.275 HD
HETATM   23  H           1     -35.646  -4.735 -11.585  0.00  0.00     0.275 HD
ENDBRANCH  15  20
ENDBRANCH   3  15
TORSDOF 8
ENDMDL
MODEL 6
REMARK VINA RESULT:      -5.8      9.768     11.359
REMARK  8 active torsions:
REMARK  status: ('A' for Active; 'I' for Inactive)
REMARK    1  A    between atoms: N_9  and  C_19 
REMARK       I    between atoms: N_9  and  C_10 
REMARK    2  A    between atoms: C_10  and  C_11 
REMARK    3  A    between atoms: C_11  and  C_12 
REMARK    4  A    between atoms: C_11  and  N_15 
REMARK    5  A    between atoms: C_12  and  C_13 
REMARK    6  A    between atoms: C_18  and  C_19 
REMARK    7  A    between atoms: C_19  and  C_20 
REMARK    8  A    between atoms: C_20  and  C_22 
REMARK       I    between atoms: N_21  and  C_22 
ROOT
HETATM    1  H           1     -27.917  -7.201 -19.902  0.00  0.00     0.163 HD
HETATM    2  N           1     -27.935  -6.923 -18.929  0.00  0.00    -0.344 N 
HETATM    3  C           1     -26.801  -6.439 -18.333  0.00  0.00     0.249 C 
HETATM    4  O           1     -26.821  -6.108 -17.172  0.00  0.00    -0.271 OA
ENDROOT
BRANCH   2   5
HETATM    5  C           1     -29.162  -7.037 -18.164  0.00  0.00     0.194 C 
BRANCH   5   6
HETATM    6  C           1     -30.059  -8.068 -18.805  0.00  0.00     0.197 C 
HETATM    7  O           1     -29.563  -8.992 -19.484  0.00  0.00    -0.646 OA
HETATM    8  O           1     -31.298  -7.997 -18.654  0.00  0.00    -0.646 OA
ENDBRANCH   5   6
BRANCH   5   9
HETATM    9  C           1     -29.871  -5.689 -18.142  0.00  0.00     0.138 C 
BRANCH   9  10
HETATM   10  C           1     -30.605  -5.528 -16.833  0.00  0.00     0.217 C 
HETATM   11  N           1     -31.973  -5.469 -16.819  0.00  0.00    -0.370 N 
HETATM   12  H           1     -32.492  -5.533 -17.685  0.00  0.00     0.159 HD
HETATM   13  H           1     -32.465  -5.362 -15.941  0.00  0.00     0.159 HD
HETATM   14  O           1     -29.986  -5.452 -15.798  0.00  0.00    -0.274 OA
ENDBRANCH   9  10
ENDBRANCH   5   9
ENDBRANCH   2   5
BRANCH   3  15
HETATM   15  C           1     -25.524  -6.321 -19.129  0.00  0.00     0.284 C 
BRANCH  15  16
HETATM   16  C           1     -25.844  -6.381 -20.616  0.00  0.00     0.155 C 
BRANCH  16  17
HETATM   17  C           1     -25.508  -7.752 -21.149  0.00  0.00     0.175 C 
HETATM   18  O           1     -26.399  -8.625 -21.236  0.00  0.00    -0.648 OA
HETATM   19  O           1     -24.338  -8.015 -21.504  0.00  0.00    -0.648 OA
ENDBRANCH  16  17
ENDBRANCH  15  16
BRANCH  15  20
HETATM   20  N           1     -24.605  -7.451 -18.770  0.00  0.00    -0.066 N 
HETATM   21  H           1     -24.638  -7.613 -17.738  0.00  0.00     0.275 HD
HETATM   22  H           1     -24.909  -8.318 -19.267  0.00  0.00     0.275 HD
HETATM   23  H           1     -23.629  -7.209 -19.053  0.00  0.00     0.275 HD
ENDBRANCH  15  20
ENDBRANCH   3  15
TORSDOF 8
ENDMDL
MODEL 7
REMARK VINA RESULT:      -5.8      1.669      5.240
REMARK  8 active torsions:
REMARK  status: ('A' for Active; 'I' for Inactive)
REMARK    1  A    between atoms: N_9  and  C_19 
REMARK       I    between atoms: N_9  and  C_10 
REMARK    2  A    between atoms: C_10  and  C_11 
REMARK    3  A    between atoms: C_11  and  C_12 
REMARK    4  A    between atoms: C_11  and  N_15 
REMARK    5  A    between atoms: C_12  and  C_13 
REMARK    6  A    between atoms: C_18  and  C_19 
REMARK    7  A    between atoms: C_19  and  C_20 
REMARK    8  A    between atoms: C_20  and  C_22 
REMARK       I    between atoms: N_21  and  C_22 
ROOT
HETATM    1  H           1     -36.099  -1.979 -13.497  0.00  0.00     0.163 HD
HETATM    2  N           1     -35.498  -1.398 -12.927  0.00  0.00    -0.344 N 
HETATM    3  C           1     -35.450  -0.046 -13.140  0.00  0.00     0.249 C 
HETATM    4  O           1     -34.733   0.648 -12.460  0.00  0.00    -0.271 OA
ENDROOT
BRANCH   2   5
HETATM    5  C           1     -34.689  -1.996 -11.883  0.00  0.00     0.194 C 
BRANCH   5   6
HETATM    6  C           1     -33.930  -3.172 -12.447  0.00  0.00     0.197 C 
HETATM    7  O           1     -34.240  -3.638 -13.564  0.00  0.00    -0.646 OA
HETATM    8  O           1     -32.992  -3.680 -11.796  0.00  0.00    -0.646 OA
ENDBRANCH   5   6
BRANCH   5   9
HETATM    9  C           1     -35.592  -2.467 -10.750  0.00  0.00     0.138 C 
BRANCH   9  10
HETATM   10  C           1     -36.544  -1.359 -10.372  0.00  0.00     0.217 C 
HETATM   11  N           1     -36.130  -0.358  -9.534  0.00  0.00    -0.370 N 
HETATM   12  H           1     -35.185  -0.360  -9.170  0.00  0.00     0.159 HD
HETATM   13  H           1     -36.768   0.385  -9.280  0.00  0.00     0.159 HD
HETATM   14  O           1     -37.671  -1.356 -10.806  0.00  0.00    -0.274 OA
ENDBRANCH   9  10
ENDBRANCH   5   9
ENDBRANCH   2   5
BRANCH   3  15
HETATM   15  C           1     -36.292   0.576 -14.227  0.00  0.00     0.284 C 
BRANCH  15  16
HETATM   16  C           1     -37.028  -0.518 -14.989  0.00  0.00     0.155 C 
BRANCH  16  17
HETATM   17  C           1     -36.190  -0.968 -16.159  0.00  0.00     0.175 C 
HETATM   18  O           1     -35.146  -1.629 -15.964  0.00  0.00    -0.648 OA
HETATM   19  O           1     -36.538  -0.680 -17.325  0.00  0.00    -0.648 OA
ENDBRANCH  16  17
ENDBRANCH  15  16
BRANCH  15  20
HETATM   20  N           1     -35.408   1.334 -15.172  0.00  0.00    -0.066 N 
HETATM   21  H           1     -35.374   2.339 -14.887  0.00  0.00     0.275 HD
HETATM   22  H           1     -34.443   0.933 -15.144  0.00  0.00     0.275 HD
HETATM   23  H           1     -35.790   1.260 -16.142  0.00  0.00     0.275 HD
ENDBRANCH  15  20
ENDBRANCH   3  15
TORSDOF 8
ENDMDL
MODEL 8
REMARK VINA RESULT:      -5.8     10.096     12.158
REMARK  8 active torsions:
REMARK  status: ('A' for Active; 'I' for Inactive)
REMARK    1  A    between atoms: N_9  and  C_19 
REMARK       I    between atoms: N_9  and  C_10 
REMARK    2  A    between atoms: C_10  and  C_11 
REMARK    3  A    between atoms: C_11  and  C_12 
REMARK    4  A    between atoms: C_11  and  N_15 
REMARK    5  A    between atoms: C_12  and  C_13 
REMARK    6  A    between atoms: C_18  and  C_19 
REMARK    7  A    between atoms: C_19  and  C_20 
REMARK    8  A    between atoms: C_20  and  C_22 
REMARK       I    between atoms: N_21  and  C_22 
ROOT
HETATM    1  H           1     -25.666  -7.161 -18.313  0.00  0.00     0.163 HD
HETATM    2  N           1     -26.479  -6.585 -18.138  0.00  0.00    -0.344 N 
HETATM    3  C           1     -27.213  -6.100 -19.187  0.00  0.00     0.249 C 
HETATM    4  O           1     -28.184  -5.411 -18.979  0.00  0.00    -0.271 OA
ENDROOT
BRANCH   2   5
HETATM    5  C           1     -26.868  -6.272 -16.776  0.00  0.00     0.194 C 
BRANCH   5   6
HETATM    6  C           1     -25.691  -6.484 -15.856  0.00  0.00     0.197 C 
HETATM    7  O           1     -25.317  -7.644 -15.577  0.00  0.00    -0.646 OA
HETATM    8  O           1     -25.090  -5.500 -15.374  0.00  0.00    -0.646 OA
ENDBRANCH   5   6
BRANCH   5   9
HETATM    9  C           1     -28.013  -7.184 -16.356  0.00  0.00     0.138 C 
BRANCH   9  10
HETATM   10  C           1     -29.211  -6.346 -15.979  0.00  0.00     0.217 C 
HETATM   11  N           1     -30.347  -6.393 -16.743  0.00  0.00    -0.370 N 
HETATM   12  H           1     -30.383  -6.989 -17.560  0.00  0.00     0.159 HD
HETATM   13  H           1     -31.149  -5.831 -16.491  0.00  0.00     0.159 HD
HETATM   14  O           1     -29.168  -5.634 -15.004  0.00  0.00    -0.274 OA
ENDBRANCH   9  10
ENDBRANCH   5   9
ENDBRANCH   2   5
BRANCH   3  15
HETATM   15  C           1     -26.809  -6.424 -20.604  0.00  0.00     0.284 C 
BRANCH  15  16
HETATM   16  C           1     -26.434  -7.898 -20.701  0.00  0.00     0.155 C 
BRANCH  16  17
HETATM   17  C           1     -24.974  -8.024 -21.056  0.00  0.00     0.175 C 
HETATM   18  O           1     -24.635  -8.240 -22.240  0.00  0.00    -0.648 OA
HETATM   19  O           1     -24.102  -7.914 -20.167  0.00  0.00    -0.648 OA
ENDBRANCH  16  17
ENDBRANCH  15  16
BRANCH  15  20
HETATM   20  N           1     -25.629  -5.583 -20.992  0.00  0.00    -0.066 N 
HETATM   21  H           1     -24.832  -6.203 -21.262  0.00  0.00     0.275 HD
HETATM   22  H           1     -25.886  -4.975 -21.803  0.00  0.00     0.275 HD
HETATM   23  H           1     -25.346  -4.986 -20.183  0.00  0.00     0.275 HD
ENDBRANCH  15  20
ENDBRANCH   3  15
TORSDOF 8
ENDMDL
MODEL 9
REMARK VINA RESULT:      -5.8      9.960     11.684
REMARK  8 active torsions:
REMARK  status: ('A' for Active; 'I' for Inactive)
REMARK    1  A    between atoms: N_9  and  C_19 
REMARK       I    between atoms: N_9  and  C_10 
REMARK    2  A    between atoms: C_10  and  C_11 
REMARK    3  A    between atoms: C_11  and  C_12 
REMARK    4  A    between atoms: C_11  and  N_15 
REMARK    5  A    between atoms: C_12  and  C_13 
REMARK    6  A    between atoms: C_18  and  C_19 
REMARK    7  A    between atoms: C_19  and  C_20 
REMARK    8  A    between atoms: C_20  and  C_22 
REMARK       I    between atoms: N_21  and  C_22 
ROOT
HETATM    1  H           1     -26.295  -6.946 -16.918  0.00  0.00     0.163 HD
HETATM    2  N           1     -27.041  -6.669 -17.543  0.00  0.00    -0.344 N 
HETATM    3  C           1     -26.760  -6.340 -18.842  0.00  0.00     0.249 C 
HETATM    4  O           1     -27.649  -6.008 -19.588  0.00  0.00    -0.271 OA
ENDROOT
BRANCH   2   5
HETATM    5  C           1     -28.409  -6.621 -17.064  0.00  0.00     0.194 C 
BRANCH   5   6
HETATM    6  C           1     -28.412  -6.542 -15.557  0.00  0.00     0.197 C 
HETATM    7  O           1     -29.007  -5.606 -14.981  0.00  0.00    -0.646 OA
HETATM    8  O           1     -27.820  -7.414 -14.885  0.00  0.00    -0.646 OA
ENDBRANCH   5   6
BRANCH   5   9
HETATM    9  C           1     -29.146  -7.878 -17.509  0.00  0.00     0.138 C 
BRANCH   9  10
HETATM   10  C           1     -30.544  -7.513 -17.947  0.00  0.00     0.217 C 
HETATM   11  N           1     -31.281  -6.623 -17.212  0.00  0.00    -0.370 N 
HETATM   12  H           1     -30.888  -6.210 -16.376  0.00  0.00     0.159 HD
HETATM   13  H           1     -32.217  -6.379 -17.505  0.00  0.00     0.159 HD
HETATM   14  O           1     -31.012  -8.007 -18.945  0.00  0.00    -0.274 OA
ENDBRANCH   9  10
ENDBRANCH   5   9
ENDBRANCH   2   5
BRANCH   3  15
HETATM   15  C           1     -25.336  -6.390 -19.340  0.00  0.00     0.284 C 
BRANCH  15  16
HETATM   16  C           1     -25.333  -6.452 -20.862  0.00  0.00     0.155 C 
BRANCH  16  17
HETATM   17  C           1     -25.151  -7.881 -21.307  0.00  0.00     0.175 C 
HETATM   18  O           1     -26.147  -8.624 -21.450  0.00  0.00    -0.648 OA
HETATM   19  O           1     -24.004  -8.325 -21.534  0.00  0.00    -0.648 OA
ENDBRANCH  16  17
ENDBRANCH  15  16
BRANCH  15  20
HETATM   20  N           1     -24.657  -7.608 -18.789  0.00  0.00    -0.066 N 
HETATM   21  H           1     -23.777  -7.326 -18.301  0.00  0.00     0.275 HD
HETATM   22  H           1     -25.293  -8.085 -18.110  0.00  0.00     0.275 HD
HETATM   23  H           1     -24.427  -8.262 -19.571  0.00  0.00     0.275 HD
ENDBRANCH  15  20
ENDBRANCH   3  15
TORSDOF 8
ENDMDL
