MODEL 1
REMARK VINA RESULT:      -5.1      0.000      0.000
REMARK  6 active torsions:
REMARK  status: ('A' for Active; 'I' for Inactive)
REMARK    1  A    between atoms: C_5  and  C_13 
REMARK    2  A    between atoms: C_5  and  N_16 
REMARK    3  A    between atoms: C_6  and  C_7 
REMARK    4  A    between atoms: C_6  and  C_17 
REMARK    5  A    between atoms: C_6  and  N_12 
REMARK    6  A    between atoms: C_7  and  O_8 
REMARK       I    between atoms: N_12  and  C_13 
ROOT
HETATM    1  H           1     -22.401  -5.573  -8.999  0.00  0.00     0.163 HD
HETATM    2  O           1     -21.499  -3.246  -7.099  0.00  0.00    -0.271 OA
HETATM    3  N           1     -22.290  -4.623  -8.669  0.00  0.00    -0.343 N 
HETATM    4  C           1     -21.630  -4.379  -7.494  0.00  0.00     0.248 C 
ENDROOT
BRANCH   3   5
HETATM    5  C           1     -22.830  -3.520  -9.439  0.00  0.00     0.209 C 
BRANCH   5   6
HETATM    6  C           1     -22.114  -3.437 -10.780  0.00  0.00     0.200 C 
BRANCH   6   7
HETATM    7  O           1     -23.012  -3.006 -11.766  0.00  0.00    -0.398 OA
HETATM    8  H           1     -22.507  -2.537 -12.409  0.00  0.00     0.209 HD
ENDBRANCH   6   7
ENDBRANCH   5   6
BRANCH   5   9
HETATM    9  C           1     -24.305  -3.743  -9.669  0.00  0.00     0.198 C 
HETATM   10  O           1     -25.110  -2.796  -9.532  0.00  0.00    -0.646 OA
HETATM   11  O           1     -24.722  -4.874  -9.999  0.00  0.00    -0.646 OA
ENDBRANCH   5   9
ENDBRANCH   3   5
BRANCH   4  12
HETATM   12  C           1     -21.068  -5.528  -6.692  0.00  0.00     0.270 C 
HETATM   13  C           1     -20.422  -4.992  -5.422  0.00  0.00     0.050 C 
BRANCH  12  14
HETATM   14  N           1     -20.039  -6.250  -7.510  0.00  0.00    -0.067 N 
HETATM   15  H           1     -19.127  -6.250  -7.001  0.00  0.00     0.275 HD
HETATM   16  H           1     -19.924  -5.769  -8.430  0.00  0.00     0.275 HD
HETATM   17  H           1     -20.349  -7.235  -7.670  0.00  0.00     0.275 HD
ENDBRANCH  12  14
ENDBRANCH   4  12
TORSDOF 6
ENDMDL
MODEL 2
REMARK VINA RESULT:      -5.0      2.226      4.836
REMARK  6 active torsions:
REMARK  status: ('A' for Active; 'I' for Inactive)
REMARK    1  A    between atoms: C_5  and  C_13 
REMARK    2  A    between atoms: C_5  and  N_16 
REMARK    3  A    between atoms: C_6  and  C_7 
REMARK    4  A    between atoms: C_6  and  C_17 
REMARK    5  A    between atoms: C_6  and  N_12 
REMARK    6  A    between atoms: C_7  and  O_8 
REMARK       I    between atoms: N_12  and  C_13 
ROOT
HETATM    1  H           1     -21.120  -3.073 -10.127  0.00  0.00     0.163 HD
HETATM    2  O           1     -23.615  -4.870 -10.745  0.00  0.00    -0.271 OA
HETATM    3  N           1     -21.782  -3.829 -10.009  0.00  0.00    -0.343 N 
HETATM    4  C           1     -22.825  -3.969 -10.886  0.00  0.00     0.248 C 
ENDROOT
BRANCH   3   5
HETATM    5  C           1     -21.626  -4.765  -8.913  0.00  0.00     0.209 C 
BRANCH   5   6
HETATM    6  C           1     -20.155  -5.121  -8.754  0.00  0.00     0.200 C 
BRANCH   6   7
HETATM    7  O           1     -19.998  -5.996  -7.670  0.00  0.00    -0.398 OA
HETATM    8  H           1     -19.091  -6.251  -7.654  0.00  0.00     0.209 HD
ENDBRANCH   6   7
ENDBRANCH   5   6
BRANCH   5   9
HETATM    9  C           1     -22.131  -4.133  -7.639  0.00  0.00     0.198 C 
HETATM   10  O           1     -23.276  -4.405  -7.217  0.00  0.00    -0.646 OA
HETATM   11  O           1     -21.404  -3.339  -7.004  0.00  0.00    -0.646 OA
ENDBRANCH   5   9
ENDBRANCH   3   5
BRANCH   4  12
HETATM   12  C           1     -22.986  -2.994 -12.027  0.00  0.00     0.270 C 
HETATM   13  C           1     -24.431  -3.011 -12.507  0.00  0.00     0.050 C 
BRANCH  12  14
HETATM   14  N           1     -22.081  -3.392 -13.154  0.00  0.00    -0.067 N 
HETATM   15  H           1     -22.378  -2.904 -14.029  0.00  0.00     0.275 HD
HETATM   16  H           1     -22.135  -4.426 -13.297  0.00  0.00     0.275 HD
HETATM   17  H           1     -21.098  -3.125 -12.923  0.00  0.00     0.275 HD
ENDBRANCH  12  14
ENDBRANCH   4  12
TORSDOF 6
ENDMDL
MODEL 3
REMARK VINA RESULT:      -4.8      3.194      5.849
REMARK  6 active torsions:
REMARK  status: ('A' for Active; 'I' for Inactive)
REMARK    1  A    between atoms: C_5  and  C_13 
REMARK    2  A    between atoms: C_5  and  N_16 
REMARK    3  A    between atoms: C_6  and  C_7 
REMARK    4  A    between atoms: C_6  and  C_17 
REMARK    5  A    between atoms: C_6  and  N_12 
REMARK    6  A    between atoms: C_7  and  O_8 
REMARK       I    between atoms: N_12  and  C_13 
ROOT
HETATM    1  H           1     -22.022  -3.368 -12.588  0.00  0.00     0.163 HD
HETATM    2  O           1     -25.079  -2.844 -12.123  0.00  0.00    -0.271 OA
HETATM    3  N           1     -22.899  -3.320 -12.084  0.00  0.00    -0.343 N 
HETATM    4  C           1     -24.034  -2.902 -12.725  0.00  0.00     0.248 C 
ENDROOT
BRANCH   3   5
HETATM    5  C           1     -22.951  -3.693 -10.684  0.00  0.00     0.209 C 
BRANCH   5   6
HETATM    6  C           1     -23.768  -4.968 -10.528  0.00  0.00     0.200 C 
BRANCH   6   7
HETATM    7  O           1     -24.908  -4.703  -9.756  0.00  0.00    -0.398 OA
HETATM    8  H           1     -24.638  -4.728  -8.854  0.00  0.00     0.209 HD
ENDBRANCH   6   7
ENDBRANCH   5   6
BRANCH   5   9
HETATM    9  C           1     -21.550  -3.928 -10.175  0.00  0.00     0.198 C 
HETATM   10  O           1     -20.607  -4.071 -10.983  0.00  0.00    -0.646 OA
HETATM   11  O           1     -21.332  -3.978  -8.945  0.00  0.00    -0.646 OA
ENDBRANCH   5   9
ENDBRANCH   3   5
BRANCH   4  12
HETATM   12  C           1     -23.979  -2.514 -14.182  0.00  0.00     0.270 C 
HETATM   13  C           1     -22.612  -2.871 -14.750  0.00  0.00     0.050 C 
BRANCH  12  14
HETATM   14  N           1     -24.205  -1.037 -14.314  0.00  0.00    -0.067 N 
HETATM   15  H           1     -24.881  -0.856 -15.089  0.00  0.00     0.275 HD
HETATM   16  H           1     -23.297  -0.564 -14.525  0.00  0.00     0.275 HD
HETATM   17  H           1     -24.592  -0.662 -13.419  0.00  0.00     0.275 HD
ENDBRANCH  12  14
ENDBRANCH   4  12
TORSDOF 6
ENDMDL
MODEL 4
REMARK VINA RESULT:      -4.7      1.599      2.451
REMARK  6 active torsions:
REMARK  status: ('A' for Active; 'I' for Inactive)
REMARK    1  A    between atoms: C_5  and  C_13 
REMARK    2  A    between atoms: C_5  and  N_16 
REMARK    3  A    between atoms: C_6  and  C_7 
REMARK    4  A    between atoms: C_6  and  C_17 
REMARK    5  A    between atoms: C_6  and  N_12 
REMARK    6  A    between atoms: C_7  and  O_8 
REMARK       I    between atoms: N_12  and  C_13 
ROOT
HETATM    1  H           1     -21.784  -3.489  -9.769  0.00  0.00     0.163 HD
HETATM    2  O           1     -23.136  -4.531  -7.138  0.00  0.00    -0.271 OA
HETATM    3  N           1     -22.514  -3.857  -9.174  0.00  0.00    -0.343 N 
HETATM    4  C           1     -22.264  -4.091  -7.848  0.00  0.00     0.248 C 
ENDROOT
BRANCH   3   5
HETATM    5  C           1     -23.826  -4.138  -9.725  0.00  0.00     0.209 C 
BRANCH   5   6
HETATM    6  C           1     -24.794  -3.035  -9.321  0.00  0.00     0.200 C 
BRANCH   6   7
HETATM    7  O           1     -26.071  -3.327  -9.820  0.00  0.00    -0.398 OA
HETATM    8  H           1     -26.338  -2.585 -10.337  0.00  0.00     0.209 HD
ENDBRANCH   6   7
ENDBRANCH   5   6
BRANCH   5   9
HETATM    9  C           1     -23.734  -4.201 -11.230  0.00  0.00     0.198 C 
HETATM   10  O           1     -23.552  -5.299 -11.800  0.00  0.00    -0.646 OA
HETATM   11  O           1     -23.841  -3.157 -11.907  0.00  0.00    -0.646 OA
ENDBRANCH   5   9
ENDBRANCH   3   5
BRANCH   4  12
HETATM   12  C           1     -20.899  -3.798  -7.275  0.00  0.00     0.270 C 
HETATM   13  C           1     -19.837  -4.072  -8.330  0.00  0.00     0.050 C 
BRANCH  12  14
HETATM   14  N           1     -20.659  -4.677  -6.084  0.00  0.00    -0.067 N 
HETATM   15  H           1     -21.497  -4.656  -5.460  0.00  0.00     0.275 HD
HETATM   16  H           1     -19.825  -4.331  -5.558  0.00  0.00     0.275 HD
HETATM   17  H           1     -20.487  -5.657  -6.403  0.00  0.00     0.275 HD
ENDBRANCH  12  14
ENDBRANCH   4  12
TORSDOF 6
ENDMDL
MODEL 5
REMARK VINA RESULT:      -4.5      2.513      5.114
REMARK  6 active torsions:
REMARK  status: ('A' for Active; 'I' for Inactive)
REMARK    1  A    between atoms: C_5  and  C_13 
REMARK    2  A    between atoms: C_5  and  N_16 
REMARK    3  A    between atoms: C_6  and  C_7 
REMARK    4  A    between atoms: C_6  and  C_17 
REMARK    5  A    between atoms: C_6  and  N_12 
REMARK    6  A    between atoms: C_7  and  O_8 
REMARK       I    between atoms: N_12  and  C_13 
ROOT
HETATM    1  H           1     -23.281  -4.923 -10.126  0.00  0.00     0.163 HD
HETATM    2  O           1     -21.705  -2.539 -11.420  0.00  0.00    -0.271 OA
HETATM    3  N           1     -22.594  -4.184 -10.199  0.00  0.00    -0.343 N 
HETATM    4  C           1     -22.526  -3.420 -11.333  0.00  0.00     0.248 C 
ENDROOT
BRANCH   3   5
HETATM    5  C           1     -21.680  -3.934  -9.101  0.00  0.00     0.209 C 
BRANCH   5   6
HETATM    6  C           1     -22.420  -4.086  -7.779  0.00  0.00     0.200 C 
BRANCH   6   7
HETATM    7  O           1     -23.802  -4.034  -8.008  0.00  0.00    -0.398 OA
HETATM    8  H           1     -23.989  -4.653  -8.693  0.00  0.00     0.209 HD
ENDBRANCH   6   7
ENDBRANCH   5   6
BRANCH   5   9
HETATM    9  C           1     -20.544  -4.925  -9.158  0.00  0.00     0.198 C 
HETATM   10  O           1     -20.363  -5.725  -8.214  0.00  0.00    -0.646 OA
HETATM   11  O           1     -19.784  -4.949 -10.150  0.00  0.00    -0.646 OA
ENDBRANCH   5   9
ENDBRANCH   3   5
BRANCH   4  12
HETATM   12  C           1     -23.478  -3.681 -12.475  0.00  0.00     0.270 C 
HETATM   13  C           1     -23.021  -2.905 -13.703  0.00  0.00     0.050 C 
BRANCH  12  14
HETATM   14  N           1     -24.857  -3.236 -12.088  0.00  0.00    -0.067 N 
HETATM   15  H           1     -25.191  -2.511 -12.761  0.00  0.00     0.275 HD
HETATM   16  H           1     -24.834  -2.833 -11.124  0.00  0.00     0.275 HD
HETATM   17  H           1     -25.505  -4.056 -12.106  0.00  0.00     0.275 HD
ENDBRANCH  12  14
ENDBRANCH   4  12
TORSDOF 6
ENDMDL
MODEL 6
REMARK VINA RESULT:      -4.5      1.903      4.811
REMARK  6 active torsions:
REMARK  status: ('A' for Active; 'I' for Inactive)
REMARK    1  A    between atoms: C_5  and  C_13 
REMARK    2  A    between atoms: C_5  and  N_16 
REMARK    3  A    between atoms: C_6  and  C_7 
REMARK    4  A    between atoms: C_6  and  C_17 
REMARK    5  A    between atoms: C_6  and  N_12 
REMARK    6  A    between atoms: C_7  and  O_8 
REMARK       I    between atoms: N_12  and  C_13 
ROOT
HETATM    1  H           1     -20.909  -5.095  -9.543  0.00  0.00     0.163 HD
HETATM    2  O           1     -23.288  -3.072  -9.840  0.00  0.00    -0.271 OA
HETATM    3  N           1     -21.603  -4.416  -9.257  0.00  0.00    -0.343 N 
HETATM    4  C           1     -22.461  -3.883 -10.181  0.00  0.00     0.248 C 
ENDROOT
BRANCH   3   5
HETATM    5  C           1     -21.687  -4.007  -7.868  0.00  0.00     0.209 C 
BRANCH   5   6
HETATM    6  C           1     -22.724  -4.860  -7.150  0.00  0.00     0.200 C 
BRANCH   6   7
HETATM    7  O           1     -23.962  -4.203  -7.162  0.00  0.00    -0.398 OA
HETATM    8  H           1     -23.947  -3.579  -6.455  0.00  0.00     0.209 HD
ENDBRANCH   6   7
ENDBRANCH   5   6
BRANCH   5   9
HETATM    9  C           1     -20.342  -4.188  -7.209  0.00  0.00     0.198 C 
HETATM   10  O           1     -19.296  -4.089  -7.886  0.00  0.00    -0.646 OA
HETATM   11  O           1     -20.273  -4.435  -5.986  0.00  0.00    -0.646 OA
ENDBRANCH   5   9
ENDBRANCH   3   5
BRANCH   4  12
HETATM   12  C           1     -22.372  -4.309 -11.626  0.00  0.00     0.270 C 
HETATM   13  C           1     -22.404  -3.077 -12.521  0.00  0.00     0.050 C 
BRANCH  12  14
HETATM   14  N           1     -23.535  -5.197 -11.957  0.00  0.00    -0.067 N 
HETATM   15  H           1     -23.890  -5.646 -11.083  0.00  0.00     0.275 HD
HETATM   16  H           1     -23.229  -5.935 -12.630  0.00  0.00     0.275 HD
HETATM   17  H           1     -24.297  -4.627 -12.390  0.00  0.00     0.275 HD
ENDBRANCH  12  14
ENDBRANCH   4  12
TORSDOF 6
ENDMDL
MODEL 7
REMARK VINA RESULT:      -4.3      3.114      4.705
REMARK  6 active torsions:
REMARK  status: ('A' for Active; 'I' for Inactive)
REMARK    1  A    between atoms: C_5  and  C_13 
REMARK    2  A    between atoms: C_5  and  N_16 
REMARK    3  A    between atoms: C_6  and  C_7 
REMARK    4  A    between atoms: C_6  and  C_17 
REMARK    5  A    between atoms: C_6  and  N_12 
REMARK    6  A    between atoms: C_7  and  O_8 
REMARK       I    between atoms: N_12  and  C_13 
ROOT
HETATM    1  H           1     -21.263  -4.545  -4.712  0.00  0.00     0.163 HD
HETATM    2  O           1     -21.628  -7.652  -4.934  0.00  0.00    -0.271 OA
HETATM    3  N           1     -21.409  -5.441  -5.157  0.00  0.00    -0.343 N 
HETATM    4  C           1     -21.454  -6.582  -4.401  0.00  0.00     0.248 C 
ENDROOT
BRANCH   3   5
HETATM    5  C           1     -21.570  -5.518  -6.596  0.00  0.00     0.209 C 
BRANCH   5   6
HETATM    6  C           1     -22.654  -4.543  -7.038  0.00  0.00     0.200 C 
BRANCH   6   7
HETATM    7  O           1     -22.063  -3.337  -7.442  0.00  0.00    -0.398 OA
HETATM    8  H           1     -21.196  -3.321  -7.073  0.00  0.00     0.209 HD
ENDBRANCH   6   7
ENDBRANCH   5   6
BRANCH   5   9
HETATM    9  C           1     -20.267  -5.159  -7.267  0.00  0.00     0.198 C 
HETATM   10  O           1     -20.121  -5.352  -8.493  0.00  0.00    -0.646 OA
HETATM   11  O           1     -19.334  -4.668  -6.597  0.00  0.00    -0.646 OA
ENDBRANCH   5   9
ENDBRANCH   3   5
BRANCH   4  12
HETATM   12  C           1     -21.286  -6.502  -2.904  0.00  0.00     0.270 C 
HETATM   13  C           1     -21.102  -7.903  -2.338  0.00  0.00     0.050 C 
BRANCH  12  14
HETATM   14  N           1     -22.507  -5.876  -2.298  0.00  0.00    -0.067 N 
HETATM   15  H           1     -22.961  -6.555  -1.646  0.00  0.00     0.275 HD
HETATM   16  H           1     -23.179  -5.617  -3.055  0.00  0.00     0.275 HD
HETATM   17  H           1     -22.232  -5.017  -1.770  0.00  0.00     0.275 HD
ENDBRANCH  12  14
ENDBRANCH   4  12
TORSDOF 6
ENDMDL
MODEL 8
REMARK VINA RESULT:      -4.1      3.161      4.823
REMARK  6 active torsions:
REMARK  status: ('A' for Active; 'I' for Inactive)
REMARK    1  A    between atoms: C_5  and  C_13 
REMARK    2  A    between atoms: C_5  and  N_16 
REMARK    3  A    between atoms: C_6  and  C_7 
REMARK    4  A    between atoms: C_6  and  C_17 
REMARK    5  A    between atoms: C_6  and  N_12 
REMARK    6  A    between atoms: C_7  and  O_8 
REMARK       I    between atoms: N_12  and  C_13 
ROOT
HETATM    1  H           1     -22.060  -1.977 -12.573  0.00  0.00     0.163 HD
HETATM    2  O           1     -23.897  -4.226 -11.386  0.00  0.00    -0.271 OA
HETATM    3  N           1     -22.856  -2.599 -12.506  0.00  0.00    -0.343 N 
HETATM    4  C           1     -22.948  -3.483 -11.465  0.00  0.00     0.248 C 
ENDROOT
BRANCH   3   5
HETATM    5  C           1     -23.898  -2.553 -13.513  0.00  0.00     0.209 C 
BRANCH   5   6
HETATM    6  C           1     -24.128  -1.110 -13.941  0.00  0.00     0.200 C 
BRANCH   6   7
HETATM    7  O           1     -24.453  -1.072 -15.305  0.00  0.00    -0.398 OA
HETATM    8  H           1     -24.877  -0.245 -15.461  0.00  0.00     0.209 HD
ENDBRANCH   6   7
ENDBRANCH   5   6
BRANCH   5   9
HETATM    9  C           1     -23.476  -3.372 -14.709  0.00  0.00     0.198 C 
HETATM   10  O           1     -24.118  -4.398 -15.021  0.00  0.00    -0.646 OA
HETATM   11  O           1     -22.486  -3.023 -15.387  0.00  0.00    -0.646 OA
ENDBRANCH   5   9
ENDBRANCH   3   5
BRANCH   4  12
HETATM   12  C           1     -21.863  -3.530 -10.417  0.00  0.00     0.270 C 
HETATM   13  C           1     -20.539  -3.897 -11.073  0.00  0.00     0.050 C 
BRANCH  12  14
HETATM   14  N           1     -22.211  -4.561  -9.384  0.00  0.00    -0.067 N 
HETATM   15  H           1     -22.256  -4.109  -8.442  0.00  0.00     0.275 HD
HETATM   16  H           1     -21.481  -5.308  -9.378  0.00  0.00     0.275 HD
HETATM   17  H           1     -23.139  -4.984  -9.612  0.00  0.00     0.275 HD
ENDBRANCH  12  14
ENDBRANCH   4  12
TORSDOF 6
ENDMDL
MODEL 9
REMARK VINA RESULT:      -4.1      2.229      5.090
REMARK  6 active torsions:
REMARK  status: ('A' for Active; 'I' for Inactive)
REMARK    1  A    between atoms: C_5  and  C_13 
REMARK    2  A    between atoms: C_5  and  N_16 
REMARK    3  A    between atoms: C_6  and  C_7 
REMARK    4  A    between atoms: C_6  and  C_17 
REMARK    5  A    between atoms: C_6  and  N_12 
REMARK    6  A    between atoms: C_7  and  O_8 
REMARK       I    between atoms: N_12  and  C_13 
ROOT
HETATM    1  H           1     -22.612  -6.133  -7.546  0.00  0.00     0.163 HD
HETATM    2  O           1     -21.803  -3.124  -7.906  0.00  0.00    -0.271 OA
HETATM    3  N           1     -22.127  -5.264  -7.360  0.00  0.00    -0.343 N 
HETATM    4  C           1     -22.382  -4.159  -8.128  0.00  0.00     0.248 C 
ENDROOT
BRANCH   3   5
HETATM    5  C           1     -21.163  -5.189  -6.279  0.00  0.00     0.209 C 
BRANCH   5   6
HETATM    6  C           1     -21.597  -6.110  -5.147  0.00  0.00     0.200 C 
BRANCH   6   7
HETATM    7  O           1     -22.996  -6.108  -5.051  0.00  0.00    -0.398 OA
HETATM    8  H           1     -23.329  -6.282  -5.915  0.00  0.00     0.209 HD
ENDBRANCH   6   7
ENDBRANCH   5   6
BRANCH   5   9
HETATM    9  C           1     -19.808  -5.619  -6.785  0.00  0.00     0.198 C 
HETATM   10  O           1     -18.975  -4.760  -7.146  0.00  0.00    -0.646 OA
HETATM   11  O           1     -19.518  -6.833  -6.843  0.00  0.00    -0.646 OA
ENDBRANCH   5   9
ENDBRANCH   3   5
BRANCH   4  12
HETATM   12  C           1     -23.385  -4.238  -9.253  0.00  0.00     0.270 C 
HETATM   13  C           1     -22.715  -3.835 -10.559  0.00  0.00     0.050 C 
BRANCH  12  14
HETATM   14  N           1     -24.527  -3.307  -8.968  0.00  0.00    -0.067 N 
HETATM   15  H           1     -25.404  -3.861  -8.840  0.00  0.00     0.275 HD
HETATM   16  H           1     -24.646  -2.647  -9.770  0.00  0.00     0.275 HD
HETATM   17  H           1     -24.326  -2.765  -8.098  0.00  0.00     0.275 HD
ENDBRANCH  12  14
ENDBRANCH   4  12
TORSDOF 6
ENDMDL
