MODEL 1
REMARK VINA RESULT:      -6.8      0.000      0.000
REMARK  8 active torsions:
REMARK  status: ('A' for Active; 'I' for Inactive)
REMARK       I    between atoms: N_2  and  C_5 
REMARK    1  A    between atoms: C_5  and  C_12 
REMARK    2  A    between atoms: C_9  and  C_12 
REMARK    3  A    between atoms: C_9  and  C_10 
REMARK    4  A    between atoms: C_9  and  N_13 
REMARK       I    between atoms: N_13  and  C_14 
REMARK    5  A    between atoms: C_14  and  C_15 
REMARK    6  A    between atoms: C_15  and  C_16 
REMARK    7  A    between atoms: C_15  and  N_19 
REMARK    8  A    between atoms: C_16  and  C_17 
ROOT
HETATM    1  H           1     -24.225  -4.650  -8.445  0.00  0.00     0.163 HD
HETATM    2  N           1     -23.363  -4.220  -8.757  0.00  0.00    -0.344 N 
HETATM    3  C           1     -22.277  -4.184  -7.925  0.00  0.00     0.249 C 
HETATM    4  O           1     -21.248  -3.672  -8.295  0.00  0.00    -0.271 OA
ENDROOT
BRANCH   3   5
HETATM    5  C           1     -22.363  -4.786  -6.543  0.00  0.00     0.280 C 
BRANCH   5   6
HETATM    6  C           1     -21.521  -6.054  -6.486  0.00  0.00     0.101 C 
BRANCH   6   7
HETATM    7  C           1     -21.502  -6.578  -5.084  0.00  0.00     0.028 A 
HETATM    8  C           1     -21.577  -7.908  -4.746  0.00  0.00     0.114 A 
HETATM    9  N           1     -21.525  -7.931  -3.380  0.00  0.00    -0.360 N 
HETATM   10  C           1     -21.424  -6.637  -2.953  0.00  0.00     0.180 A 
HETATM   11  H           1     -21.559  -8.786  -2.772  0.00  0.00     0.166 HD
HETATM   12  N           1     -21.408  -5.797  -3.960  0.00  0.00    -0.355 N 
ATOM     13  HN          1     -21.339  -4.781  -3.917  1.00  0.00     0.166 HD
ENDBRANCH   6   7
ENDBRANCH   5   6
BRANCH   5  14
HETATM   14  N           1     -23.793  -5.122  -6.233  0.00  0.00    -0.066 N 
HETATM   15  H           1     -24.097  -4.601  -5.380  0.00  0.00     0.275 HD
HETATM   16  H           1     -24.396  -4.849  -7.041  0.00  0.00     0.275 HD
HETATM   17  H           1     -23.880  -6.150  -6.064  0.00  0.00     0.275 HD
ENDBRANCH   5  14
ENDBRANCH   3   5
BRANCH   2  18
HETATM   18  C           1     -23.279  -3.642 -10.084  0.00  0.00     0.194 C 
BRANCH  18  19
HETATM   19  C           1     -22.669  -4.655 -11.042  0.00  0.00     0.138 C 
BRANCH  19  20
HETATM   20  C           1     -21.587  -3.990 -11.858  0.00  0.00     0.217 C 
HETATM   21  N           1     -21.896  -3.413 -13.060  0.00  0.00    -0.370 N 
HETATM   22  H           1     -22.849  -3.433 -13.402  0.00  0.00     0.159 HD
HETATM   23  H           1     -21.172  -2.967 -13.609  0.00  0.00     0.159 HD
HETATM   24  O           1     -20.451  -3.967 -11.451  0.00  0.00    -0.274 OA
ENDBRANCH  19  20
ENDBRANCH  18  19
BRANCH  18  25
HETATM   25  C           1     -24.663  -3.271 -10.558  0.00  0.00     0.197 C 
HETATM   26  O           1     -25.596  -3.157  -9.733  0.00  0.00    -0.646 OA
HETATM   27  O           1     -24.877  -3.077 -11.774  0.00  0.00    -0.646 OA
ENDBRANCH  18  25
ENDBRANCH   2  18
TORSDOF 8
ENDMDL
MODEL 2
REMARK VINA RESULT:      -6.3      2.077      7.110
REMARK  8 active torsions:
REMARK  status: ('A' for Active; 'I' for Inactive)
REMARK       I    between atoms: N_2  and  C_5 
REMARK    1  A    between atoms: C_5  and  C_12 
REMARK    2  A    between atoms: C_9  and  C_12 
REMARK    3  A    between atoms: C_9  and  C_10 
REMARK    4  A    between atoms: C_9  and  N_13 
REMARK       I    between atoms: N_13  and  C_14 
REMARK    5  A    between atoms: C_14  and  C_15 
REMARK    6  A    between atoms: C_15  and  C_16 
REMARK    7  A    between atoms: C_15  and  N_19 
REMARK    8  A    between atoms: C_16  and  C_17 
ROOT
HETATM    1  H           1     -22.268  -6.392  -8.535  0.00  0.00     0.163 HD
HETATM    2  N           1     -22.079  -5.504  -8.086  0.00  0.00    -0.344 N 
HETATM    3  C           1     -22.626  -4.355  -8.590  0.00  0.00     0.249 C 
HETATM    4  O           1     -22.401  -3.294  -8.056  0.00  0.00    -0.271 OA
ENDROOT
BRANCH   3   5
HETATM    5  C           1     -23.511  -4.411  -9.811  0.00  0.00     0.280 C 
BRANCH   5   6
HETATM    6  C           1     -23.700  -3.006 -10.368  0.00  0.00     0.101 C 
BRANCH   6   7
HETATM    7  C           1     -23.302  -2.983 -11.811  0.00  0.00     0.028 A 
HETATM    8  C           1     -22.139  -3.519 -12.310  0.00  0.00     0.114 A 
HETATM    9  N           1     -22.185  -3.278 -13.655  0.00  0.00    -0.360 N 
HETATM   10  C           1     -23.353  -2.617 -13.913  0.00  0.00     0.180 A 
HETATM   11  H           1     -21.456  -3.550 -14.360  0.00  0.00     0.166 HD
HETATM   12  N           1     -24.049  -2.425 -12.817  0.00  0.00    -0.355 N 
ATOM     13  HN          1     -24.953  -1.960 -12.732  1.00  0.00     0.166 HD
ENDBRANCH   6   7
ENDBRANCH   5   6
BRANCH   5  14
HETATM   14  N           1     -24.846  -4.982  -9.435  0.00  0.00    -0.066 N 
HETATM   15  H           1     -24.782  -6.025  -9.401  0.00  0.00     0.275 HD
HETATM   16  H           1     -25.126  -4.620  -8.496  0.00  0.00     0.275 HD
HETATM   17  H           1     -25.559  -4.700 -10.146  0.00  0.00     0.275 HD
ENDBRANCH   5  14
ENDBRANCH   3   5
BRANCH   2  18
HETATM   18  C           1     -21.229  -5.449  -6.913  0.00  0.00     0.194 C 
BRANCH  18  19
HETATM   19  C           1     -21.528  -6.640  -6.013  0.00  0.00     0.138 C 
BRANCH  19  20
HETATM   20  C           1     -22.520  -6.232  -4.950  0.00  0.00     0.217 C 
HETATM   21  N           1     -22.138  -6.200  -3.636  0.00  0.00    -0.370 N 
HETATM   22  H           1     -21.193  -6.451  -3.377  0.00  0.00     0.159 HD
HETATM   23  H           1     -22.802  -5.927  -2.923  0.00  0.00     0.159 HD
HETATM   24  O           1     -23.648  -5.933  -5.259  0.00  0.00    -0.274 OA
ENDBRANCH  19  20
ENDBRANCH  18  19
BRANCH  18  25
HETATM   25  C           1     -19.782  -5.493  -7.340  0.00  0.00     0.197 C 
HETATM   26  O           1     -19.168  -6.582  -7.355  0.00  0.00    -0.646 OA
HETATM   27  O           1     -19.198  -4.441  -7.679  0.00  0.00    -0.646 OA
ENDBRANCH  18  25
ENDBRANCH   2  18
TORSDOF 8
ENDMDL
MODEL 3
REMARK VINA RESULT:      -6.2      3.349      7.308
REMARK  8 active torsions:
REMARK  status: ('A' for Active; 'I' for Inactive)
REMARK       I    between atoms: N_2  and  C_5 
REMARK    1  A    between atoms: C_5  and  C_12 
REMARK    2  A    between atoms: C_9  and  C_12 
REMARK    3  A    between atoms: C_9  and  C_10 
REMARK    4  A    between atoms: C_9  and  N_13 
REMARK       I    between atoms: N_13  and  C_14 
REMARK    5  A    between atoms: C_14  and  C_15 
REMARK    6  A    between atoms: C_15  and  C_16 
REMARK    7  A    between atoms: C_15  and  N_19 
REMARK    8  A    between atoms: C_16  and  C_17 
ROOT
HETATM    1  H           1     -21.299  -6.855  -6.798  0.00  0.00     0.163 HD
HETATM    2  N           1     -20.871  -6.359  -6.026  0.00  0.00    -0.344 N 
HETATM    3  C           1     -20.617  -5.018  -6.132  0.00  0.00     0.249 C 
HETATM    4  O           1     -20.106  -4.425  -5.211  0.00  0.00    -0.271 OA
ENDROOT
BRANCH   3   5
HETATM    5  C           1     -20.976  -4.279  -7.398  0.00  0.00     0.280 C 
BRANCH   5   6
HETATM    6  C           1     -21.772  -5.197  -8.315  0.00  0.00     0.101 C 
BRANCH   6   7
HETATM    7  C           1     -22.795  -4.396  -9.058  0.00  0.00     0.028 A 
HETATM    8  C           1     -22.709  -4.057 -10.387  0.00  0.00     0.114 A 
HETATM    9  N           1     -23.842  -3.337 -10.644  0.00  0.00    -0.360 N 
HETATM   10  C           1     -24.556  -3.269  -9.482  0.00  0.00     0.180 A 
HETATM   11  H           1     -24.112  -2.913 -11.566  0.00  0.00     0.166 HD
HETATM   12  N           1     -23.949  -3.900  -8.505  0.00  0.00    -0.355 N 
ATOM     13  HN          1     -24.266  -4.001  -7.542  1.00  0.00     0.166 HD
ENDBRANCH   6   7
ENDBRANCH   5   6
BRANCH   5  14
HETATM   14  N           1     -19.720  -3.843  -8.094  0.00  0.00    -0.066 N 
HETATM   15  H           1     -18.932  -3.816  -7.409  0.00  0.00     0.275 HD
HETATM   16  H           1     -19.494  -4.519  -8.858  0.00  0.00     0.275 HD
HETATM   17  H           1     -19.861  -2.890  -8.501  0.00  0.00     0.275 HD
ENDBRANCH   5  14
ENDBRANCH   3   5
BRANCH   2  18
HETATM   18  C           1     -20.526  -7.069  -4.810  0.00  0.00     0.194 C 
BRANCH  18  19
HETATM   19  C           1     -21.787  -7.330  -3.999  0.00  0.00     0.138 C 
BRANCH  19  20
HETATM   20  C           1     -21.582  -6.856  -2.580  0.00  0.00     0.217 C 
HETATM   21  N           1     -22.286  -5.780  -2.111  0.00  0.00    -0.370 N 
HETATM   22  H           1     -22.942  -5.302  -2.715  0.00  0.00     0.159 HD
HETATM   23  H           1     -22.148  -5.461  -1.160  0.00  0.00     0.159 HD
HETATM   24  O           1     -20.798  -7.426  -1.860  0.00  0.00    -0.274 OA
ENDBRANCH  19  20
ENDBRANCH  18  19
BRANCH  18  25
HETATM   25  C           1     -19.874  -8.383  -5.163  0.00  0.00     0.197 C 
HETATM   26  O           1     -19.043  -8.437  -6.096  0.00  0.00    -0.646 OA
HETATM   27  O           1     -20.165  -9.418  -4.524  0.00  0.00    -0.646 OA
ENDBRANCH  18  25
ENDBRANCH   2  18
TORSDOF 8
ENDMDL
MODEL 4
REMARK VINA RESULT:      -6.1      3.222      7.507
REMARK  8 active torsions:
REMARK  status: ('A' for Active; 'I' for Inactive)
REMARK       I    between atoms: N_2  and  C_5 
REMARK    1  A    between atoms: C_5  and  C_12 
REMARK    2  A    between atoms: C_9  and  C_12 
REMARK    3  A    between atoms: C_9  and  C_10 
REMARK    4  A    between atoms: C_9  and  N_13 
REMARK       I    between atoms: N_13  and  C_14 
REMARK    5  A    between atoms: C_14  and  C_15 
REMARK    6  A    between atoms: C_15  and  C_16 
REMARK    7  A    between atoms: C_15  and  N_19 
REMARK    8  A    between atoms: C_16  and  C_17 
ROOT
HETATM    1  H           1     -21.755  -7.106  -6.557  0.00  0.00     0.163 HD
HETATM    2  N           1     -21.160  -6.540  -5.965  0.00  0.00    -0.344 N 
HETATM    3  C           1     -20.866  -5.252  -6.323  0.00  0.00     0.249 C 
HETATM    4  O           1     -20.156  -4.575  -5.618  0.00  0.00    -0.271 OA
ENDROOT
BRANCH   3   5
HETATM    5  C           1     -21.430  -4.675  -7.600  0.00  0.00     0.280 C 
BRANCH   5   6
HETATM    6  C           1     -20.373  -4.734  -8.695  0.00  0.00     0.101 C 
BRANCH   6   7
HETATM    7  C           1     -20.995  -4.375 -10.008  0.00  0.00     0.028 A 
HETATM    8  C           1     -20.340  -3.736 -11.034  0.00  0.00     0.114 A 
HETATM    9  N           1     -21.273  -3.612 -12.027  0.00  0.00    -0.360 N 
HETATM   10  C           1     -22.433  -4.169 -11.571  0.00  0.00     0.180 A 
HETATM   11  H           1     -21.123  -3.168 -12.966  0.00  0.00     0.166 HD
HETATM   12  N           1     -22.296  -4.640 -10.354  0.00  0.00    -0.355 N 
ATOM     13  HN          1     -23.005  -5.103  -9.786  1.00  0.00     0.166 HD
ENDBRANCH   6   7
ENDBRANCH   5   6
BRANCH   5  14
HETATM   14  N           1     -21.831  -3.248  -7.369  0.00  0.00    -0.066 N 
HETATM   15  H           1     -21.062  -2.614  -7.686  0.00  0.00     0.275 HD
HETATM   16  H           1     -22.699  -3.039  -7.911  0.00  0.00     0.275 HD
HETATM   17  H           1     -22.010  -3.097  -6.350  0.00  0.00     0.275 HD
ENDBRANCH   5  14
ENDBRANCH   3   5
BRANCH   2  18
HETATM   18  C           1     -20.618  -7.092  -4.739  0.00  0.00     0.194 C 
BRANCH  18  19
HETATM   19  C           1     -21.757  -7.578  -3.854  0.00  0.00     0.138 C 
BRANCH  19  20
HETATM   20  C           1     -21.612  -6.985  -2.474  0.00  0.00     0.217 C 
HETATM   21  N           1     -22.289  -5.841  -2.147  0.00  0.00    -0.370 N 
HETATM   22  H           1     -22.885  -5.393  -2.831  0.00  0.00     0.159 HD
HETATM   23  H           1     -22.192  -5.442  -1.222  0.00  0.00     0.159 HD
HETATM   24  O           1     -20.900  -7.519  -1.658  0.00  0.00    -0.274 OA
ENDBRANCH  19  20
ENDBRANCH  18  19
BRANCH  18  25
HETATM   25  C           1     -19.709  -8.250  -5.070  0.00  0.00     0.197 C 
HETATM   26  O           1     -19.581  -9.195  -4.260  0.00  0.00    -0.646 OA
HETATM   27  O           1     -19.084  -8.266  -6.152  0.00  0.00    -0.646 OA
ENDBRANCH  18  25
ENDBRANCH   2  18
TORSDOF 8
ENDMDL
MODEL 5
REMARK VINA RESULT:      -6.0      2.096      3.263
REMARK  8 active torsions:
REMARK  status: ('A' for Active; 'I' for Inactive)
REMARK       I    between atoms: N_2  and  C_5 
REMARK    1  A    between atoms: C_5  and  C_12 
REMARK    2  A    between atoms: C_9  and  C_12 
REMARK    3  A    between atoms: C_9  and  C_10 
REMARK    4  A    between atoms: C_9  and  N_13 
REMARK       I    between atoms: N_13  and  C_14 
REMARK    5  A    between atoms: C_14  and  C_15 
REMARK    6  A    between atoms: C_15  and  C_16 
REMARK    7  A    between atoms: C_15  and  N_19 
REMARK    8  A    between atoms: C_16  and  C_17 
ROOT
HETATM    1  H           1     -22.275  -4.316  -6.700  0.00  0.00     0.163 HD
HETATM    2  N           1     -21.725  -4.885  -7.330  0.00  0.00    -0.344 N 
HETATM    3  C           1     -20.861  -5.821  -6.828  0.00  0.00     0.249 C 
HETATM    4  O           1     -20.203  -6.502  -7.578  0.00  0.00    -0.271 OA
ENDROOT
BRANCH   3   5
HETATM    5  C           1     -20.730  -6.004  -5.335  0.00  0.00     0.280 C 
BRANCH   5   6
HETATM    6  C           1     -22.090  -6.351  -4.744  0.00  0.00     0.101 C 
BRANCH   6   7
HETATM    7  C           1     -21.936  -6.667  -3.289  0.00  0.00     0.028 A 
HETATM    8  C           1     -21.206  -7.721  -2.791  0.00  0.00     0.114 A 
HETATM    9  N           1     -21.336  -7.631  -1.433  0.00  0.00    -0.360 N 
HETATM   10  C           1     -22.124  -6.548  -1.167  0.00  0.00     0.180 A 
HETATM   11  H           1     -20.908  -8.278  -0.724  0.00  0.00     0.166 HD
HETATM   12  N           1     -22.501  -5.945  -2.269  0.00  0.00    -0.355 N 
ATOM     13  HN          1     -23.090  -5.116  -2.351  1.00  0.00     0.166 HD
ENDBRANCH   6   7
ENDBRANCH   5   6
BRANCH   5  14
HETATM   14  N           1     -20.229  -4.731  -4.718  0.00  0.00    -0.066 N 
HETATM   15  H           1     -19.193  -4.787  -4.595  0.00  0.00     0.275 HD
HETATM   16  H           1     -20.461  -3.927  -5.343  0.00  0.00     0.275 HD
HETATM   17  H           1     -20.683  -4.593  -3.787  0.00  0.00     0.275 HD
ENDBRANCH   5  14
ENDBRANCH   3   5
BRANCH   2  18
HETATM   18  C           1     -21.850  -4.711  -8.764  0.00  0.00     0.194 C 
BRANCH  18  19
HETATM   19  C           1     -22.932  -3.681  -9.058  0.00  0.00     0.138 C 
BRANCH  19  20
HETATM   20  C           1     -24.062  -4.338  -9.812  0.00  0.00     0.217 C 
HETATM   21  N           1     -25.336  -3.850  -9.696  0.00  0.00    -0.370 N 
HETATM   22  H           1     -25.519  -3.051  -9.105  0.00  0.00     0.159 HD
HETATM   23  H           1     -26.094  -4.291 -10.202  0.00  0.00     0.159 HD
HETATM   24  O           1     -23.843  -5.294 -10.518  0.00  0.00    -0.274 OA
ENDBRANCH  19  20
ENDBRANCH  18  19
BRANCH  18  25
HETATM   25  C           1     -20.534  -4.232  -9.328  0.00  0.00     0.197 C 
HETATM   26  O           1     -19.836  -3.421  -8.681  0.00  0.00    -0.646 OA
HETATM   27  O           1     -20.141  -4.647 -10.439  0.00  0.00    -0.646 OA
ENDBRANCH  18  25
ENDBRANCH   2  18
TORSDOF 8
ENDMDL
MODEL 6
REMARK VINA RESULT:      -5.9      2.714      7.254
REMARK  8 active torsions:
REMARK  status: ('A' for Active; 'I' for Inactive)
REMARK       I    between atoms: N_2  and  C_5 
REMARK    1  A    between atoms: C_5  and  C_12 
REMARK    2  A    between atoms: C_9  and  C_12 
REMARK    3  A    between atoms: C_9  and  C_10 
REMARK    4  A    between atoms: C_9  and  N_13 
REMARK       I    between atoms: N_13  and  C_14 
REMARK    5  A    between atoms: C_14  and  C_15 
REMARK    6  A    between atoms: C_15  and  C_16 
REMARK    7  A    between atoms: C_15  and  N_19 
REMARK    8  A    between atoms: C_16  and  C_17 
ROOT
HETATM    1  H           1     -22.051  -6.547  -6.870  0.00  0.00     0.163 HD
HETATM    2  N           1     -21.185  -6.029  -6.787  0.00  0.00    -0.344 N 
HETATM    3  C           1     -20.904  -5.020  -7.669  0.00  0.00     0.249 C 
HETATM    4  O           1     -19.871  -4.401  -7.571  0.00  0.00    -0.271 OA
ENDROOT
BRANCH   3   5
HETATM    5  C           1     -21.886  -4.679  -8.764  0.00  0.00     0.280 C 
BRANCH   5   6
HETATM    6  C           1     -21.127  -4.271 -10.019  0.00  0.00     0.101 C 
BRANCH   6   7
HETATM    7  C           1     -22.102  -3.928 -11.103  0.00  0.00     0.028 A 
HETATM    8  C           1     -23.068  -4.780 -11.583  0.00  0.00     0.114 A 
HETATM    9  N           1     -23.721  -4.066 -12.549  0.00  0.00    -0.360 N 
HETATM   10  C           1     -23.136  -2.834 -12.614  0.00  0.00     0.180 A 
HETATM   11  H           1     -24.525  -4.404 -13.133  0.00  0.00     0.166 HD
HETATM   12  N           1     -22.154  -2.721 -11.752  0.00  0.00    -0.355 N 
ATOM     13  HN          1     -21.556  -1.909 -11.597  1.00  0.00     0.166 HD
ENDBRANCH   6   7
ENDBRANCH   5   6
BRANCH   5  14
HETATM   14  N           1     -22.758  -3.544  -8.317  0.00  0.00    -0.066 N 
HETATM   15  H           1     -23.294  -3.829  -7.466  0.00  0.00     0.275 HD
HETATM   16  H           1     -22.162  -2.716  -8.091  0.00  0.00     0.275 HD
HETATM   17  H           1     -23.426  -3.295  -9.082  0.00  0.00     0.275 HD
ENDBRANCH   5  14
ENDBRANCH   3   5
BRANCH   2  18
HETATM   18  C           1     -20.241  -6.356  -5.736  0.00  0.00     0.194 C 
BRANCH  18  19
HETATM   19  C           1     -20.631  -5.626  -4.458  0.00  0.00     0.138 C 
BRANCH  19  20
HETATM   20  C           1     -21.914  -6.209  -3.916  0.00  0.00     0.217 C 
HETATM   21  N           1     -21.938  -6.758  -2.662  0.00  0.00    -0.370 N 
HETATM   22  H           1     -21.097  -6.773  -2.100  0.00  0.00     0.159 HD
HETATM   23  H           1     -22.798  -7.150  -2.298  0.00  0.00     0.159 HD
HETATM   24  O           1     -22.917  -6.192  -4.588  0.00  0.00    -0.274 OA
ENDBRANCH  19  20
ENDBRANCH  18  19
BRANCH  18  25
HETATM   25  C           1     -20.259  -7.845  -5.490  0.00  0.00     0.197 C 
HETATM   26  O           1     -21.102  -8.563  -6.072  0.00  0.00    -0.646 OA
HETATM   27  O           1     -19.433  -8.360  -4.707  0.00  0.00    -0.646 OA
ENDBRANCH  18  25
ENDBRANCH   2  18
TORSDOF 8
ENDMDL
MODEL 7
REMARK VINA RESULT:      -5.9      3.283      7.261
REMARK  8 active torsions:
REMARK  status: ('A' for Active; 'I' for Inactive)
REMARK       I    between atoms: N_2  and  C_5 
REMARK    1  A    between atoms: C_5  and  C_12 
REMARK    2  A    between atoms: C_9  and  C_12 
REMARK    3  A    between atoms: C_9  and  C_10 
REMARK    4  A    between atoms: C_9  and  N_13 
REMARK       I    between atoms: N_13  and  C_14 
REMARK    5  A    between atoms: C_14  and  C_15 
REMARK    6  A    between atoms: C_15  and  C_16 
REMARK    7  A    between atoms: C_15  and  N_19 
REMARK    8  A    between atoms: C_16  and  C_17 
ROOT
HETATM    1  H           1     -20.046  -6.607  -4.600  0.00  0.00     0.163 HD
HETATM    2  N           1     -21.054  -6.691  -4.563  0.00  0.00    -0.344 N 
HETATM    3  C           1     -21.836  -5.903  -5.364  0.00  0.00     0.249 C 
HETATM    4  O           1     -23.039  -6.002  -5.320  0.00  0.00    -0.271 OA
ENDROOT
BRANCH   3   5
HETATM    5  C           1     -21.195  -4.910  -6.302  0.00  0.00     0.280 C 
BRANCH   5   6
HETATM    6  C           1     -21.246  -5.448  -7.726  0.00  0.00     0.101 C 
BRANCH   6   7
HETATM    7  C           1     -22.236  -4.659  -8.523  0.00  0.00     0.028 A 
HETATM    8  C           1     -22.077  -4.312  -9.844  0.00  0.00     0.114 A 
HETATM    9  N           1     -23.204  -3.606 -10.163  0.00  0.00    -0.360 N 
HETATM   10  C           1     -23.987  -3.555  -9.045  0.00  0.00     0.180 A 
HETATM   11  H           1     -23.427  -3.182 -11.097  0.00  0.00     0.166 HD
HETATM   12  N           1     -23.427  -4.183  -8.037  0.00  0.00    -0.355 N 
ATOM     13  HN          1     -23.799  -4.293  -7.094  1.00  0.00     0.166 HD
ENDBRANCH   6   7
ENDBRANCH   5   6
BRANCH   5  14
HETATM   14  N           1     -19.766  -4.694  -5.901  0.00  0.00    -0.066 N 
HETATM   15  H           1     -19.690  -3.818  -5.335  0.00  0.00     0.275 HD
HETATM   16  H           1     -19.439  -5.506  -5.330  0.00  0.00     0.275 HD
HETATM   17  H           1     -19.173  -4.608  -6.758  0.00  0.00     0.275 HD
ENDBRANCH   5  14
ENDBRANCH   3   5
BRANCH   2  18
HETATM   18  C           1     -21.671  -7.645  -3.661  0.00  0.00     0.194 C 
BRANCH  18  19
HETATM   19  C           1     -21.121  -9.037  -3.941  0.00  0.00     0.138 C 
BRANCH  19  20
HETATM   20  C           1     -19.766  -8.921  -4.596  0.00  0.00     0.217 C 
HETATM   21  N           1     -18.631  -8.994  -3.835  0.00  0.00    -0.370 N 
HETATM   22  H           1     -18.700  -9.123  -2.834  0.00  0.00     0.159 HD
HETATM   23  H           1     -17.722  -8.916  -4.274  0.00  0.00     0.159 HD
HETATM   24  O           1     -19.684  -8.766  -5.791  0.00  0.00    -0.274 OA
ENDBRANCH  19  20
ENDBRANCH  18  19
BRANCH  18  25
HETATM   25  C           1     -21.361  -7.260  -2.235  0.00  0.00     0.197 C 
HETATM   26  O           1     -20.384  -7.773  -1.648  0.00  0.00    -0.646 OA
HETATM   27  O           1     -22.081  -6.428  -1.642  0.00  0.00    -0.646 OA
ENDBRANCH  18  25
ENDBRANCH   2  18
TORSDOF 8
ENDMDL
MODEL 8
REMARK VINA RESULT:      -5.7      5.313      8.808
REMARK  8 active torsions:
REMARK  status: ('A' for Active; 'I' for Inactive)
REMARK       I    between atoms: N_2  and  C_5 
REMARK    1  A    between atoms: C_5  and  C_12 
REMARK    2  A    between atoms: C_9  and  C_12 
REMARK    3  A    between atoms: C_9  and  C_10 
REMARK    4  A    between atoms: C_9  and  N_13 
REMARK       I    between atoms: N_13  and  C_14 
REMARK    5  A    between atoms: C_14  and  C_15 
REMARK    6  A    between atoms: C_15  and  C_16 
REMARK    7  A    between atoms: C_15  and  N_19 
REMARK    8  A    between atoms: C_16  and  C_17 
ROOT
HETATM    1  H           1     -22.195  -8.206  -2.794  0.00  0.00     0.163 HD
HETATM    2  N           1     -21.292  -8.598  -2.557  0.00  0.00    -0.344 N 
HETATM    3  C           1     -20.235  -8.445  -3.413  0.00  0.00     0.249 C 
HETATM    4  O           1     -19.157  -8.912  -3.132  0.00  0.00    -0.271 OA
ENDROOT
BRANCH   3   5
HETATM    5  C           1     -20.415  -7.691  -4.709  0.00  0.00     0.280 C 
BRANCH   5   6
HETATM    6  C           1     -21.224  -6.426  -4.454  0.00  0.00     0.101 C 
BRANCH   6   7
HETATM    7  C           1     -21.111  -5.515  -5.636  0.00  0.00     0.028 A 
HETATM    8  C           1     -22.154  -5.175  -6.463  0.00  0.00     0.114 A 
HETATM    9  N           1     -21.610  -4.335  -7.394  0.00  0.00    -0.360 N 
HETATM   10  C           1     -20.283  -4.201  -7.099  0.00  0.00     0.180 A 
HETATM   11  H           1     -22.118  -3.877  -8.190  0.00  0.00     0.166 HD
HETATM   12  N           1     -19.952  -4.903  -6.041  0.00  0.00    -0.355 N 
ATOM     13  HN          1     -19.030  -4.978  -5.612  1.00  0.00     0.166 HD
ENDBRANCH   6   7
ENDBRANCH   5   6
BRANCH   5  14
HETATM   14  N           1     -21.143  -8.558  -5.694  0.00  0.00    -0.066 N 
HETATM   15  H           1     -21.989  -8.970  -5.239  0.00  0.00     0.275 HD
HETATM   16  H           1     -21.436  -7.982  -6.514  0.00  0.00     0.275 HD
HETATM   17  H           1     -20.511  -9.327  -6.014  0.00  0.00     0.275 HD
ENDBRANCH   5  14
ENDBRANCH   3   5
BRANCH   2  18
HETATM   18  C           1     -21.118  -9.322  -1.313  0.00  0.00     0.194 C 
BRANCH  18  19
HETATM   19  C           1     -21.221  -8.354  -0.143  0.00  0.00     0.138 C 
BRANCH  19  20
HETATM   20  C           1     -22.529  -7.605  -0.222  0.00  0.00     0.217 C 
HETATM   21  N           1     -23.571  -7.962   0.591  0.00  0.00    -0.370 N 
HETATM   22  H           1     -23.464  -8.729   1.243  0.00  0.00     0.159 HD
HETATM   23  H           1     -24.449  -7.461   0.539  0.00  0.00     0.159 HD
HETATM   24  O           1     -22.657  -6.691  -1.000  0.00  0.00    -0.274 OA
ENDBRANCH  19  20
ENDBRANCH  18  19
BRANCH  18  25
HETATM   25  C           1     -22.194 -10.374  -1.190  0.00  0.00     0.197 C 
HETATM   26  O           1     -22.851 -10.716  -2.198  0.00  0.00    -0.646 OA
HETATM   27  O           1     -22.428 -10.904  -0.083  0.00  0.00    -0.646 OA
ENDBRANCH  18  25
ENDBRANCH   2  18
TORSDOF 8
ENDMDL
MODEL 9
REMARK VINA RESULT:      -5.7      2.600      4.862
REMARK  8 active torsions:
REMARK  status: ('A' for Active; 'I' for Inactive)
REMARK       I    between atoms: N_2  and  C_5 
REMARK    1  A    between atoms: C_5  and  C_12 
REMARK    2  A    between atoms: C_9  and  C_12 
REMARK    3  A    between atoms: C_9  and  C_10 
REMARK    4  A    between atoms: C_9  and  N_13 
REMARK       I    between atoms: N_13  and  C_14 
REMARK    5  A    between atoms: C_14  and  C_15 
REMARK    6  A    between atoms: C_15  and  C_16 
REMARK    7  A    between atoms: C_15  and  N_19 
REMARK    8  A    between atoms: C_16  and  C_17 
ROOT
HETATM    1  H           1     -20.641  -4.451  -4.631  0.00  0.00     0.163 HD
HETATM    2  N           1     -21.008  -5.285  -5.072  0.00  0.00    -0.344 N 
HETATM    3  C           1     -21.394  -6.351  -4.305  0.00  0.00     0.249 C 
HETATM    4  O           1     -21.832  -7.346  -4.830  0.00  0.00    -0.271 OA
ENDROOT
BRANCH   3   5
HETATM    5  C           1     -21.274  -6.282  -2.802  0.00  0.00     0.280 C 
BRANCH   5   6
HETATM    6  C           1     -20.775  -7.619  -2.270  0.00  0.00     0.101 C 
BRANCH   6   7
HETATM    7  C           1     -21.704  -8.109  -1.203  0.00  0.00     0.028 A 
HETATM    8  C           1     -22.380  -9.305  -1.245  0.00  0.00     0.114 A 
HETATM    9  N           1     -23.101  -9.346  -0.083  0.00  0.00    -0.360 N 
HETATM   10  C           1     -22.838  -8.194   0.603  0.00  0.00     0.180 A 
HETATM   11  H           1     -23.740 -10.120   0.224  0.00  0.00     0.166 HD
HETATM   12  N           1     -21.997  -7.427  -0.050  0.00  0.00    -0.355 N 
ATOM     13  HN          1     -21.637  -6.518   0.240  1.00  0.00     0.166 HD
ENDBRANCH   6   7
ENDBRANCH   5   6
BRANCH   5  14
HETATM   14  N           1     -22.617  -5.977  -2.207  0.00  0.00    -0.066 N 
HETATM   15  H           1     -23.053  -6.861  -1.859  0.00  0.00     0.275 HD
HETATM   16  H           1     -22.501  -5.311  -1.410  0.00  0.00     0.275 HD
HETATM   17  H           1     -23.231  -5.548  -2.935  0.00  0.00     0.275 HD
ENDBRANCH   5  14
ENDBRANCH   3   5
BRANCH   2  18
HETATM   18  C           1     -21.124  -5.351  -6.516  0.00  0.00     0.194 C 
BRANCH  18  19
HETATM   19  C           1     -21.632  -4.018  -7.047  0.00  0.00     0.138 C 
BRANCH  19  20
HETATM   20  C           1     -22.585  -4.262  -8.192  0.00  0.00     0.217 C 
HETATM   21  N           1     -23.925  -4.036  -8.026  0.00  0.00    -0.370 N 
HETATM   22  H           1     -24.276  -3.707  -7.136  0.00  0.00     0.159 HD
HETATM   23  H           1     -24.564  -4.199  -8.794  0.00  0.00     0.159 HD
HETATM   24  O           1     -22.166  -4.656  -9.254  0.00  0.00    -0.274 OA
ENDBRANCH  19  20
ENDBRANCH  18  19
BRANCH  18  25
HETATM   25  C           1     -19.770  -5.648  -7.115  0.00  0.00     0.197 C 
HETATM   26  O           1     -19.350  -6.824  -7.154  0.00  0.00    -0.646 OA
HETATM   27  O           1     -19.071  -4.718  -7.571  0.00  0.00    -0.646 OA
ENDBRANCH  18  25
ENDBRANCH   2  18
TORSDOF 8
ENDMDL
