MODEL 1
REMARK VINA RESULT:      -6.7      0.000      0.000
REMARK  9 active torsions:
REMARK  status: ('A' for Active; 'I' for Inactive)
REMARK    1  A    between atoms: C_1  and  C_6 
REMARK    2  A    between atoms: C_1  and  C_12 
REMARK    3  A    between atoms: C_2  and  C_24 
REMARK    4  A    between atoms: C_2  and  C_14 
REMARK    5  A    between atoms: C_6  and  C_16 
REMARK    6  A    between atoms: N_8  and  C_16 
REMARK       I    between atoms: N_11  and  C_12 
REMARK    7  A    between atoms: N_15  and  C_24 
REMARK       I    between atoms: N_15  and  C_17 
REMARK    8  A    between atoms: C_16  and  C_17 
REMARK    9  A    between atoms: C_22  and  C_24 
ROOT
HETATM    1  H           1     -23.572  -4.667  -7.435  0.00  0.00     0.163 HD
HETATM    2  O           1     -21.327  -3.094  -6.734  0.00  0.00    -0.271 OA
HETATM    3  N           1     -22.852  -4.180  -7.952  0.00  0.00    -0.344 N 
HETATM    4  C           1     -21.596  -4.051  -7.420  0.00  0.00     0.249 C 
ENDROOT
BRANCH   3   5
HETATM    5  C           1     -23.150  -3.618  -9.255  0.00  0.00     0.191 C 
BRANCH   5   6
HETATM    6  C           1     -22.386  -4.388 -10.324  0.00  0.00     0.094 C 
BRANCH   6   7
HETATM    7  C           1     -22.777  -3.885 -11.679  0.00  0.00     0.028 A 
HETATM    8  C           1     -22.363  -2.690 -12.219  0.00  0.00     0.114 A 
HETATM    9  N           1     -22.951  -2.636 -13.452  0.00  0.00    -0.360 N 
HETATM   10  C           1     -23.684  -3.778 -13.607  0.00  0.00     0.180 A 
HETATM   11  H           1     -22.857  -1.858 -14.151  0.00  0.00     0.166 HD
HETATM   12  N           1     -23.597  -4.553 -12.551  0.00  0.00    -0.354 N 
ATOM     13  HN          1     -24.044  -5.459 -12.409  1.00  0.00     0.166 HD
ENDBRANCH   6   7
ENDBRANCH   5   6
BRANCH   5  14
HETATM   14  C           1     -24.631  -3.722  -9.520  0.00  0.00     0.197 C 
HETATM   15  O           1     -25.151  -4.839  -9.730  0.00  0.00    -0.646 OA
HETATM   16  O           1     -25.339  -2.692  -9.529  0.00  0.00    -0.646 OA
ENDBRANCH   5  14
ENDBRANCH   3   5
BRANCH   4  17
HETATM   17  C           1     -20.550  -5.102  -7.693  0.00  0.00     0.275 C 
BRANCH  17  18
HETATM   18  C           1     -20.164  -5.787  -6.389  0.00  0.00     0.052 C 
BRANCH  18  19
HETATM   19  C           1     -21.219  -6.826  -6.030  0.00  0.00     0.105 C 
BRANCH  19  20
HETATM   20  C           1     -22.066  -6.311  -4.892  0.00  0.00     0.215 C 
HETATM   21  O           1     -23.255  -6.162  -5.045  0.00  0.00    -0.274 OA
HETATM   22  N           1     -21.488  -6.015  -3.687  0.00  0.00    -0.370 N 
HETATM   23  H           1     -22.056  -5.669  -2.924  0.00  0.00     0.159 HD
HETATM   24  H           1     -20.492  -6.140  -3.559  0.00  0.00     0.159 HD
ENDBRANCH  19  20
ENDBRANCH  18  19
ENDBRANCH  17  18
BRANCH  17  25
HETATM   25  N           1     -19.337  -4.456  -8.295  0.00  0.00    -0.066 N 
HETATM   26  H           1     -19.259  -3.472  -7.950  0.00  0.00     0.275 HD
HETATM   27  H           1     -18.484  -4.991  -8.019  0.00  0.00     0.275 HD
HETATM   28  H           1     -19.426  -4.454  -9.337  0.00  0.00     0.275 HD
ENDBRANCH  17  25
ENDBRANCH   4  17
TORSDOF 9
ENDMDL
MODEL 2
REMARK VINA RESULT:      -6.6      1.785      6.786
REMARK  9 active torsions:
REMARK  status: ('A' for Active; 'I' for Inactive)
REMARK    1  A    between atoms: C_1  and  C_6 
REMARK    2  A    between atoms: C_1  and  C_12 
REMARK    3  A    between atoms: C_2  and  C_24 
REMARK    4  A    between atoms: C_2  and  C_14 
REMARK    5  A    between atoms: C_6  and  C_16 
REMARK    6  A    between atoms: N_8  and  C_16 
REMARK       I    between atoms: N_11  and  C_12 
REMARK    7  A    between atoms: N_15  and  C_24 
REMARK       I    between atoms: N_15  and  C_17 
REMARK    8  A    between atoms: C_16  and  C_17 
REMARK    9  A    between atoms: C_22  and  C_24 
ROOT
HETATM    1  H           1     -21.627  -2.669  -7.409  0.00  0.00     0.163 HD
HETATM    2  O           1     -23.844  -4.367  -6.952  0.00  0.00    -0.271 OA
HETATM    3  N           1     -21.774  -3.670  -7.416  0.00  0.00    -0.344 N 
HETATM    4  C           1     -22.990  -4.181  -7.785  0.00  0.00     0.249 C 
ENDROOT
BRANCH   3   5
HETATM    5  C           1     -20.696  -4.563  -7.037  0.00  0.00     0.191 C 
BRANCH   5   6
HETATM    6  C           1     -21.205  -5.999  -7.040  0.00  0.00     0.094 C 
BRANCH   6   7
HETATM    7  C           1     -21.261  -6.513  -5.635  0.00  0.00     0.028 A 
HETATM    8  C           1     -20.483  -7.535  -5.145  0.00  0.00     0.114 A 
HETATM    9  N           1     -20.859  -7.671  -3.837  0.00  0.00    -0.360 N 
HETATM   10  C           1     -21.830  -6.742  -3.591  0.00  0.00     0.180 A 
HETATM   11  H           1     -20.471  -8.362  -3.149  0.00  0.00     0.166 HD
HETATM   12  N           1     -22.093  -6.027  -4.660  0.00  0.00    -0.354 N 
ATOM     13  HN          1     -22.772  -5.271  -4.747  1.00  0.00     0.166 HD
ENDBRANCH   6   7
ENDBRANCH   5   6
BRANCH   5  14
HETATM   14  C           1     -19.563  -4.429  -8.022  0.00  0.00     0.197 C 
HETATM   15  O           1     -19.748  -4.695  -9.229  0.00  0.00    -0.646 OA
HETATM   16  O           1     -18.437  -4.050  -7.633  0.00  0.00    -0.646 OA
ENDBRANCH   5  14
ENDBRANCH   3   5
BRANCH   4  17
HETATM   17  C           1     -23.262  -4.511  -9.232  0.00  0.00     0.275 C 
BRANCH  17  18
HETATM   18  C           1     -22.586  -3.481 -10.126  0.00  0.00     0.052 C 
BRANCH  18  19
HETATM   19  C           1     -22.282  -4.105 -11.481  0.00  0.00     0.105 C 
BRANCH  19  20
HETATM   20  C           1     -23.054  -3.378 -12.555  0.00  0.00     0.215 C 
HETATM   21  O           1     -24.176  -2.989 -12.334  0.00  0.00    -0.274 OA
HETATM   22  N           1     -22.483  -3.160 -13.780  0.00  0.00    -0.370 N 
HETATM   23  H           1     -23.001  -2.673 -14.501  0.00  0.00     0.159 HD
HETATM   24  H           1     -21.544  -3.487 -13.966  0.00  0.00     0.159 HD
ENDBRANCH  19  20
ENDBRANCH  18  19
ENDBRANCH  17  18
BRANCH  17  25
HETATM   25  N           1     -24.742  -4.492  -9.478  0.00  0.00    -0.066 N 
HETATM   26  H           1     -25.158  -3.640  -9.040  0.00  0.00     0.275 HD
HETATM   27  H           1     -24.924  -4.478 -10.507  0.00  0.00     0.275 HD
HETATM   28  H           1     -25.175  -5.347  -9.059  0.00  0.00     0.275 HD
ENDBRANCH  17  25
ENDBRANCH   4  17
TORSDOF 9
ENDMDL
MODEL 3
REMARK VINA RESULT:      -6.4      2.153      2.685
REMARK  9 active torsions:
REMARK  status: ('A' for Active; 'I' for Inactive)
REMARK    1  A    between atoms: C_1  and  C_6 
REMARK    2  A    between atoms: C_1  and  C_12 
REMARK    3  A    between atoms: C_2  and  C_24 
REMARK    4  A    between atoms: C_2  and  C_14 
REMARK    5  A    between atoms: C_6  and  C_16 
REMARK    6  A    between atoms: N_8  and  C_16 
REMARK       I    between atoms: N_11  and  C_12 
REMARK    7  A    between atoms: N_15  and  C_24 
REMARK       I    between atoms: N_15  and  C_17 
REMARK    8  A    between atoms: C_16  and  C_17 
REMARK    9  A    between atoms: C_22  and  C_24 
ROOT
HETATM    1  H           1     -22.014  -3.460  -7.475  0.00  0.00     0.163 HD
HETATM    2  O           1     -19.468  -4.692  -7.440  0.00  0.00    -0.271 OA
HETATM    3  N           1     -21.563  -4.183  -8.020  0.00  0.00    -0.344 N 
HETATM    4  C           1     -20.635  -5.003  -7.435  0.00  0.00     0.249 C 
ENDROOT
BRANCH   3   5
HETATM    5  C           1     -21.899  -4.351  -9.420  0.00  0.00     0.191 C 
BRANCH   5   6
HETATM    6  C           1     -23.063  -3.434  -9.775  0.00  0.00     0.094 C 
BRANCH   6   7
HETATM    7  C           1     -23.347  -3.531 -11.242  0.00  0.00     0.028 A 
HETATM    8  C           1     -23.709  -4.686 -11.893  0.00  0.00     0.114 A 
HETATM    9  N           1     -23.867  -4.321 -13.201  0.00  0.00    -0.360 N 
HETATM   10  C           1     -23.599  -2.984 -13.289  0.00  0.00     0.180 A 
HETATM   11  H           1     -24.143  -4.953 -13.993  0.00  0.00     0.166 HD
HETATM   12  N           1     -23.283  -2.480 -12.119  0.00  0.00    -0.354 N 
ATOM     13  HN          1     -23.041  -1.511 -11.907  1.00  0.00     0.166 HD
ENDBRANCH   6   7
ENDBRANCH   5   6
BRANCH   5  14
HETATM   14  C           1     -20.703  -3.999 -10.269  0.00  0.00     0.197 C 
HETATM   15  O           1     -20.433  -2.802 -10.504  0.00  0.00    -0.646 OA
HETATM   16  O           1     -19.981  -4.905 -10.739  0.00  0.00    -0.646 OA
ENDBRANCH   5  14
ENDBRANCH   3   5
BRANCH   4  17
HETATM   17  C           1     -21.070  -6.293  -6.785  0.00  0.00     0.275 C 
BRANCH  17  18
HETATM   18  C           1     -21.948  -5.985  -5.580  0.00  0.00     0.052 C 
BRANCH  18  19
HETATM   19  C           1     -21.071  -5.781  -4.351  0.00  0.00     0.105 C 
BRANCH  19  20
HETATM   20  C           1     -21.647  -6.550  -3.188  0.00  0.00     0.215 C 
HETATM   21  O           1     -21.476  -7.743  -3.109  0.00  0.00    -0.274 OA
HETATM   22  N           1     -22.363  -5.896  -2.221  0.00  0.00    -0.370 N 
HETATM   23  H           1     -22.750  -6.412  -1.441  0.00  0.00     0.159 HD
HETATM   24  H           1     -22.507  -4.897  -2.287  0.00  0.00     0.159 HD
ENDBRANCH  19  20
ENDBRANCH  18  19
ENDBRANCH  17  18
BRANCH  17  25
HETATM   25  N           1     -19.861  -7.060  -6.339  0.00  0.00    -0.066 N 
HETATM   26  H           1     -19.332  -6.498  -5.634  0.00  0.00     0.275 HD
HETATM   27  H           1     -20.161  -7.964  -5.910  0.00  0.00     0.275 HD
HETATM   28  H           1     -19.247  -7.251  -7.164  0.00  0.00     0.275 HD
ENDBRANCH  17  25
ENDBRANCH   4  17
TORSDOF 9
ENDMDL
MODEL 4
REMARK VINA RESULT:      -6.3      2.624      7.558
REMARK  9 active torsions:
REMARK  status: ('A' for Active; 'I' for Inactive)
REMARK    1  A    between atoms: C_1  and  C_6 
REMARK    2  A    between atoms: C_1  and  C_12 
REMARK    3  A    between atoms: C_2  and  C_24 
REMARK    4  A    between atoms: C_2  and  C_14 
REMARK    5  A    between atoms: C_6  and  C_16 
REMARK    6  A    between atoms: N_8  and  C_16 
REMARK       I    between atoms: N_11  and  C_12 
REMARK    7  A    between atoms: N_15  and  C_24 
REMARK       I    between atoms: N_15  and  C_17 
REMARK    8  A    between atoms: C_16  and  C_17 
REMARK    9  A    between atoms: C_22  and  C_24 
ROOT
HETATM    1  H           1     -20.179  -7.569  -7.465  0.00  0.00     0.163 HD
HETATM    2  O           1     -19.211  -4.920  -7.237  0.00  0.00    -0.271 OA
HETATM    3  N           1     -20.200  -6.860  -6.743  0.00  0.00    -0.344 N 
HETATM    4  C           1     -20.240  -5.535  -7.086  0.00  0.00     0.249 C 
ENDROOT
BRANCH   3   5
HETATM    5  C           1     -20.190  -7.248  -5.346  0.00  0.00     0.191 C 
BRANCH   5   6
HETATM    6  C           1     -21.602  -7.623  -4.914  0.00  0.00     0.094 C 
BRANCH   6   7
HETATM    7  C           1     -21.752  -7.398  -3.442  0.00  0.00     0.028 A 
HETATM    8  C           1     -22.064  -6.190  -2.864  0.00  0.00     0.114 A 
HETATM    9  N           1     -22.097  -6.439  -1.520  0.00  0.00    -0.360 N 
HETATM   10  C           1     -21.811  -7.762  -1.340  0.00  0.00     0.180 A 
HETATM   11  H           1     -22.306  -5.740  -0.764  0.00  0.00     0.166 HD
HETATM   12  N           1     -21.598  -8.367  -2.486  0.00  0.00    -0.354 N 
ATOM     13  HN          1     -21.367  -9.350  -2.633  1.00  0.00     0.166 HD
ENDBRANCH   6   7
ENDBRANCH   5   6
BRANCH   5  14
HETATM   14  C           1     -19.275  -8.432  -5.160  0.00  0.00     0.197 C 
HETATM   15  O           1     -18.814  -9.028  -6.157  0.00  0.00    -0.646 OA
HETATM   16  O           1     -18.977  -8.818  -4.009  0.00  0.00    -0.646 OA
ENDBRANCH   5  14
ENDBRANCH   3   5
BRANCH   4  17
HETATM   17  C           1     -21.567  -4.843  -7.276  0.00  0.00     0.275 C 
BRANCH  17  18
HETATM   18  C           1     -21.962  -4.895  -8.745  0.00  0.00     0.052 C 
BRANCH  18  19
HETATM   19  C           1     -22.917  -3.749  -9.056  0.00  0.00     0.105 C 
BRANCH  19  20
HETATM   20  C           1     -24.114  -4.279  -9.805  0.00  0.00     0.215 C 
HETATM   21  O           1     -23.997  -5.238 -10.530  0.00  0.00    -0.274 OA
HETATM   22  N           1     -25.334  -3.673  -9.663  0.00  0.00    -0.370 N 
HETATM   23  H           1     -26.137  -4.028 -10.167  0.00  0.00     0.159 HD
HETATM   24  H           1     -25.432  -2.869  -9.057  0.00  0.00     0.159 HD
ENDBRANCH  19  20
ENDBRANCH  18  19
ENDBRANCH  17  18
BRANCH  17  25
HETATM   25  N           1     -21.452  -3.413  -6.840  0.00  0.00    -0.066 N 
HETATM   26  H           1     -22.037  -3.260  -5.987  0.00  0.00     0.275 HD
HETATM   27  H           1     -20.454  -3.195  -6.620  0.00  0.00     0.275 HD
HETATM   28  H           1     -21.785  -2.787  -7.608  0.00  0.00     0.275 HD
ENDBRANCH  17  25
ENDBRANCH   4  17
TORSDOF 9
ENDMDL
MODEL 5
REMARK VINA RESULT:      -6.1      2.614      3.502
REMARK  9 active torsions:
REMARK  status: ('A' for Active; 'I' for Inactive)
REMARK    1  A    between atoms: C_1  and  C_6 
REMARK    2  A    between atoms: C_1  and  C_12 
REMARK    3  A    between atoms: C_2  and  C_24 
REMARK    4  A    between atoms: C_2  and  C_14 
REMARK    5  A    between atoms: C_6  and  C_16 
REMARK    6  A    between atoms: N_8  and  C_16 
REMARK       I    between atoms: N_11  and  C_12 
REMARK    7  A    between atoms: N_15  and  C_24 
REMARK       I    between atoms: N_15  and  C_17 
REMARK    8  A    between atoms: C_16  and  C_17 
REMARK    9  A    between atoms: C_22  and  C_24 
ROOT
HETATM    1  H           1     -22.911  -4.433  -6.008  0.00  0.00     0.163 HD
HETATM    2  O           1     -20.391  -5.000  -4.851  0.00  0.00    -0.271 OA
HETATM    3  N           1     -22.095  -4.959  -6.294  0.00  0.00    -0.344 N 
HETATM    4  C           1     -21.320  -5.586  -5.354  0.00  0.00     0.249 C 
ENDROOT
BRANCH   3   5
HETATM    5  C           1     -21.748  -5.050  -7.699  0.00  0.00     0.191 C 
BRANCH   5   6
HETATM    6  C           1     -22.316  -3.847  -8.440  0.00  0.00     0.094 C 
BRANCH   6   7
HETATM    7  C           1     -22.584  -4.217  -9.865  0.00  0.00     0.028 A 
HETATM    8  C           1     -21.713  -3.998 -10.906  0.00  0.00     0.114 A 
HETATM    9  N           1     -22.353  -4.484 -12.012  0.00  0.00    -0.360 N 
HETATM   10  C           1     -23.563  -4.970 -11.605  0.00  0.00     0.180 A 
HETATM   11  H           1     -21.982  -4.484 -12.994  0.00  0.00     0.166 HD
HETATM   12  N           1     -23.729  -4.823 -10.311  0.00  0.00    -0.354 N 
ATOM     13  HN          1     -24.539  -5.101  -9.755  1.00  0.00     0.166 HD
ENDBRANCH   6   7
ENDBRANCH   5   6
BRANCH   5  14
HETATM   14  C           1     -20.247  -5.070  -7.845  0.00  0.00     0.197 C 
HETATM   15  O           1     -19.636  -6.159  -7.882  0.00  0.00    -0.646 OA
HETATM   16  O           1     -19.613  -3.996  -7.929  0.00  0.00    -0.646 OA
ENDBRANCH   5  14
ENDBRANCH   3   5
BRANCH   4  17
HETATM   17  C           1     -21.626  -7.006  -4.949  0.00  0.00     0.275 C 
BRANCH  17  18
HETATM   18  C           1     -20.833  -7.360  -3.697  0.00  0.00     0.052 C 
BRANCH  18  19
HETATM   19  C           1     -21.762  -7.997  -2.672  0.00  0.00     0.105 C 
BRANCH  19  20
HETATM   20  C           1     -22.039  -7.013  -1.562  0.00  0.00     0.215 C 
HETATM   21  O           1     -22.072  -7.390  -0.414  0.00  0.00    -0.274 OA
HETATM   22  N           1     -22.253  -5.693  -1.855  0.00  0.00    -0.370 N 
HETATM   23  H           1     -22.439  -5.033  -1.110  0.00  0.00     0.159 HD
HETATM   24  H           1     -22.226  -5.377  -2.815  0.00  0.00     0.159 HD
ENDBRANCH  19  20
ENDBRANCH  18  19
ENDBRANCH  17  18
BRANCH  17  25
HETATM   25  N           1     -21.243  -7.937  -6.061  0.00  0.00    -0.066 N 
HETATM   26  H           1     -20.288  -8.322  -5.881  0.00  0.00     0.275 HD
HETATM   27  H           1     -21.931  -8.721  -6.111  0.00  0.00     0.275 HD
HETATM   28  H           1     -21.244  -7.414  -6.967  0.00  0.00     0.275 HD
ENDBRANCH  17  25
ENDBRANCH   4  17
TORSDOF 9
ENDMDL
MODEL 6
REMARK VINA RESULT:      -6.1      2.505      7.153
REMARK  9 active torsions:
REMARK  status: ('A' for Active; 'I' for Inactive)
REMARK    1  A    between atoms: C_1  and  C_6 
REMARK    2  A    between atoms: C_1  and  C_12 
REMARK    3  A    between atoms: C_2  and  C_24 
REMARK    4  A    between atoms: C_2  and  C_14 
REMARK    5  A    between atoms: C_6  and  C_16 
REMARK    6  A    between atoms: N_8  and  C_16 
REMARK       I    between atoms: N_11  and  C_12 
REMARK    7  A    between atoms: N_15  and  C_24 
REMARK       I    between atoms: N_15  and  C_17 
REMARK    8  A    between atoms: C_16  and  C_17 
REMARK    9  A    between atoms: C_22  and  C_24 
ROOT
HETATM    1  H           1     -19.734  -6.673  -7.263  0.00  0.00     0.163 HD
HETATM    2  O           1     -20.730  -4.124  -6.546  0.00  0.00    -0.271 OA
HETATM    3  N           1     -20.594  -6.332  -6.855  0.00  0.00    -0.344 N 
HETATM    4  C           1     -21.065  -5.090  -7.190  0.00  0.00     0.249 C 
ENDROOT
BRANCH   3   5
HETATM    5  C           1     -21.329  -7.157  -5.915  0.00  0.00     0.191 C 
BRANCH   5   6
HETATM    6  C           1     -20.351  -8.020  -5.128  0.00  0.00     0.094 C 
BRANCH   6   7
HETATM    7  C           1     -20.920  -9.394  -4.961  0.00  0.00     0.028 A 
HETATM    8  C           1     -21.592  -9.831  -3.844  0.00  0.00     0.114 A 
HETATM    9  N           1     -21.929 -11.128  -4.118  0.00  0.00    -0.360 N 
HETATM   10  C           1     -21.457 -11.419  -5.366  0.00  0.00     0.180 A 
HETATM   11  H           1     -22.455 -11.780  -3.484  0.00  0.00     0.166 HD
HETATM   12  N           1     -20.842 -10.389  -5.900  0.00  0.00    -0.354 N 
ATOM     13  HN          1     -20.401 -10.340  -6.819  1.00  0.00     0.166 HD
ENDBRANCH   6   7
ENDBRANCH   5   6
BRANCH   5  14
HETATM   14  C           1     -22.099  -6.273  -4.966  0.00  0.00     0.197 C 
HETATM   15  O           1     -23.284  -5.966  -5.220  0.00  0.00    -0.646 OA
HETATM   16  O           1     -21.553  -5.848  -3.925  0.00  0.00    -0.646 OA
ENDBRANCH   5  14
ENDBRANCH   3   5
BRANCH   4  17
HETATM   17  C           1     -22.001  -4.928  -8.362  0.00  0.00     0.275 C 
BRANCH  17  18
HETATM   18  C           1     -21.257  -4.283  -9.522  0.00  0.00     0.052 C 
BRANCH  18  19
HETATM   19  C           1     -22.221  -3.423 -10.329  0.00  0.00     0.105 C 
BRANCH  19  20
HETATM   20  C           1     -22.536  -4.109 -11.635  0.00  0.00     0.215 C 
HETATM   21  O           1     -23.388  -4.965 -11.678  0.00  0.00    -0.274 OA
HETATM   22  N           1     -21.858  -3.762 -12.773  0.00  0.00    -0.370 N 
HETATM   23  H           1     -22.069  -4.223 -13.649  0.00  0.00     0.159 HD
HETATM   24  H           1     -21.144  -3.046 -12.738  0.00  0.00     0.159 HD
ENDBRANCH  19  20
ENDBRANCH  18  19
ENDBRANCH  17  18
BRANCH  17  25
HETATM   25  N           1     -23.155  -4.057  -7.962  0.00  0.00    -0.066 N 
HETATM   26  H           1     -23.791  -4.590  -7.327  0.00  0.00     0.275 HD
HETATM   27  H           1     -22.797  -3.210  -7.466  0.00  0.00     0.275 HD
HETATM   28  H           1     -23.682  -3.764  -8.817  0.00  0.00     0.275 HD
ENDBRANCH  17  25
ENDBRANCH   4  17
TORSDOF 9
ENDMDL
MODEL 7
REMARK VINA RESULT:      -6.1      3.272      7.947
REMARK  9 active torsions:
REMARK  status: ('A' for Active; 'I' for Inactive)
REMARK    1  A    between atoms: C_1  and  C_6 
REMARK    2  A    between atoms: C_1  and  C_12 
REMARK    3  A    between atoms: C_2  and  C_24 
REMARK    4  A    between atoms: C_2  and  C_14 
REMARK    5  A    between atoms: C_6  and  C_16 
REMARK    6  A    between atoms: N_8  and  C_16 
REMARK       I    between atoms: N_11  and  C_12 
REMARK    7  A    between atoms: N_15  and  C_24 
REMARK       I    between atoms: N_15  and  C_17 
REMARK    8  A    between atoms: C_16  and  C_17 
REMARK    9  A    between atoms: C_22  and  C_24 
ROOT
HETATM    1  H           1     -21.163  -5.599  -2.457  0.00  0.00     0.163 HD
HETATM    2  O           1     -22.787  -6.120  -4.714  0.00  0.00    -0.271 OA
HETATM    3  N           1     -21.366  -6.416  -3.017  0.00  0.00    -0.344 N 
HETATM    4  C           1     -21.646  -6.279  -4.351  0.00  0.00     0.249 C 
ENDROOT
BRANCH   3   5
HETATM    5  C           1     -21.360  -7.732  -2.408  0.00  0.00     0.191 C 
BRANCH   5   6
HETATM    6  C           1     -19.922  -8.207  -2.244  0.00  0.00     0.094 C 
BRANCH   6   7
HETATM    7  C           1     -19.593  -9.189  -3.325  0.00  0.00     0.028 A 
HETATM    8  C           1     -20.468 -10.122  -3.826  0.00  0.00     0.114 A 
HETATM    9  N           1     -19.759 -10.796  -4.782  0.00  0.00    -0.360 N 
HETATM   10  C           1     -18.507 -10.253  -4.822  0.00  0.00     0.180 A 
HETATM   11  H           1     -20.114 -11.586  -5.376  0.00  0.00     0.166 HD
HETATM   12  N           1     -18.377  -9.278  -3.952  0.00  0.00    -0.354 N 
ATOM     13  HN          1     -17.548  -8.709  -3.779  1.00  0.00     0.166 HD
ENDBRANCH   6   7
ENDBRANCH   5   6
BRANCH   5  14
HETATM   14  C           1     -22.026  -7.663  -1.057  0.00  0.00     0.197 C 
HETATM   15  O           1     -21.802  -8.548  -0.204  0.00  0.00    -0.646 OA
HETATM   16  O           1     -22.802  -6.721  -0.789  0.00  0.00    -0.646 OA
ENDBRANCH   5  14
ENDBRANCH   3   5
BRANCH   4  17
HETATM   17  C           1     -20.531  -6.328  -5.365  0.00  0.00     0.275 C 
BRANCH  17  18
HETATM   18  C           1     -20.503  -5.026  -6.154  0.00  0.00     0.052 C 
BRANCH  18  19
HETATM   19  C           1     -20.649  -5.329  -7.640  0.00  0.00     0.105 C 
BRANCH  19  20
HETATM   20  C           1     -21.923  -4.707  -8.158  0.00  0.00     0.215 C 
HETATM   21  O           1     -22.096  -4.587  -9.348  0.00  0.00    -0.274 OA
HETATM   22  N           1     -22.883  -4.280  -7.281  0.00  0.00    -0.370 N 
HETATM   23  H           1     -23.737  -3.863  -7.629  0.00  0.00     0.159 HD
HETATM   24  H           1     -22.739  -4.380  -6.285  0.00  0.00     0.159 HD
ENDBRANCH  19  20
ENDBRANCH  18  19
ENDBRANCH  17  18
BRANCH  17  25
HETATM   25  N           1     -20.759  -7.476  -6.304  0.00  0.00    -0.066 N 
HETATM   26  H           1     -20.654  -8.377  -5.784  0.00  0.00     0.275 HD
HETATM   27  H           1     -21.723  -7.414  -6.701  0.00  0.00     0.275 HD
HETATM   28  H           1     -20.058  -7.436  -7.078  0.00  0.00     0.275 HD
ENDBRANCH  17  25
ENDBRANCH   4  17
TORSDOF 9
ENDMDL
MODEL 8
REMARK VINA RESULT:      -6.1      3.074      7.922
REMARK  9 active torsions:
REMARK  status: ('A' for Active; 'I' for Inactive)
REMARK    1  A    between atoms: C_1  and  C_6 
REMARK    2  A    between atoms: C_1  and  C_12 
REMARK    3  A    between atoms: C_2  and  C_24 
REMARK    4  A    between atoms: C_2  and  C_14 
REMARK    5  A    between atoms: C_6  and  C_16 
REMARK    6  A    between atoms: N_8  and  C_16 
REMARK       I    between atoms: N_11  and  C_12 
REMARK    7  A    between atoms: N_15  and  C_24 
REMARK       I    between atoms: N_15  and  C_17 
REMARK    8  A    between atoms: C_16  and  C_17 
REMARK    9  A    between atoms: C_22  and  C_24 
ROOT
HETATM    1  H           1     -21.514  -8.344  -6.287  0.00  0.00     0.163 HD
HETATM    2  O           1     -19.521  -6.589  -7.265  0.00  0.00    -0.271 OA
HETATM    3  N           1     -20.790  -7.778  -5.864  0.00  0.00    -0.344 N 
HETATM    4  C           1     -20.412  -6.599  -6.449  0.00  0.00     0.249 C 
ENDROOT
BRANCH   3   5
HETATM    5  C           1     -20.153  -8.216  -4.637  0.00  0.00     0.191 C 
BRANCH   5   6
HETATM    6  C           1     -21.183  -8.902  -3.748  0.00  0.00     0.094 C 
BRANCH   6   7
HETATM    7  C           1     -21.605  -7.966  -2.659  0.00  0.00     0.028 A 
HETATM    8  C           1     -21.798  -8.331  -1.347  0.00  0.00     0.114 A 
HETATM    9  N           1     -22.173  -7.180  -0.711  0.00  0.00    -0.360 N 
HETATM   10  C           1     -22.192  -6.183  -1.644  0.00  0.00     0.180 A 
HETATM   11  H           1     -22.404  -7.082   0.308  0.00  0.00     0.166 HD
HETATM   12  N           1     -21.852  -6.630  -2.832  0.00  0.00    -0.354 N 
ATOM     13  HN          1     -21.786  -6.095  -3.698  1.00  0.00     0.166 HD
ENDBRANCH   6   7
ENDBRANCH   5   6
BRANCH   5  14
HETATM   14  C           1     -19.045  -9.185  -4.965  0.00  0.00     0.197 C 
HETATM   15  O           1     -19.084  -9.844  -6.026  0.00  0.00    -0.646 OA
HETATM   16  O           1     -18.086  -9.329  -4.176  0.00  0.00    -0.646 OA
ENDBRANCH   5  14
ENDBRANCH   3   5
BRANCH   4  17
HETATM   17  C           1     -21.108  -5.314  -6.075  0.00  0.00     0.275 C 
BRANCH  17  18
HETATM   18  C           1     -21.455  -4.537  -7.337  0.00  0.00     0.052 C 
BRANCH  18  19
HETATM   19  C           1     -22.968  -4.398  -7.448  0.00  0.00     0.105 C 
BRANCH  19  20
HETATM   20  C           1     -23.331  -3.928  -8.836  0.00  0.00     0.215 C 
HETATM   21  O           1     -22.546  -4.065  -9.744  0.00  0.00    -0.274 OA
HETATM   22  N           1     -24.549  -3.348  -9.066  0.00  0.00    -0.370 N 
HETATM   23  H           1     -24.792  -3.033  -9.996  0.00  0.00     0.159 HD
HETATM   24  H           1     -25.206  -3.233  -8.305  0.00  0.00     0.159 HD
ENDBRANCH  19  20
ENDBRANCH  18  19
ENDBRANCH  17  18
BRANCH  17  25
HETATM   25  N           1     -20.200  -4.487  -5.213  0.00  0.00    -0.066 N 
HETATM   26  H           1     -20.355  -3.473  -5.416  0.00  0.00     0.275 HD
HETATM   27  H           1     -20.406  -4.676  -4.207  0.00  0.00     0.275 HD
HETATM   28  H           1     -19.205  -4.735  -5.418  0.00  0.00     0.275 HD
ENDBRANCH  17  25
ENDBRANCH   4  17
TORSDOF 9
ENDMDL
MODEL 9
REMARK VINA RESULT:      -5.7      3.457      5.549
REMARK  9 active torsions:
REMARK  status: ('A' for Active; 'I' for Inactive)
REMARK    1  A    between atoms: C_1  and  C_6 
REMARK    2  A    between atoms: C_1  and  C_12 
REMARK    3  A    between atoms: C_2  and  C_24 
REMARK    4  A    between atoms: C_2  and  C_14 
REMARK    5  A    between atoms: C_6  and  C_16 
REMARK    6  A    between atoms: N_8  and  C_16 
REMARK       I    between atoms: N_11  and  C_12 
REMARK    7  A    between atoms: N_15  and  C_24 
REMARK       I    between atoms: N_15  and  C_17 
REMARK    8  A    between atoms: C_16  and  C_17 
REMARK    9  A    between atoms: C_22  and  C_24 
ROOT
HETATM    1  H           1     -23.390  -6.131  -4.218  0.00  0.00     0.163 HD
HETATM    2  O           1     -21.023  -5.505  -2.801  0.00  0.00    -0.271 OA
HETATM    3  N           1     -22.405  -6.312  -4.358  0.00  0.00    -0.344 N 
HETATM    4  C           1     -21.577  -6.466  -3.278  0.00  0.00     0.249 C 
ENDROOT
BRANCH   3   5
HETATM    5  C           1     -21.869  -6.409  -5.702  0.00  0.00     0.191 C 
BRANCH   5   6
HETATM    6  C           1     -21.076  -5.149  -6.023  0.00  0.00     0.094 C 
BRANCH   6   7
HETATM    7  C           1     -21.505  -4.612  -7.353  0.00  0.00     0.028 A 
HETATM    8  C           1     -20.744  -4.657  -8.496  0.00  0.00     0.114 A 
HETATM    9  N           1     -21.513  -4.063  -9.458  0.00  0.00    -0.360 N 
HETATM   10  C           1     -22.688  -3.690  -8.870  0.00  0.00     0.180 A 
HETATM   11  H           1     -21.249  -3.921 -10.464  0.00  0.00     0.166 HD
HETATM   12  N           1     -22.712  -4.010  -7.597  0.00  0.00    -0.354 N 
ATOM     13  HN          1     -23.468  -3.845  -6.931  1.00  0.00     0.166 HD
ENDBRANCH   6   7
ENDBRANCH   5   6
BRANCH   5  14
HETATM   14  C           1     -20.965  -7.612  -5.797  0.00  0.00     0.197 C 
HETATM   15  O           1     -21.453  -8.762  -5.807  0.00  0.00    -0.646 OA
HETATM   16  O           1     -19.726  -7.459  -5.866  0.00  0.00    -0.646 OA
ENDBRANCH   5  14
ENDBRANCH   3   5
BRANCH   4  17
HETATM   17  C           1     -21.357  -7.836  -2.685  0.00  0.00     0.275 C 
BRANCH  17  18
HETATM   18  C           1     -21.470  -7.758  -1.168  0.00  0.00     0.052 C 
BRANCH  18  19
HETATM   19  C           1     -21.739  -9.148  -0.607  0.00  0.00     0.105 C 
BRANCH  19  20
HETATM   20  C           1     -23.119  -9.189   0.002  0.00  0.00     0.215 C 
HETATM   21  O           1     -23.791 -10.188  -0.091  0.00  0.00    -0.274 OA
HETATM   22  N           1     -23.610  -8.093   0.660  0.00  0.00    -0.370 N 
HETATM   23  H           1     -24.535  -8.120   1.067  0.00  0.00     0.159 HD
HETATM   24  H           1     -23.047  -7.256   0.737  0.00  0.00     0.159 HD
ENDBRANCH  19  20
ENDBRANCH  18  19
ENDBRANCH  17  18
BRANCH  17  25
HETATM   25  N           1     -19.990  -8.329  -3.059  0.00  0.00    -0.066 N 
HETATM   26  H           1     -20.041  -8.838  -3.970  0.00  0.00     0.275 HD
HETATM   27  H           1     -19.340  -7.516  -3.150  0.00  0.00     0.275 HD
HETATM   28  H           1     -19.639  -8.976  -2.316  0.00  0.00     0.275 HD
ENDBRANCH  17  25
ENDBRANCH   4  17
TORSDOF 9
ENDMDL
