MODEL 1
REMARK VINA RESULT:      -5.3      0.000      0.000
REMARK  7 active torsions:
REMARK  status: ('A' for Active; 'I' for Inactive)
REMARK    1  A    between atoms: N_1  and  C_8 
REMARK    2  A    between atoms: C_3  and  C_4 
REMARK    3  A    between atoms: C_4  and  C_5 
REMARK    4  A    between atoms: C_4  and  N_9 
REMARK    5  A    between atoms: C_5  and  Se_6 
REMARK       I    between atoms: C_7  and  N_9 
REMARK    6  A    between atoms: C_7  and  C_8 
REMARK    7  A    between atoms: C_8  and  C_15 
ROOT
HETATM    1  C           1     -21.524  -4.408  -8.265  0.00  0.00     0.249 C 
HETATM    2  N           1     -22.045  -4.747  -9.485  0.00  0.00    -0.345 N 
HETATM    3  H           1     -21.901  -5.678  -9.856  0.00  0.00     0.163 HD
HETATM    4  O           1     -21.696  -3.297  -7.824  0.00  0.00    -0.271 OA
ENDROOT
BRANCH   1   5
HETATM    5  C           1     -20.735  -5.422  -7.474  0.00  0.00     0.278 C 
BRANCH   5   6
HETATM    6  N           1     -19.292  -5.014  -7.438  0.00  0.00    -0.066 N 
HETATM    7  H           1     -19.122  -4.404  -6.607  0.00  0.00     0.275 HD
HETATM    8  H           1     -18.692  -5.867  -7.370  0.00  0.00     0.275 HD
HETATM    9  H           1     -19.056  -4.490  -8.311  0.00  0.00     0.275 HD
ENDBRANCH   5   6
BRANCH   5  10
HETATM   10  C           1     -21.278  -5.490  -6.053  0.00  0.00     0.017 C 
HETATM   11  C           1     -21.482  -6.945  -5.655  0.00  0.00     0.012 C 
HETATM   12  C           1     -20.285  -4.838  -5.098  0.00  0.00     0.012 C 
ENDBRANCH   5  10
ENDBRANCH   1   5
BRANCH   2  13
HETATM   13  C           1     -22.803  -3.774 -10.247  0.00  0.00     0.185 C 
BRANCH  13  14
HETATM   14  C           1     -24.264  -3.883  -9.888  0.00  0.00     0.196 C 
HETATM   15  O           1     -24.901  -2.865  -9.541  0.00  0.00    -0.646 OA
HETATM   16  O           1     -24.839  -4.992  -9.937  0.00  0.00    -0.646 OA
ENDBRANCH  13  14
BRANCH  13  17
HETATM   17  C           1     -22.623  -4.042 -11.734  0.00  0.00     0.039 C 
BRANCH  17  18
HETATM   18 Se           1     -23.513  -2.643 -12.759  0.00  0.00     0.000 Se
HETATM   19  H           1     -24.868  -3.030 -12.331  0.00  0.00     0.000 HD
ENDBRANCH  17  18
ENDBRANCH  13  17
ENDBRANCH   2  13
TORSDOF 7
ENDMDL
MODEL 2
REMARK VINA RESULT:      -5.1      2.346      2.659
REMARK  7 active torsions:
REMARK  status: ('A' for Active; 'I' for Inactive)
REMARK    1  A    between atoms: N_1  and  C_8 
REMARK    2  A    between atoms: C_3  and  C_4 
REMARK    3  A    between atoms: C_4  and  C_5 
REMARK    4  A    between atoms: C_4  and  N_9 
REMARK    5  A    between atoms: C_5  and  Se_6 
REMARK       I    between atoms: C_7  and  N_9 
REMARK    6  A    between atoms: C_7  and  C_8 
REMARK    7  A    between atoms: C_8  and  C_15 
ROOT
HETATM    1  C           1     -20.719  -4.316  -9.098  0.00  0.00     0.249 C 
HETATM    2  N           1     -21.926  -3.992  -9.659  0.00  0.00    -0.345 N 
HETATM    3  H           1     -22.604  -3.461  -9.128  0.00  0.00     0.163 HD
HETATM    4  O           1     -19.911  -4.950  -9.732  0.00  0.00    -0.271 OA
ENDROOT
BRANCH   1   5
HETATM    5  C           1     -20.402  -3.884  -7.688  0.00  0.00     0.278 C 
BRANCH   5   6
HETATM    6  N           1     -21.588  -3.174  -7.104  0.00  0.00    -0.066 N 
HETATM    7  H           1     -22.455  -3.477  -7.602  0.00  0.00     0.275 HD
HETATM    8  H           1     -21.670  -3.411  -6.090  0.00  0.00     0.275 HD
HETATM    9  H           1     -21.465  -2.142  -7.213  0.00  0.00     0.275 HD
ENDBRANCH   5   6
BRANCH   5  10
HETATM   10  C           1     -20.078  -5.108  -6.843  0.00  0.00     0.017 C 
HETATM   11  C           1     -19.948  -4.698  -5.382  0.00  0.00     0.012 C 
HETATM   12  C           1     -21.195  -6.134  -6.984  0.00  0.00     0.012 C 
ENDBRANCH   5  10
ENDBRANCH   1   5
BRANCH   2  13
HETATM   13  C           1     -22.231  -4.408 -11.014  0.00  0.00     0.185 C 
BRANCH  13  14
HETATM   14  C           1     -21.973  -3.262 -11.961  0.00  0.00     0.196 C 
HETATM   15  O           1     -21.257  -2.302 -11.601  0.00  0.00    -0.646 OA
HETATM   16  O           1     -22.475  -3.272 -13.106  0.00  0.00    -0.646 OA
ENDBRANCH  13  14
BRANCH  13  17
HETATM   17  C           1     -23.695  -4.819 -11.101  0.00  0.00     0.039 C 
BRANCH  17  18
HETATM   18 Se           1     -24.761  -3.677  -9.936  0.00  0.00     0.000 Se
HETATM   19  H           1     -23.690  -2.688  -9.730  0.00  0.00     0.000 HD
ENDBRANCH  17  18
ENDBRANCH  13  17
ENDBRANCH   2  13
TORSDOF 7
ENDMDL
MODEL 3
REMARK VINA RESULT:      -5.0      3.368      5.761
REMARK  7 active torsions:
REMARK  status: ('A' for Active; 'I' for Inactive)
REMARK    1  A    between atoms: N_1  and  C_8 
REMARK    2  A    between atoms: C_3  and  C_4 
REMARK    3  A    between atoms: C_4  and  C_5 
REMARK    4  A    between atoms: C_4  and  N_9 
REMARK    5  A    between atoms: C_5  and  Se_6 
REMARK       I    between atoms: C_7  and  N_9 
REMARK    6  A    between atoms: C_7  and  C_8 
REMARK    7  A    between atoms: C_8  and  C_15 
ROOT
HETATM    1  C           1     -22.370  -4.208  -7.993  0.00  0.00     0.249 C 
HETATM    2  N           1     -22.194  -5.418  -7.377  0.00  0.00    -0.345 N 
HETATM    3  H           1     -22.611  -6.252  -7.770  0.00  0.00     0.163 HD
HETATM    4  O           1     -21.873  -3.213  -7.522  0.00  0.00    -0.271 OA
ENDROOT
BRANCH   1   5
HETATM    5  C           1     -23.189  -4.117  -9.257  0.00  0.00     0.278 C 
BRANCH   5   6
HETATM    6  N           1     -24.434  -3.325  -8.991  0.00  0.00    -0.066 N 
HETATM    7  H           1     -24.746  -3.485  -8.006  0.00  0.00     0.275 HD
HETATM    8  H           1     -24.236  -2.309  -9.131  0.00  0.00     0.275 HD
HETATM    9  H           1     -25.187  -3.628  -9.649  0.00  0.00     0.275 HD
ENDBRANCH   5   6
BRANCH   5  10
HETATM   10  C           1     -22.372  -3.429 -10.342  0.00  0.00     0.017 C 
HETATM   11  C           1     -21.263  -4.359 -10.811  0.00  0.00     0.012 C 
HETATM   12  C           1     -23.277  -3.085 -11.518  0.00  0.00     0.012 C 
ENDBRANCH   5  10
ENDBRANCH   1   5
BRANCH   2  13
HETATM   13  C           1     -21.407  -5.506  -6.162  0.00  0.00     0.185 C 
BRANCH  13  14
HETATM   14  C           1     -19.989  -5.883  -6.507  0.00  0.00     0.196 C 
HETATM   15  O           1     -19.652  -7.087  -6.541  0.00  0.00    -0.646 OA
HETATM   16  O           1     -19.148  -4.993  -6.761  0.00  0.00    -0.646 OA
ENDBRANCH  13  14
BRANCH  13  17
HETATM   17  C           1     -22.006  -6.564  -5.245  0.00  0.00     0.039 C 
BRANCH  17  18
HETATM   18 Se           1     -21.412  -6.251  -3.416  0.00  0.00     0.000 Se
HETATM   19  H           1     -19.987  -6.147  -3.772  0.00  0.00     0.000 HD
ENDBRANCH  17  18
ENDBRANCH  13  17
ENDBRANCH   2  13
TORSDOF 7
ENDMDL
MODEL 4
REMARK VINA RESULT:      -5.0     10.628     12.112
REMARK  7 active torsions:
REMARK  status: ('A' for Active; 'I' for Inactive)
REMARK    1  A    between atoms: N_1  and  C_8 
REMARK    2  A    between atoms: C_3  and  C_4 
REMARK    3  A    between atoms: C_4  and  C_5 
REMARK    4  A    between atoms: C_4  and  N_9 
REMARK    5  A    between atoms: C_5  and  Se_6 
REMARK       I    between atoms: C_7  and  N_9 
REMARK    6  A    between atoms: C_7  and  C_8 
REMARK    7  A    between atoms: C_8  and  C_15 
ROOT
HETATM    1  C           1     -28.361  -6.362 -18.591  0.00  0.00     0.249 C 
HETATM    2  N           1     -27.453  -7.226 -19.143  0.00  0.00    -0.345 N 
HETATM    3  H           1     -27.278  -8.122 -18.708  0.00  0.00     0.163 HD
HETATM    4  O           1     -28.570  -5.293 -19.111  0.00  0.00    -0.271 OA
ENDROOT
BRANCH   1   5
HETATM    5  C           1     -29.099  -6.747 -17.332  0.00  0.00     0.278 C 
BRANCH   5   6
HETATM    6  N           1     -29.218  -8.241 -17.259  0.00  0.00    -0.066 N 
HETATM    7  H           1     -29.361  -8.531 -16.266  0.00  0.00     0.275 HD
HETATM    8  H           1     -30.035  -8.552 -17.832  0.00  0.00     0.275 HD
HETATM    9  H           1     -28.345  -8.678 -17.629  0.00  0.00     0.275 HD
ENDBRANCH   5   6
BRANCH   5  10
HETATM   10  C           1     -28.331  -6.240 -16.119  0.00  0.00     0.017 C 
HETATM   11  C           1     -29.314  -5.802 -15.042  0.00  0.00     0.012 C 
HETATM   12  C           1     -27.447  -7.354 -15.576  0.00  0.00     0.012 C 
ENDBRANCH   5  10
ENDBRANCH   1   5
BRANCH   2  13
HETATM   13  C           1     -26.744  -6.857 -20.353  0.00  0.00     0.185 C 
BRANCH  13  14
HETATM   14  C           1     -26.546  -8.080 -21.212  0.00  0.00     0.196 C 
HETATM   15  O           1     -27.514  -8.830 -21.466  0.00  0.00    -0.646 OA
HETATM   16  O           1     -25.413  -8.346 -21.671  0.00  0.00    -0.646 OA
ENDBRANCH  13  14
BRANCH  13  17
HETATM   17  C           1     -25.388  -6.268 -19.986  0.00  0.00     0.039 C 
BRANCH  17  18
HETATM   18 Se           1     -24.747  -7.089 -18.339  0.00  0.00     0.000 Se
HETATM   19  H           1     -25.724  -8.190 -18.370  0.00  0.00     0.000 HD
ENDBRANCH  17  18
ENDBRANCH  13  17
ENDBRANCH   2  13
TORSDOF 7
ENDMDL
MODEL 5
REMARK VINA RESULT:      -4.9      3.808      5.267
REMARK  7 active torsions:
REMARK  status: ('A' for Active; 'I' for Inactive)
REMARK    1  A    between atoms: N_1  and  C_8 
REMARK    2  A    between atoms: C_3  and  C_4 
REMARK    3  A    between atoms: C_4  and  C_5 
REMARK    4  A    between atoms: C_4  and  N_9 
REMARK    5  A    between atoms: C_5  and  Se_6 
REMARK       I    between atoms: C_7  and  N_9 
REMARK    6  A    between atoms: C_7  and  C_8 
REMARK    7  A    between atoms: C_8  and  C_15 
ROOT
HETATM    1  C           1     -21.461  -6.519  -4.247  0.00  0.00     0.249 C 
HETATM    2  N           1     -21.016  -5.432  -4.952  0.00  0.00    -0.345 N 
HETATM    3  H           1     -20.584  -4.657  -4.467  0.00  0.00     0.163 HD
HETATM    4  O           1     -21.976  -7.444  -4.827  0.00  0.00    -0.271 OA
ENDROOT
BRANCH   1   5
HETATM    5  C           1     -21.309  -6.557  -2.746  0.00  0.00     0.278 C 
BRANCH   5   6
HETATM    6  N           1     -22.422  -5.778  -2.111  0.00  0.00    -0.066 N 
HETATM    7  H           1     -22.327  -4.768  -2.361  0.00  0.00     0.275 HD
HETATM    8  H           1     -23.340  -6.137  -2.459  0.00  0.00     0.275 HD
HETATM    9  H           1     -22.376  -5.887  -1.073  0.00  0.00     0.275 HD
ENDBRANCH   5   6
BRANCH   5  10
HETATM   10  C           1     -21.365  -8.002  -2.268  0.00  0.00     0.017 C 
HETATM   11  C           1     -19.951  -8.556  -2.159  0.00  0.00     0.012 C 
HETATM   12  C           1     -22.039  -8.060  -0.904  0.00  0.00     0.012 C 
ENDBRANCH   5  10
ENDBRANCH   1   5
BRANCH   2  13
HETATM   13  C           1     -21.161  -5.394  -6.394  0.00  0.00     0.185 C 
BRANCH  13  14
HETATM   14  C           1     -19.827  -5.673  -7.041  0.00  0.00     0.196 C 
HETATM   15  O           1     -19.393  -6.845  -7.101  0.00  0.00    -0.646 OA
HETATM   16  O           1     -19.154  -4.734  -7.518  0.00  0.00    -0.646 OA
ENDBRANCH  13  14
BRANCH  13  17
HETATM   17  C           1     -21.653  -4.018  -6.818  0.00  0.00     0.039 C 
BRANCH  17  18
HETATM   18 Se           1     -22.629  -4.165  -8.499  0.00  0.00     0.000 Se
HETATM   19  H           1     -23.931  -3.814  -7.908  0.00  0.00     0.000 HD
ENDBRANCH  17  18
ENDBRANCH  13  17
ENDBRANCH   2  13
TORSDOF 7
ENDMDL
MODEL 6
REMARK VINA RESULT:      -4.8     18.076     19.644
REMARK  7 active torsions:
REMARK  status: ('A' for Active; 'I' for Inactive)
REMARK    1  A    between atoms: N_1  and  C_8 
REMARK    2  A    between atoms: C_3  and  C_4 
REMARK    3  A    between atoms: C_4  and  C_5 
REMARK    4  A    between atoms: C_4  and  N_9 
REMARK    5  A    between atoms: C_5  and  Se_6 
REMARK       I    between atoms: C_7  and  N_9 
REMARK    6  A    between atoms: C_7  and  C_8 
REMARK    7  A    between atoms: C_8  and  C_15 
ROOT
HETATM    1  C           1     -12.404   6.091 -20.447  0.00  0.00     0.249 C 
HETATM    2  N           1     -11.247   6.604 -19.926  0.00  0.00    -0.345 N 
HETATM    3  H           1     -10.700   6.058 -19.273  0.00  0.00     0.163 HD
HETATM    4  O           1     -13.056   6.743 -21.227  0.00  0.00    -0.271 OA
ENDROOT
BRANCH   1   5
HETATM    5  C           1     -12.865   4.711 -20.046  0.00  0.00     0.278 C 
BRANCH   5   6
HETATM    6  N           1     -14.362   4.647 -20.108  0.00  0.00    -0.066 N 
HETATM    7  H           1     -14.766   5.104 -19.260  0.00  0.00     0.275 HD
HETATM    8  H           1     -14.697   5.146 -20.963  0.00  0.00     0.275 HD
HETATM    9  H           1     -14.667   3.648 -20.145  0.00  0.00     0.275 HD
ENDBRANCH   5   6
BRANCH   5  10
HETATM   10  C           1     -12.274   3.682 -20.999  0.00  0.00     0.017 C 
HETATM   11  C           1     -11.115   2.966 -20.320  0.00  0.00     0.012 C 
HETATM   12  C           1     -13.344   2.667 -21.379  0.00  0.00     0.012 C 
ENDBRANCH   5  10
ENDBRANCH   1   5
BRANCH   2  13
HETATM   13  C           1     -10.803   7.930 -20.311  0.00  0.00     0.185 C 
BRANCH  13  14
HETATM   14  C           1      -9.368   7.865 -20.771  0.00  0.00     0.196 C 
HETATM   15  O           1      -8.817   8.883 -21.244  0.00  0.00    -0.646 OA
HETATM   16  O           1      -8.729   6.795 -20.679  0.00  0.00    -0.646 OA
ENDBRANCH  13  14
BRANCH  13  17
HETATM   17  C           1     -10.912   8.868 -19.117  0.00  0.00     0.039 C 
BRANCH  17  18
HETATM   18 Se           1     -12.722   9.583 -19.016  0.00  0.00     0.000 Se
HETATM   19  H           1     -12.303  10.984 -19.193  0.00  0.00     0.000 HD
ENDBRANCH  17  18
ENDBRANCH  13  17
ENDBRANCH   2  13
TORSDOF 7
ENDMDL
MODEL 7
REMARK VINA RESULT:      -4.7      4.193      6.283
REMARK  7 active torsions:
REMARK  status: ('A' for Active; 'I' for Inactive)
REMARK    1  A    between atoms: N_1  and  C_8 
REMARK    2  A    between atoms: C_3  and  C_4 
REMARK    3  A    between atoms: C_4  and  C_5 
REMARK    4  A    between atoms: C_4  and  N_9 
REMARK    5  A    between atoms: C_5  and  Se_6 
REMARK       I    between atoms: C_7  and  N_9 
REMARK    6  A    between atoms: C_7  and  C_8 
REMARK    7  A    between atoms: C_8  and  C_15 
ROOT
HETATM    1  C           1     -21.726  -5.533  -5.811  0.00  0.00     0.249 C 
HETATM    2  N           1     -21.047  -6.415  -5.013  0.00  0.00    -0.345 N 
HETATM    3  H           1     -20.035  -6.434  -5.026  0.00  0.00     0.163 HD
HETATM    4  O           1     -22.933  -5.511  -5.795  0.00  0.00    -0.271 OA
ENDROOT
BRANCH   1   5
HETATM    5  C           1     -20.965  -4.592  -6.712  0.00  0.00     0.278 C 
BRANCH   5   6
HETATM    6  N           1     -19.492  -4.813  -6.537  0.00  0.00    -0.066 N 
HETATM    7  H           1     -19.195  -5.644  -7.098  0.00  0.00     0.275 HD
HETATM    8  H           1     -18.972  -3.969  -6.866  0.00  0.00     0.275 HD
HETATM    9  H           1     -19.282  -4.981  -5.527  0.00  0.00     0.275 HD
ENDBRANCH   5   6
BRANCH   5  10
HETATM   10  C           1     -21.349  -4.856  -8.161  0.00  0.00     0.017 C 
HETATM   11  C           1     -22.355  -3.810  -8.620  0.00  0.00     0.012 C 
HETATM   12  C           1     -20.105  -4.781  -9.038  0.00  0.00     0.012 C 
ENDBRANCH   5  10
ENDBRANCH   1   5
BRANCH   2  13
HETATM   13  C           1     -21.777  -7.320  -4.147  0.00  0.00     0.185 C 
BRANCH  13  14
HETATM   14  C           1     -21.668  -6.847  -2.719  0.00  0.00     0.196 C 
HETATM   15  O           1     -20.852  -7.388  -1.941  0.00  0.00    -0.646 OA
HETATM   16  O           1     -22.394  -5.914  -2.311  0.00  0.00    -0.646 OA
ENDBRANCH  13  14
BRANCH  13  17
HETATM   17  C           1     -21.190  -8.719  -4.265  0.00  0.00     0.039 C 
BRANCH  17  18
HETATM   18 Se           1     -19.410  -8.613  -5.052  0.00  0.00     0.000 Se
HETATM   19  H           1     -19.875  -8.001  -6.308  0.00  0.00     0.000 HD
ENDBRANCH  17  18
ENDBRANCH  13  17
ENDBRANCH   2  13
TORSDOF 7
ENDMDL
MODEL 8
REMARK VINA RESULT:      -4.6      6.397      8.046
REMARK  7 active torsions:
REMARK  status: ('A' for Active; 'I' for Inactive)
REMARK    1  A    between atoms: N_1  and  C_8 
REMARK    2  A    between atoms: C_3  and  C_4 
REMARK    3  A    between atoms: C_4  and  C_5 
REMARK    4  A    between atoms: C_4  and  N_9 
REMARK    5  A    between atoms: C_5  and  Se_6 
REMARK       I    between atoms: C_7  and  N_9 
REMARK    6  A    between atoms: C_7  and  C_8 
REMARK    7  A    between atoms: C_8  and  C_15 
ROOT
HETATM    1  C           1     -21.035  -8.872  -1.601  0.00  0.00     0.249 C 
HETATM    2  N           1     -21.504  -8.663  -2.870  0.00  0.00    -0.345 N 
HETATM    3  H           1     -22.241  -9.249  -3.241  0.00  0.00     0.163 HD
HETATM    4  O           1     -20.157  -8.172  -1.160  0.00  0.00    -0.271 OA
ENDROOT
BRANCH   1   5
HETATM    5  C           1     -21.616  -9.979  -0.755  0.00  0.00     0.278 C 
BRANCH   5   6
HETATM    6  N           1     -20.919 -10.012   0.572  0.00  0.00    -0.066 N 
HETATM    7  H           1     -20.990  -9.073   1.027  0.00  0.00     0.275 HD
HETATM    8  H           1     -21.370 -10.729   1.184  0.00  0.00     0.275 HD
HETATM    9  H           1     -19.913 -10.256   0.432  0.00  0.00     0.275 HD
ENDBRANCH   5   6
BRANCH   5  10
HETATM   10  C           1     -23.102  -9.728  -0.542  0.00  0.00     0.017 C 
HETATM   11  C           1     -23.763 -10.996  -0.021  0.00  0.00     0.012 C 
HETATM   12  C           1     -23.287  -8.607   0.473  0.00  0.00     0.012 C 
ENDBRANCH   5  10
ENDBRANCH   1   5
BRANCH   2  13
HETATM   13  C           1     -20.947  -7.599  -3.683  0.00  0.00     0.185 C 
BRANCH  13  14
HETATM   14  C           1     -21.940  -6.468  -3.781  0.00  0.00     0.196 C 
HETATM   15  O           1     -22.424  -5.969  -2.741  0.00  0.00    -0.646 OA
HETATM   16  O           1     -22.281  -6.029  -4.900  0.00  0.00    -0.646 OA
ENDBRANCH  13  14
BRANCH  13  17
HETATM   17  C           1     -20.646  -8.132  -5.077  0.00  0.00     0.039 C 
BRANCH  17  18
HETATM   18 Se           1     -19.057  -9.259  -5.013  0.00  0.00     0.000 Se
HETATM   19  H           1     -18.882  -9.131  -3.556  0.00  0.00     0.000 HD
ENDBRANCH  17  18
ENDBRANCH  13  17
ENDBRANCH   2  13
TORSDOF 7
ENDMDL
MODEL 9
REMARK VINA RESULT:      -4.6      3.588      5.550
REMARK  7 active torsions:
REMARK  status: ('A' for Active; 'I' for Inactive)
REMARK    1  A    between atoms: N_1  and  C_8 
REMARK    2  A    between atoms: C_3  and  C_4 
REMARK    3  A    between atoms: C_4  and  C_5 
REMARK    4  A    between atoms: C_4  and  N_9 
REMARK    5  A    between atoms: C_5  and  Se_6 
REMARK       I    between atoms: C_7  and  N_9 
REMARK    6  A    between atoms: C_7  and  C_8 
REMARK    7  A    between atoms: C_8  and  C_15 
ROOT
HETATM    1  C           1     -21.595  -4.171  -7.903  0.00  0.00     0.249 C 
HETATM    2  N           1     -22.108  -5.257  -7.246  0.00  0.00    -0.345 N 
HETATM    3  H           1     -22.932  -5.723  -7.606  0.00  0.00     0.163 HD
HETATM    4  O           1     -20.613  -3.615  -7.473  0.00  0.00    -0.271 OA
ENDROOT
BRANCH   1   5
HETATM    5  C           1     -22.258  -3.667  -9.161  0.00  0.00     0.278 C 
BRANCH   5   6
HETATM    6  N           1     -21.410  -4.015 -10.347  0.00  0.00    -0.066 N 
HETATM    7  H           1     -21.685  -4.955 -10.709  0.00  0.00     0.275 HD
HETATM    8  H           1     -21.550  -3.300 -11.096  0.00  0.00     0.275 HD
HETATM    9  H           1     -20.404  -4.031 -10.064  0.00  0.00     0.275 HD
ENDBRANCH   5   6
BRANCH   5  10
HETATM   10  C           1     -23.627  -4.317  -9.308  0.00  0.00     0.017 C 
HETATM   11  C           1     -24.697  -3.238  -9.393  0.00  0.00     0.012 C 
HETATM   12  C           1     -23.655  -5.160 -10.577  0.00  0.00     0.012 C 
ENDBRANCH   5  10
ENDBRANCH   1   5
BRANCH   2  13
HETATM   13  C           1     -21.471  -5.742  -6.037  0.00  0.00     0.185 C 
BRANCH  13  14
HETATM   14  C           1     -20.594  -6.923  -6.371  0.00  0.00     0.196 C 
HETATM   15  O           1     -19.467  -6.740  -6.882  0.00  0.00    -0.646 OA
HETATM   16  O           1     -20.992  -8.085  -6.137  0.00  0.00    -0.646 OA
ENDBRANCH  13  14
BRANCH  13  17
HETATM   17  C           1     -22.538  -6.168  -5.038  0.00  0.00     0.039 C 
BRANCH  17  18
HETATM   18 Se           1     -21.741  -6.337  -3.268  0.00  0.00     0.000 Se
HETATM   19  H           1     -20.793  -5.227  -3.461  0.00  0.00     0.000 HD
ENDBRANCH  17  18
ENDBRANCH  13  17
ENDBRANCH   2  13
TORSDOF 7
ENDMDL
