MODEL 1
REMARK VINA RESULT:      -5.7      0.000      0.000
REMARK  10 active torsions:
REMARK  status: ('A' for Active; 'I' for Inactive)
REMARK    1  A    between atoms: C_2  and  C_18 
REMARK    2  A    between atoms: C_2  and  C_3 
REMARK    3  A    between atoms: C_2  and  N_7 
REMARK    4  A    between atoms: C_4  and  C_13 
REMARK    5  A    between atoms: C_4  and  N_20 
REMARK       I    between atoms: N_7  and  C_8 
REMARK    6  A    between atoms: C_8  and  C_15 
REMARK    7  A    between atoms: C_13  and  C_14 
REMARK    8  A    between atoms: C_14  and  C_15 
REMARK    9  A    between atoms: C_15  and  N_21 
REMARK   10  A    between atoms: C_18  and  S_19 
ROOT
HETATM    1  C           1     -33.640  -2.209 -11.489  0.00  0.00     0.274 C 
ENDROOT
BRANCH   1   2
HETATM    2  C           1     -34.560  -2.024 -12.670  0.00  0.00     0.249 C 
HETATM    3  N           1     -35.262  -0.857 -12.815  0.00  0.00    -0.344 N 
HETATM    4  H           1     -35.164  -0.119 -12.130  0.00  0.00     0.163 HD
HETATM    5  O           1     -34.678  -2.905 -13.488  0.00  0.00    -0.271 OA
BRANCH   3   6
HETATM    6  C           1     -36.147  -0.680 -13.950  0.00  0.00     0.194 C 
BRANCH   6   7
HETATM    7  C           1     -37.488  -0.142 -13.468  0.00  0.00     0.106 C 
BRANCH   7   8
HETATM    8  S           1     -37.536  -0.174 -11.654  0.00  0.00    -0.180 SA
HETATM    9  H           1     -38.876  -0.131 -11.547  0.00  0.00     0.101 HD
ENDBRANCH   7   8
ENDBRANCH   6   7
BRANCH   6  10
HETATM   10  C           1     -35.531   0.299 -14.919  0.00  0.00     0.197 C 
HETATM   11  O           1     -34.333   0.634 -14.792  0.00  0.00    -0.646 OA
HETATM   12  O           1     -36.218   0.775 -15.849  0.00  0.00    -0.646 OA
ENDBRANCH   6  10
ENDBRANCH   3   6
ENDBRANCH   1   2
BRANCH   1  13
HETATM   13  C           1     -33.125  -3.642 -11.465  0.00  0.00     0.044 C 
BRANCH  13  14
HETATM   14  C           1     -33.979  -4.472 -10.515  0.00  0.00     0.030 C 
BRANCH  14  15
HETATM   15  C           1     -34.165  -5.871 -11.089  0.00  0.00     0.230 C 
BRANCH  15  16
HETATM   16  N           1     -34.776  -5.775 -12.455  0.00  0.00    -0.079 N 
HETATM   17  H           1     -35.817  -5.833 -12.376  0.00  0.00     0.274 HD
HETATM   18  H           1     -34.510  -4.864 -12.892  0.00  0.00     0.274 HD
HETATM   19  H           1     -34.428  -6.560 -13.050  0.00  0.00     0.274 HD
ENDBRANCH  15  16
ENDBRANCH  14  15
ENDBRANCH  13  14
ENDBRANCH   1  13
BRANCH   1  20
HETATM   20  N           1     -34.391  -1.926 -10.222  0.00  0.00    -0.067 N 
HETATM   21  H           1     -33.714  -1.708  -9.457  0.00  0.00     0.275 HD
HETATM   22  H           1     -35.026  -1.109 -10.369  0.00  0.00     0.275 HD
HETATM   23  H           1     -34.958  -2.763  -9.958  0.00  0.00     0.275 HD
ENDBRANCH   1  20
TORSDOF 10
ENDMDL
MODEL 2
REMARK VINA RESULT:      -5.7      2.520      2.957
REMARK  10 active torsions:
REMARK  status: ('A' for Active; 'I' for Inactive)
REMARK    1  A    between atoms: C_2  and  C_18 
REMARK    2  A    between atoms: C_2  and  C_3 
REMARK    3  A    between atoms: C_2  and  N_7 
REMARK    4  A    between atoms: C_4  and  C_13 
REMARK    5  A    between atoms: C_4  and  N_20 
REMARK       I    between atoms: N_7  and  C_8 
REMARK    6  A    between atoms: C_8  and  C_15 
REMARK    7  A    between atoms: C_13  and  C_14 
REMARK    8  A    between atoms: C_14  and  C_15 
REMARK    9  A    between atoms: C_15  and  N_21 
REMARK   10  A    between atoms: C_18  and  S_19 
ROOT
HETATM    1  C           1     -34.219  -4.012 -12.484  0.00  0.00     0.274 C 
ENDROOT
BRANCH   1   2
HETATM    2  C           1     -34.292  -2.557 -12.091  0.00  0.00     0.249 C 
HETATM    3  N           1     -35.080  -1.693 -12.803  0.00  0.00    -0.344 N 
HETATM    4  H           1     -35.614  -2.030 -13.594  0.00  0.00     0.163 HD
HETATM    5  O           1     -33.653  -2.154 -11.148  0.00  0.00    -0.271 OA
BRANCH   3   6
HETATM    6  C           1     -35.149  -0.295 -12.425  0.00  0.00     0.194 C 
BRANCH   6   7
HETATM    7  C           1     -35.196   0.567 -13.679  0.00  0.00     0.106 C 
BRANCH   7   8
HETATM    8  S           1     -35.695  -0.452 -15.096  0.00  0.00    -0.180 SA
HETATM    9  H           1     -34.786   0.046 -15.954  0.00  0.00     0.101 HD
ENDBRANCH   7   8
ENDBRANCH   6   7
BRANCH   6  10
HETATM   10  C           1     -36.393  -0.058 -11.603  0.00  0.00     0.197 C 
HETATM   11  O           1     -37.494  -0.504 -11.994  0.00  0.00    -0.646 OA
HETATM   12  O           1     -36.321   0.584 -10.533  0.00  0.00    -0.646 OA
ENDBRANCH   6  10
ENDBRANCH   3   6
ENDBRANCH   1   2
BRANCH   1  13
HETATM   13  C           1     -33.388  -4.775 -11.461  0.00  0.00     0.044 C 
BRANCH  13  14
HETATM   14  C           1     -34.312  -5.425 -10.439  0.00  0.00     0.030 C 
BRANCH  14  15
HETATM   15  C           1     -34.329  -6.933 -10.656  0.00  0.00     0.230 C 
BRANCH  15  16
HETATM   16  N           1     -35.092  -7.590  -9.545  0.00  0.00    -0.079 N 
HETATM   17  H           1     -35.046  -6.992  -8.689  0.00  0.00     0.274 HD
HETATM   18  H           1     -36.089  -7.711  -9.832  0.00  0.00     0.274 HD
HETATM   19  H           1     -34.673  -8.525  -9.339  0.00  0.00     0.274 HD
ENDBRANCH  15  16
ENDBRANCH  14  15
ENDBRANCH  13  14
ENDBRANCH   1  13
BRANCH   1  20
HETATM   20  N           1     -33.581  -4.132 -13.837  0.00  0.00    -0.067 N 
HETATM   21  H           1     -34.323  -4.154 -14.571  0.00  0.00     0.275 HD
HETATM   22  H           1     -32.953  -3.312 -13.999  0.00  0.00     0.275 HD
HETATM   23  H           1     -33.021  -5.013 -13.881  0.00  0.00     0.275 HD
ENDBRANCH   1  20
TORSDOF 10
ENDMDL
MODEL 3
REMARK VINA RESULT:      -5.4     13.078     14.489
REMARK  10 active torsions:
REMARK  status: ('A' for Active; 'I' for Inactive)
REMARK    1  A    between atoms: C_2  and  C_18 
REMARK    2  A    between atoms: C_2  and  C_3 
REMARK    3  A    between atoms: C_2  and  N_7 
REMARK    4  A    between atoms: C_4  and  C_13 
REMARK    5  A    between atoms: C_4  and  N_20 
REMARK       I    between atoms: N_7  and  C_8 
REMARK    6  A    between atoms: C_8  and  C_15 
REMARK    7  A    between atoms: C_13  and  C_14 
REMARK    8  A    between atoms: C_14  and  C_15 
REMARK    9  A    between atoms: C_15  and  N_21 
REMARK   10  A    between atoms: C_18  and  S_19 
ROOT
HETATM    1  C           1     -21.160  -5.803  -6.903  0.00  0.00     0.274 C 
ENDROOT
BRANCH   1   2
HETATM    2  C           1     -21.717  -4.630  -7.673  0.00  0.00     0.249 C 
HETATM    3  N           1     -22.262  -4.821  -8.914  0.00  0.00    -0.344 N 
HETATM    4  H           1     -22.292  -5.750  -9.315  0.00  0.00     0.163 HD
HETATM    5  O           1     -21.680  -3.521  -7.193  0.00  0.00    -0.271 OA
BRANCH   3   6
HETATM    6  C           1     -22.796  -3.694  -9.652  0.00  0.00     0.194 C 
BRANCH   6   7
HETATM    7  C           1     -22.246  -3.713 -11.073  0.00  0.00     0.106 C 
BRANCH   7   8
HETATM    8  S           1     -20.445  -3.933 -11.021  0.00  0.00    -0.180 SA
HETATM    9  H           1     -20.304  -3.632  -9.717  0.00  0.00     0.101 HD
ENDBRANCH   7   8
ENDBRANCH   6   7
BRANCH   6  10
HETATM   10  C           1     -24.302  -3.788  -9.694  0.00  0.00     0.197 C 
HETATM   11  O           1     -24.997  -2.762  -9.528  0.00  0.00    -0.646 OA
HETATM   12  O           1     -24.853  -4.892  -9.895  0.00  0.00    -0.646 OA
ENDBRANCH   6  10
ENDBRANCH   3   6
ENDBRANCH   1   2
BRANCH   1  13
HETATM   13  C           1     -20.998  -5.419  -5.438  0.00  0.00     0.044 C 
BRANCH  13  14
HETATM   14  C           1     -21.816  -6.369  -4.571  0.00  0.00     0.030 C 
BRANCH  14  15
HETATM   15  C           1     -21.308  -6.311  -3.136  0.00  0.00     0.230 C 
BRANCH  15  16
HETATM   16  N           1     -22.431  -5.921  -2.223  0.00  0.00    -0.079 N 
HETATM   17  H           1     -22.065  -5.304  -1.463  0.00  0.00     0.274 HD
HETATM   18  H           1     -23.160  -5.407  -2.767  0.00  0.00     0.274 HD
HETATM   19  H           1     -22.853  -6.779  -1.802  0.00  0.00     0.274 HD
ENDBRANCH  15  16
ENDBRANCH  14  15
ENDBRANCH  13  14
ENDBRANCH   1  13
BRANCH   1  20
HETATM   20  N           1     -19.825  -6.184  -7.471  0.00  0.00    -0.067 N 
HETATM   21  H           1     -19.939  -7.002  -8.109  0.00  0.00     0.275 HD
HETATM   22  H           1     -19.431  -5.376  -8.005  0.00  0.00     0.275 HD
HETATM   23  H           1     -19.174  -6.436  -6.693  0.00  0.00     0.275 HD
ENDBRANCH   1  20
TORSDOF 10
ENDMDL
MODEL 4
REMARK VINA RESULT:      -5.2      1.896      2.192
REMARK  10 active torsions:
REMARK  status: ('A' for Active; 'I' for Inactive)
REMARK    1  A    between atoms: C_2  and  C_18 
REMARK    2  A    between atoms: C_2  and  C_3 
REMARK    3  A    between atoms: C_2  and  N_7 
REMARK    4  A    between atoms: C_4  and  C_13 
REMARK    5  A    between atoms: C_4  and  N_20 
REMARK       I    between atoms: N_7  and  C_8 
REMARK    6  A    between atoms: C_8  and  C_15 
REMARK    7  A    between atoms: C_13  and  C_14 
REMARK    8  A    between atoms: C_14  and  C_15 
REMARK    9  A    between atoms: C_15  and  N_21 
REMARK   10  A    between atoms: C_18  and  S_19 
ROOT
HETATM    1  C           1     -34.712  -2.151 -11.868  0.00  0.00     0.274 C 
ENDROOT
BRANCH   1   2
HETATM    2  C           1     -35.587  -1.456 -12.882  0.00  0.00     0.249 C 
HETATM    3  N           1     -35.067  -1.080 -14.092  0.00  0.00    -0.344 N 
HETATM    4  H           1     -34.096  -1.266 -14.305  0.00  0.00     0.163 HD
HETATM    5  O           1     -36.746  -1.232 -12.627  0.00  0.00    -0.271 OA
BRANCH   3   6
HETATM    6  C           1     -35.909  -0.412 -15.066  0.00  0.00     0.194 C 
BRANCH   6   7
HETATM    7  C           1     -35.519   1.058 -15.148  0.00  0.00     0.106 C 
BRANCH   7   8
HETATM    8  S           1     -34.499   1.495 -13.712  0.00  0.00    -0.180 SA
HETATM    9  H           1     -34.530   0.277 -13.141  0.00  0.00     0.101 HD
ENDBRANCH   7   8
ENDBRANCH   6   7
BRANCH   6  10
HETATM   10  C           1     -35.723  -1.059 -16.416  0.00  0.00     0.197 C 
HETATM   11  O           1     -36.555  -0.854 -17.327  0.00  0.00    -0.646 OA
HETATM   12  O           1     -34.737  -1.798 -16.625  0.00  0.00    -0.646 OA
ENDBRANCH   6  10
ENDBRANCH   3   6
ENDBRANCH   1   2
BRANCH   1  13
HETATM   13  C           1     -34.061  -3.371 -12.506  0.00  0.00     0.044 C 
BRANCH  13  14
HETATM   14  C           1     -33.068  -3.986 -11.530  0.00  0.00     0.030 C 
BRANCH  14  15
HETATM   15  C           1     -33.470  -5.426 -11.236  0.00  0.00     0.230 C 
BRANCH  15  16
HETATM   16  N           1     -34.586  -5.831 -12.152  0.00  0.00    -0.079 N 
HETATM   17  H           1     -35.221  -5.017 -12.309  0.00  0.00     0.274 HD
HETATM   18  H           1     -34.189  -6.145 -13.067  0.00  0.00     0.274 HD
HETATM   19  H           1     -35.125  -6.615 -11.720  0.00  0.00     0.274 HD
ENDBRANCH  15  16
ENDBRANCH  14  15
ENDBRANCH  13  14
ENDBRANCH   1  13
BRANCH   1  20
HETATM   20  N           1     -35.549  -2.584 -10.700  0.00  0.00    -0.067 N 
HETATM   21  H           1     -36.488  -2.889 -11.040  0.00  0.00     0.275 HD
HETATM   22  H           1     -35.079  -3.380 -10.212  0.00  0.00     0.275 HD
HETATM   23  H           1     -35.661  -1.786 -10.036  0.00  0.00     0.275 HD
ENDBRANCH   1  20
TORSDOF 10
ENDMDL
MODEL 5
REMARK VINA RESULT:      -5.0     14.860     16.875
REMARK  10 active torsions:
REMARK  status: ('A' for Active; 'I' for Inactive)
REMARK    1  A    between atoms: C_2  and  C_18 
REMARK    2  A    between atoms: C_2  and  C_3 
REMARK    3  A    between atoms: C_2  and  N_7 
REMARK    4  A    between atoms: C_4  and  C_13 
REMARK    5  A    between atoms: C_4  and  N_20 
REMARK       I    between atoms: N_7  and  C_8 
REMARK    6  A    between atoms: C_8  and  C_15 
REMARK    7  A    between atoms: C_13  and  C_14 
REMARK    8  A    between atoms: C_14  and  C_15 
REMARK    9  A    between atoms: C_15  and  N_21 
REMARK   10  A    between atoms: C_18  and  S_19 
ROOT
HETATM    1  C           1     -20.488  -4.979  -6.585  0.00  0.00     0.274 C 
ENDROOT
BRANCH   1   2
HETATM    2  C           1     -21.380  -5.780  -5.669  0.00  0.00     0.249 C 
HETATM    3  N           1     -20.835  -6.694  -4.808  0.00  0.00    -0.344 N 
HETATM    4  H           1     -19.833  -6.832  -4.785  0.00  0.00     0.163 HD
HETATM    5  O           1     -22.577  -5.615  -5.697  0.00  0.00    -0.271 OA
BRANCH   3   6
HETATM    6  C           1     -21.694  -7.463  -3.928  0.00  0.00     0.194 C 
BRANCH   6   7
HETATM    7  C           1     -21.225  -8.912  -3.903  0.00  0.00     0.106 C 
BRANCH   7   8
HETATM    8  S           1     -19.606  -9.038  -4.714  0.00  0.00    -0.180 SA
HETATM    9  H           1     -19.506 -10.376  -4.621  0.00  0.00     0.101 HD
ENDBRANCH   7   8
ENDBRANCH   6   7
BRANCH   6  10
HETATM   10  C           1     -21.629  -6.888  -2.534  0.00  0.00     0.197 C 
HETATM   11  O           1     -22.331  -5.898  -2.234  0.00  0.00    -0.646 OA
HETATM   12  O           1     -20.874  -7.402  -1.681  0.00  0.00    -0.646 OA
ENDBRANCH   6  10
ENDBRANCH   3   6
ENDBRANCH   1   2
BRANCH   1  13
HETATM   13  C           1     -21.282  -3.832  -7.195  0.00  0.00     0.044 C 
BRANCH  13  14
HETATM   14  C           1     -21.468  -4.079  -8.687  0.00  0.00     0.030 C 
BRANCH  14  15
HETATM   15  C           1     -22.892  -3.715  -9.089  0.00  0.00     0.230 C 
BRANCH  15  16
HETATM   16  N           1     -23.834  -4.084  -7.982  0.00  0.00    -0.079 N 
HETATM   17  H           1     -24.565  -3.344  -7.885  0.00  0.00     0.274 HD
HETATM   18  H           1     -24.291  -4.997  -8.204  0.00  0.00     0.274 HD
HETATM   19  H           1     -23.304  -4.170  -7.086  0.00  0.00     0.274 HD
ENDBRANCH  15  16
ENDBRANCH  14  15
ENDBRANCH  13  14
ENDBRANCH   1  13
BRANCH   1  20
HETATM   20  N           1     -19.970  -5.866  -7.679  0.00  0.00    -0.067 N 
HETATM   21  H           1     -19.378  -5.306  -8.331  0.00  0.00     0.275 HD
HETATM   22  H           1     -19.399  -6.636  -7.261  0.00  0.00     0.275 HD
HETATM   23  H           1     -20.775  -6.277  -8.205  0.00  0.00     0.275 HD
ENDBRANCH   1  20
TORSDOF 10
ENDMDL
MODEL 6
REMARK VINA RESULT:      -4.9     12.722     14.454
REMARK  10 active torsions:
REMARK  status: ('A' for Active; 'I' for Inactive)
REMARK    1  A    between atoms: C_2  and  C_18 
REMARK    2  A    between atoms: C_2  and  C_3 
REMARK    3  A    between atoms: C_2  and  N_7 
REMARK    4  A    between atoms: C_4  and  C_13 
REMARK    5  A    between atoms: C_4  and  N_20 
REMARK       I    between atoms: N_7  and  C_8 
REMARK    6  A    between atoms: C_8  and  C_15 
REMARK    7  A    between atoms: C_13  and  C_14 
REMARK    8  A    between atoms: C_14  and  C_15 
REMARK    9  A    between atoms: C_15  and  N_21 
REMARK   10  A    between atoms: C_18  and  S_19 
ROOT
HETATM    1  C           1     -24.196  -4.628  -9.933  0.00  0.00     0.274 C 
ENDROOT
BRANCH   1   2
HETATM    2  C           1     -23.298  -4.521  -8.725  0.00  0.00     0.249 C 
HETATM    3  N           1     -21.981  -4.885  -8.816  0.00  0.00    -0.344 N 
HETATM    4  H           1     -21.610  -5.227  -9.693  0.00  0.00     0.163 HD
HETATM    5  O           1     -23.741  -4.114  -7.678  0.00  0.00    -0.271 OA
BRANCH   3   6
HETATM    6  C           1     -21.119  -4.782  -7.654  0.00  0.00     0.194 C 
BRANCH   6   7
HETATM    7  C           1     -20.986  -6.151  -7.000  0.00  0.00     0.106 C 
BRANCH   7   8
HETATM    8  S           1     -21.417  -6.025  -5.241  0.00  0.00    -0.180 SA
HETATM    9  H           1     -20.411  -6.799  -4.794  0.00  0.00     0.101 HD
ENDBRANCH   7   8
ENDBRANCH   6   7
BRANCH   6  10
HETATM   10  C           1     -19.757  -4.293  -8.082  0.00  0.00     0.197 C 
HETATM   11  O           1     -18.765  -4.483  -7.344  0.00  0.00    -0.646 OA
HETATM   12  O           1     -19.620  -3.699  -9.173  0.00  0.00    -0.646 OA
ENDBRANCH   6  10
ENDBRANCH   3   6
ENDBRANCH   1   2
BRANCH   1  13
HETATM   13  C           1     -23.407  -4.273 -11.187  0.00  0.00     0.044 C 
BRANCH  13  14
HETATM   14  C           1     -23.990  -3.013 -11.813  0.00  0.00     0.030 C 
BRANCH  14  15
HETATM   15  C           1     -23.572  -2.932 -13.276  0.00  0.00     0.230 C 
BRANCH  15  16
HETATM   16  N           1     -22.140  -3.356 -13.412  0.00  0.00    -0.079 N 
HETATM   17  H           1     -22.064  -4.101 -14.140  0.00  0.00     0.274 HD
HETATM   18  H           1     -21.559  -2.534 -13.692  0.00  0.00     0.274 HD
HETATM   19  H           1     -21.798  -3.727 -12.497  0.00  0.00     0.274 HD
ENDBRANCH  15  16
ENDBRANCH  14  15
ENDBRANCH  13  14
ENDBRANCH   1  13
BRANCH   1  20
HETATM   20  N           1     -25.349  -3.681  -9.783  0.00  0.00    -0.067 N 
HETATM   21  H           1     -26.105  -3.943 -10.454  0.00  0.00     0.275 HD
HETATM   22  H           1     -25.716  -3.732  -8.805  0.00  0.00     0.275 HD
HETATM   23  H           1     -25.029  -2.706  -9.983  0.00  0.00     0.275 HD
ENDBRANCH   1  20
TORSDOF 10
ENDMDL
MODEL 7
REMARK VINA RESULT:      -4.7     13.168     14.522
REMARK  10 active torsions:
REMARK  status: ('A' for Active; 'I' for Inactive)
REMARK    1  A    between atoms: C_2  and  C_18 
REMARK    2  A    between atoms: C_2  and  C_3 
REMARK    3  A    between atoms: C_2  and  N_7 
REMARK    4  A    between atoms: C_4  and  C_13 
REMARK    5  A    between atoms: C_4  and  N_20 
REMARK       I    between atoms: N_7  and  C_8 
REMARK    6  A    between atoms: C_8  and  C_15 
REMARK    7  A    between atoms: C_13  and  C_14 
REMARK    8  A    between atoms: C_14  and  C_15 
REMARK    9  A    between atoms: C_15  and  N_21 
REMARK   10  A    between atoms: C_18  and  S_19 
ROOT
HETATM    1  C           1     -21.496  -5.337  -5.871  0.00  0.00     0.274 C 
ENDROOT
BRANCH   1   2
HETATM    2  C           1     -21.676  -4.417  -7.054  0.00  0.00     0.249 C 
HETATM    3  N           1     -22.636  -4.688  -7.992  0.00  0.00    -0.344 N 
HETATM    4  H           1     -23.224  -5.506  -7.893  0.00  0.00     0.163 HD
HETATM    5  O           1     -20.973  -3.442  -7.173  0.00  0.00    -0.271 OA
BRANCH   3   6
HETATM    6  C           1     -22.808  -3.804  -9.129  0.00  0.00     0.194 C 
BRANCH   6   7
HETATM    7  C           1     -21.912  -4.266 -10.270  0.00  0.00     0.106 C 
BRANCH   7   8
HETATM    8  S           1     -21.921  -3.020 -11.590  0.00  0.00    -0.180 SA
HETATM    9  H           1     -21.304  -3.784 -12.509  0.00  0.00     0.101 HD
ENDBRANCH   7   8
ENDBRANCH   6   7
BRANCH   6  10
HETATM   10  C           1     -24.249  -3.836  -9.575  0.00  0.00     0.197 C 
HETATM   11  O           1     -24.937  -2.792  -9.544  0.00  0.00    -0.646 OA
HETATM   12  O           1     -24.755  -4.906  -9.977  0.00  0.00    -0.646 OA
ENDBRANCH   6  10
ENDBRANCH   3   6
ENDBRANCH   1   2
BRANCH   1  13
HETATM   13  C           1     -20.629  -6.522  -6.275  0.00  0.00     0.044 C 
BRANCH  13  14
HETATM   14  C           1     -21.128  -7.779  -5.575  0.00  0.00     0.030 C 
BRANCH  14  15
HETATM   15  C           1     -19.967  -8.454  -4.855  0.00  0.00     0.230 C 
BRANCH  15  16
HETATM   16  N           1     -18.950  -8.906  -5.860  0.00  0.00    -0.079 N 
HETATM   17  H           1     -18.002  -8.905  -5.420  0.00  0.00     0.274 HD
HETATM   18  H           1     -19.183  -9.872  -6.182  0.00  0.00     0.274 HD
HETATM   19  H           1     -18.955  -8.256  -6.677  0.00  0.00     0.274 HD
ENDBRANCH  15  16
ENDBRANCH  14  15
ENDBRANCH  13  14
ENDBRANCH   1  13
BRANCH   1  20
HETATM   20  N           1     -22.837  -5.831  -5.415  0.00  0.00    -0.067 N 
HETATM   21  H           1     -23.562  -5.108  -5.617  0.00  0.00     0.275 HD
HETATM   22  H           1     -23.073  -6.714  -5.921  0.00  0.00     0.275 HD
HETATM   23  H           1     -22.808  -6.017  -4.387  0.00  0.00     0.275 HD
ENDBRANCH   1  20
TORSDOF 10
ENDMDL
MODEL 8
REMARK VINA RESULT:      -4.4     14.549     16.551
REMARK  10 active torsions:
REMARK  status: ('A' for Active; 'I' for Inactive)
REMARK    1  A    between atoms: C_2  and  C_18 
REMARK    2  A    between atoms: C_2  and  C_3 
REMARK    3  A    between atoms: C_2  and  N_7 
REMARK    4  A    between atoms: C_4  and  C_13 
REMARK    5  A    between atoms: C_4  and  N_20 
REMARK       I    between atoms: N_7  and  C_8 
REMARK    6  A    between atoms: C_8  and  C_15 
REMARK    7  A    between atoms: C_13  and  C_14 
REMARK    8  A    between atoms: C_14  and  C_15 
REMARK    9  A    between atoms: C_15  and  N_21 
REMARK   10  A    between atoms: C_18  and  S_19 
ROOT
HETATM    1  C           1     -20.484  -4.198  -7.485  0.00  0.00     0.274 C 
ENDROOT
BRANCH   1   2
HETATM    2  C           1     -20.398  -4.958  -6.184  0.00  0.00     0.249 C 
HETATM    3  N           1     -20.768  -6.275  -6.134  0.00  0.00    -0.344 N 
HETATM    4  H           1     -21.099  -6.740  -6.970  0.00  0.00     0.163 HD
HETATM    5  O           1     -20.002  -4.403  -5.186  0.00  0.00    -0.271 OA
BRANCH   3   6
HETATM    6  C           1     -20.684  -7.004  -4.884  0.00  0.00     0.194 C 
BRANCH   6   7
HETATM    7  C           1     -22.034  -6.957  -4.179  0.00  0.00     0.106 C 
BRANCH   7   8
HETATM    8  S           1     -21.811  -6.348  -2.484  0.00  0.00    -0.180 SA
HETATM    9  H           1     -21.703  -5.048  -2.814  0.00  0.00     0.101 HD
ENDBRANCH   7   8
ENDBRANCH   6   7
BRANCH   6  10
HETATM   10  C           1     -20.312  -8.440  -5.163  0.00  0.00     0.197 C 
HETATM   11  O           1     -21.074  -9.364  -4.805  0.00  0.00    -0.646 OA
HETATM   12  O           1     -19.242  -8.704  -5.753  0.00  0.00    -0.646 OA
ENDBRANCH   6  10
ENDBRANCH   3   6
ENDBRANCH   1   2
BRANCH   1  13
HETATM   13  C           1     -21.918  -3.736  -7.710  0.00  0.00     0.044 C 
BRANCH  13  14
HETATM   14  C           1     -22.254  -3.828  -9.193  0.00  0.00     0.030 C 
BRANCH  14  15
HETATM   15  C           1     -23.684  -4.327  -9.360  0.00  0.00     0.230 C 
BRANCH  15  16
HETATM   16  N           1     -24.641  -3.205  -9.085  0.00  0.00    -0.079 N 
HETATM   17  H           1     -25.536  -3.377  -9.596  0.00  0.00     0.274 HD
HETATM   18  H           1     -24.830  -3.153  -8.059  0.00  0.00     0.274 HD
HETATM   19  H           1     -24.223  -2.303  -9.407  0.00  0.00     0.274 HD
ENDBRANCH  15  16
ENDBRANCH  14  15
ENDBRANCH  13  14
ENDBRANCH   1  13
BRANCH   1  20
HETATM   20  N           1     -20.064  -5.092  -8.614  0.00  0.00    -0.067 N 
HETATM   21  H           1     -19.025  -5.197  -8.607  0.00  0.00     0.275 HD
HETATM   22  H           1     -20.510  -6.031  -8.498  0.00  0.00     0.275 HD
HETATM   23  H           1     -20.366  -4.673  -9.522  0.00  0.00     0.275 HD
ENDBRANCH   1  20
TORSDOF 10
ENDMDL
MODEL 9
REMARK VINA RESULT:      -4.4      2.855      3.308
REMARK  10 active torsions:
REMARK  status: ('A' for Active; 'I' for Inactive)
REMARK    1  A    between atoms: C_2  and  C_18 
REMARK    2  A    between atoms: C_2  and  C_3 
REMARK    3  A    between atoms: C_2  and  N_7 
REMARK    4  A    between atoms: C_4  and  C_13 
REMARK    5  A    between atoms: C_4  and  N_20 
REMARK       I    between atoms: N_7  and  C_8 
REMARK    6  A    between atoms: C_8  and  C_15 
REMARK    7  A    between atoms: C_13  and  C_14 
REMARK    8  A    between atoms: C_14  and  C_15 
REMARK    9  A    between atoms: C_15  and  N_21 
REMARK   10  A    between atoms: C_18  and  S_19 
ROOT
HETATM    1  C           1     -33.772  -3.747 -10.948  0.00  0.00     0.274 C 
ENDROOT
BRANCH   1   2
HETATM    2  C           1     -34.207  -2.302 -10.974  0.00  0.00     0.249 C 
HETATM    3  N           1     -35.270  -1.921 -11.748  0.00  0.00    -0.344 N 
HETATM    4  H           1     -35.764  -2.608 -12.303  0.00  0.00     0.163 HD
HETATM    5  O           1     -33.617  -1.482 -10.312  0.00  0.00    -0.271 OA
BRANCH   3   6
HETATM    6  C           1     -35.688  -0.533 -11.772  0.00  0.00     0.194 C 
BRANCH   6   7
HETATM    7  C           1     -36.188  -0.179 -13.167  0.00  0.00     0.106 C 
BRANCH   7   8
HETATM    8  S           1     -34.936   0.818 -14.024  0.00  0.00    -0.180 SA
HETATM    9  H           1     -34.013   0.756 -13.046  0.00  0.00     0.101 HD
ENDBRANCH   7   8
ENDBRANCH   6   7
BRANCH   6  10
HETATM   10  C           1     -36.798  -0.324 -10.771  0.00  0.00     0.197 C 
HETATM   11  O           1     -36.590   0.351  -9.740  0.00  0.00    -0.646 OA
HETATM   12  O           1     -37.924  -0.827 -10.974  0.00  0.00    -0.646 OA
ENDBRANCH   6  10
ENDBRANCH   3   6
ENDBRANCH   1   2
BRANCH   1  13
HETATM   13  C           1     -33.154  -4.117 -12.290  0.00  0.00     0.044 C 
BRANCH  13  14
HETATM   14  C           1     -34.247  -4.590 -13.240  0.00  0.00     0.030 C 
BRANCH  14  15
HETATM   15  C           1     -34.046  -3.947 -14.606  0.00  0.00     0.230 C 
BRANCH  15  16
HETATM   16  N           1     -34.368  -4.943 -15.680  0.00  0.00    -0.079 N 
HETATM   17  H           1     -35.238  -5.461 -15.425  0.00  0.00     0.274 HD
HETATM   18  H           1     -34.512  -4.443 -16.586  0.00  0.00     0.274 HD
HETATM   19  H           1     -33.577  -5.618 -15.778  0.00  0.00     0.274 HD
ENDBRANCH  15  16
ENDBRANCH  14  15
ENDBRANCH  13  14
ENDBRANCH   1  13
BRANCH   1  20
HETATM   20  N           1     -34.962  -4.622 -10.688  0.00  0.00    -0.067 N 
HETATM   21  H           1     -35.831  -4.127 -10.989  0.00  0.00     0.275 HD
HETATM   22  H           1     -34.863  -5.513 -11.226  0.00  0.00     0.275 HD
HETATM   23  H           1     -35.021  -4.837  -9.667  0.00  0.00     0.275 HD
ENDBRANCH   1  20
TORSDOF 10
ENDMDL
