MODEL 1
REMARK VINA RESULT:      -6.2      0.000      0.000
REMARK  10 active torsions:
REMARK  status: ('A' for Active; 'I' for Inactive)
REMARK       I    between atoms: C_4  and  N_5 
REMARK    1  A    between atoms: C_4  and  C_19 
REMARK    2  A    between atoms: N_5  and  C_8 
REMARK    3  A    between atoms: C_8  and  C_20 
REMARK    4  A    between atoms: C_8  and  C_9 
REMARK    5  A    between atoms: N_10  and  C_11 
REMARK    6  A    between atoms: C_11  and  C_21 
REMARK    7  A    between atoms: C_13  and  C_18 
REMARK    8  A    between atoms: N_15  and  C_19 
REMARK    9  A    between atoms: C_18  and  C_19 
REMARK   10  A    between atoms: C_20  and  C_21 
ROOT
HETATM    1  C           1     -22.405  -4.075  -7.946  0.00  0.00     0.249 C 
HETATM    2  N           1     -23.531  -4.094  -8.723  0.00  0.00    -0.345 N 
HETATM    3  O           1     -21.351  -3.718  -8.418  0.00  0.00    -0.271 OA
HETATM    4  H           1     -24.414  -4.393  -8.329  0.00  0.00     0.163 HD
ENDROOT
BRANCH   2   5
HETATM    5  C           1     -23.460  -3.684 -10.113  0.00  0.00     0.185 C 
BRANCH   5   6
HETATM    6  C           1     -22.983  -4.853 -10.962  0.00  0.00     0.038 C 
BRANCH   6   7
HETATM    7  C           1     -21.644  -4.506 -11.600  0.00  0.00     0.030 C 
BRANCH   7   8
HETATM    8  C           1     -21.714  -3.109 -12.202  0.00  0.00     0.230 C 
BRANCH   8   9
HETATM    9  N           1     -22.367  -3.176 -13.551  0.00  0.00    -0.079 N 
HETATM   10  H           1     -21.841  -2.574 -14.223  0.00  0.00     0.274 HD
HETATM   11  H           1     -23.353  -2.838 -13.476  0.00  0.00     0.274 HD
HETATM   12  H           1     -22.363  -4.164 -13.890  0.00  0.00     0.274 HD
ENDBRANCH   8   9
ENDBRANCH   7   8
ENDBRANCH   6   7
ENDBRANCH   5   6
BRANCH   5  13
HETATM   13  C           1     -24.828  -3.247 -10.578  0.00  0.00     0.196 C 
HETATM   14  O           1     -25.745  -3.073  -9.746  0.00  0.00    -0.646 OA
HETATM   15  O           1     -25.044  -3.060 -11.795  0.00  0.00    -0.646 OA
ENDBRANCH   5  13
ENDBRANCH   2   5
BRANCH   1  16
HETATM   16  C           1     -22.478  -4.502  -6.501  0.00  0.00     0.278 C 
BRANCH  16  17
HETATM   17  N           1     -23.829  -5.091  -6.221  0.00  0.00    -0.066 N 
HETATM   18  H           1     -24.307  -5.310  -7.126  0.00  0.00     0.275 HD
HETATM   19  H           1     -23.717  -5.969  -5.665  0.00  0.00     0.275 HD
HETATM   20  H           1     -24.403  -4.406  -5.681  0.00  0.00     0.275 HD
ENDBRANCH  16  17
BRANCH  16  21
HETATM   21  C           1     -21.403  -5.544  -6.223  0.00  0.00     0.021 C 
HETATM   22  C           1     -20.172  -4.862  -5.639  0.00  0.00     0.012 C 
BRANCH  21  23
HETATM   23  C           1     -21.935  -6.569  -5.229  0.00  0.00     0.002 C 
HETATM   24  C           1     -21.268  -7.914  -5.480  0.00  0.00     0.005 C 
ENDBRANCH  21  23
ENDBRANCH  16  21
ENDBRANCH   1  16
TORSDOF 10
ENDMDL
MODEL 2
REMARK VINA RESULT:      -6.2      1.699      2.123
REMARK  10 active torsions:
REMARK  status: ('A' for Active; 'I' for Inactive)
REMARK       I    between atoms: C_4  and  N_5 
REMARK    1  A    between atoms: C_4  and  C_19 
REMARK    2  A    between atoms: N_5  and  C_8 
REMARK    3  A    between atoms: C_8  and  C_20 
REMARK    4  A    between atoms: C_8  and  C_9 
REMARK    5  A    between atoms: N_10  and  C_11 
REMARK    6  A    between atoms: C_11  and  C_21 
REMARK    7  A    between atoms: C_13  and  C_18 
REMARK    8  A    between atoms: N_15  and  C_19 
REMARK    9  A    between atoms: C_18  and  C_19 
REMARK   10  A    between atoms: C_20  and  C_21 
ROOT
HETATM    1  C           1     -21.430  -4.498  -7.990  0.00  0.00     0.249 C 
HETATM    2  N           1     -21.916  -4.732  -9.248  0.00  0.00    -0.345 N 
HETATM    3  O           1     -21.583  -3.415  -7.476  0.00  0.00    -0.271 OA
HETATM    4  H           1     -21.787  -5.638  -9.680  0.00  0.00     0.163 HD
ENDROOT
BRANCH   2   5
HETATM    5  C           1     -22.616  -3.682  -9.962  0.00  0.00     0.185 C 
BRANCH   5   6
HETATM    6  C           1     -22.244  -3.737 -11.438  0.00  0.00     0.038 C 
BRANCH   6   7
HETATM    7  C           1     -22.856  -2.545 -12.162  0.00  0.00     0.030 C 
BRANCH   7   8
HETATM    8  C           1     -23.535  -3.020 -13.440  0.00  0.00     0.230 C 
BRANCH   8   9
HETATM    9  N           1     -22.552  -2.984 -14.573  0.00  0.00    -0.079 N 
HETATM   10  H           1     -22.500  -3.928 -15.018  0.00  0.00     0.274 HD
HETATM   11  H           1     -21.611  -2.717 -14.207  0.00  0.00     0.274 HD
HETATM   12  H           1     -22.863  -2.281 -15.281  0.00  0.00     0.274 HD
ENDBRANCH   8   9
ENDBRANCH   7   8
ENDBRANCH   6   7
ENDBRANCH   5   6
BRANCH   5  13
HETATM   13  C           1     -24.105  -3.878  -9.811  0.00  0.00     0.196 C 
HETATM   14  O           1     -24.616  -4.993 -10.051  0.00  0.00    -0.646 OA
HETATM   15  O           1     -24.827  -2.925  -9.444  0.00  0.00    -0.646 OA
ENDBRANCH   5  13
ENDBRANCH   2   5
BRANCH   1  16
HETATM   16  C           1     -20.701  -5.589  -7.247  0.00  0.00     0.278 C 
BRANCH  16  17
HETATM   17  N           1     -19.337  -5.103  -6.855  0.00  0.00    -0.066 N 
HETATM   18  H           1     -19.317  -4.058  -6.891  0.00  0.00     0.275 HD
HETATM   19  H           1     -19.120  -5.422  -5.883  0.00  0.00     0.275 HD
HETATM   20  H           1     -18.626  -5.488  -7.515  0.00  0.00     0.275 HD
ENDBRANCH  16  17
BRANCH  16  21
HETATM   21  C           1     -21.484  -5.965  -5.997  0.00  0.00     0.021 C 
HETATM   22  C           1     -21.546  -7.482  -5.871  0.00  0.00     0.012 C 
BRANCH  21  23
HETATM   23  C           1     -20.793  -5.382  -4.771  0.00  0.00     0.002 C 
HETATM   24  C           1     -21.307  -6.078  -3.518  0.00  0.00     0.005 C 
ENDBRANCH  21  23
ENDBRANCH  16  21
ENDBRANCH   1  16
TORSDOF 10
ENDMDL
MODEL 3
REMARK VINA RESULT:      -5.8      2.221      6.618
REMARK  10 active torsions:
REMARK  status: ('A' for Active; 'I' for Inactive)
REMARK       I    between atoms: C_4  and  N_5 
REMARK    1  A    between atoms: C_4  and  C_19 
REMARK    2  A    between atoms: N_5  and  C_8 
REMARK    3  A    between atoms: C_8  and  C_20 
REMARK    4  A    between atoms: C_8  and  C_9 
REMARK    5  A    between atoms: N_10  and  C_11 
REMARK    6  A    between atoms: C_11  and  C_21 
REMARK    7  A    between atoms: C_13  and  C_18 
REMARK    8  A    between atoms: N_15  and  C_19 
REMARK    9  A    between atoms: C_18  and  C_19 
REMARK   10  A    between atoms: C_20  and  C_21 
ROOT
HETATM    1  C           1     -22.527  -4.435  -8.720  0.00  0.00     0.249 C 
HETATM    2  N           1     -21.987  -5.496  -8.043  0.00  0.00    -0.345 N 
HETATM    3  O           1     -22.379  -3.312  -8.300  0.00  0.00    -0.271 OA
HETATM    4  H           1     -22.112  -6.437  -8.394  0.00  0.00     0.163 HD
ENDROOT
BRANCH   2   5
HETATM    5  C           1     -21.236  -5.271  -6.823  0.00  0.00     0.185 C 
BRANCH   5   6
HETATM    6  C           1     -21.738  -6.213  -5.738  0.00  0.00     0.038 C 
BRANCH   6   7
HETATM    7  C           1     -21.157  -5.795  -4.392  0.00  0.00     0.030 C 
BRANCH   7   8
HETATM    8  C           1     -21.735  -6.677  -3.293  0.00  0.00     0.230 C 
BRANCH   8   9
HETATM    9  N           1     -22.286  -5.815  -2.197  0.00  0.00    -0.079 N 
HETATM   10  H           1     -23.320  -5.723  -2.313  0.00  0.00     0.274 HD
HETATM   11  H           1     -21.844  -4.870  -2.243  0.00  0.00     0.274 HD
HETATM   12  H           1     -22.077  -6.252  -1.271  0.00  0.00     0.274 HD
ENDBRANCH   8   9
ENDBRANCH   7   8
ENDBRANCH   6   7
ENDBRANCH   5   6
BRANCH   5  13
HETATM   13  C           1     -19.772  -5.531  -7.079  0.00  0.00     0.196 C 
HETATM   14  O           1     -18.985  -4.573  -7.240  0.00  0.00    -0.646 OA
HETATM   15  O           1     -19.345  -6.706  -7.131  0.00  0.00    -0.646 OA
ENDBRANCH   5  13
ENDBRANCH   2   5
BRANCH   1  16
HETATM   16  C           1     -23.309  -4.669  -9.988  0.00  0.00     0.278 C 
BRANCH  16  17
HETATM   17  N           1     -24.757  -4.362  -9.747  0.00  0.00    -0.066 N 
HETATM   18  H           1     -25.346  -5.134 -10.134  0.00  0.00     0.275 HD
HETATM   19  H           1     -24.928  -4.274  -8.719  0.00  0.00     0.275 HD
HETATM   20  H           1     -25.006  -3.464 -10.220  0.00  0.00     0.275 HD
ENDBRANCH  16  17
BRANCH  16  21
HETATM   21  C           1     -22.775  -3.763 -11.089  0.00  0.00     0.021 C 
HETATM   22  C           1     -21.322  -4.116 -11.379  0.00  0.00     0.012 C 
BRANCH  21  23
HETATM   23  C           1     -23.606  -3.955 -12.352  0.00  0.00     0.002 C 
HETATM   24  C           1     -23.846  -2.604 -13.013  0.00  0.00     0.005 C 
ENDBRANCH  21  23
ENDBRANCH  16  21
ENDBRANCH   1  16
TORSDOF 10
ENDMDL
MODEL 4
REMARK VINA RESULT:      -5.7     10.459     12.340
REMARK  10 active torsions:
REMARK  status: ('A' for Active; 'I' for Inactive)
REMARK       I    between atoms: C_4  and  N_5 
REMARK    1  A    between atoms: C_4  and  C_19 
REMARK    2  A    between atoms: N_5  and  C_8 
REMARK    3  A    between atoms: C_8  and  C_20 
REMARK    4  A    between atoms: C_8  and  C_9 
REMARK    5  A    between atoms: N_10  and  C_11 
REMARK    6  A    between atoms: C_11  and  C_21 
REMARK    7  A    between atoms: C_13  and  C_18 
REMARK    8  A    between atoms: N_15  and  C_19 
REMARK    9  A    between atoms: C_18  and  C_19 
REMARK   10  A    between atoms: C_20  and  C_21 
ROOT
HETATM    1  C           1     -26.907  -6.455 -17.962  0.00  0.00     0.249 C 
HETATM    2  N           1     -28.002  -6.893 -18.657  0.00  0.00    -0.345 N 
HETATM    3  O           1     -27.017  -6.133 -16.802  0.00  0.00    -0.271 OA
HETATM    4  H           1     -27.911  -7.162 -19.628  0.00  0.00     0.163 HD
ENDROOT
BRANCH   2   5
HETATM    5  C           1     -29.293  -6.971 -18.001  0.00  0.00     0.185 C 
BRANCH   5   6
HETATM    6  C           1     -29.953  -5.599 -18.014  0.00  0.00     0.038 C 
BRANCH   6   7
HETATM    7  C           1     -30.561  -5.314 -16.647  0.00  0.00     0.030 C 
BRANCH   7   8
HETATM    8  C           1     -31.939  -4.688 -16.824  0.00  0.00     0.230 C 
BRANCH   8   9
HETATM    9  N           1     -32.974  -5.770 -16.912  0.00  0.00    -0.079 N 
HETATM   10  H           1     -33.915  -5.340 -17.056  0.00  0.00     0.274 HD
HETATM   11  H           1     -32.974  -6.323 -16.026  0.00  0.00     0.274 HD
HETATM   12  H           1     -32.752  -6.399 -17.716  0.00  0.00     0.274 HD
ENDBRANCH   8   9
ENDBRANCH   7   8
ENDBRANCH   6   7
ENDBRANCH   5   6
BRANCH   5  13
HETATM   13  C           1     -30.169  -7.959 -18.734  0.00  0.00     0.196 C 
HETATM   14  O           1     -31.411  -7.814 -18.731  0.00  0.00    -0.646 OA
HETATM   15  O           1     -29.653  -8.921 -19.343  0.00  0.00    -0.646 OA
ENDBRANCH   5  13
ENDBRANCH   2   5
BRANCH   1  16
HETATM   16  C           1     -25.564  -6.372 -18.643  0.00  0.00     0.278 C 
BRANCH  16  17
HETATM   17  N           1     -24.555  -7.158 -17.859  0.00  0.00    -0.066 N 
HETATM   18  H           1     -24.871  -8.152 -17.785  0.00  0.00     0.275 HD
HETATM   19  H           1     -23.630  -7.120 -18.344  0.00  0.00     0.275 HD
HETATM   20  H           1     -24.464  -6.750 -16.902  0.00  0.00     0.275 HD
ENDBRANCH  16  17
BRANCH  16  21
HETATM   21  C           1     -25.671  -6.946 -20.049  0.00  0.00     0.021 C 
HETATM   22  C           1     -25.666  -5.811 -21.065  0.00  0.00     0.012 C 
BRANCH  21  23
HETATM   23  C           1     -24.486  -7.867 -20.313  0.00  0.00     0.002 C 
HETATM   24  C           1     -24.234  -7.956 -21.812  0.00  0.00     0.005 C 
ENDBRANCH  21  23
ENDBRANCH  16  21
ENDBRANCH   1  16
TORSDOF 10
ENDMDL
MODEL 5
REMARK VINA RESULT:      -5.6      3.164      7.282
REMARK  10 active torsions:
REMARK  status: ('A' for Active; 'I' for Inactive)
REMARK       I    between atoms: C_4  and  N_5 
REMARK    1  A    between atoms: C_4  and  C_19 
REMARK    2  A    between atoms: N_5  and  C_8 
REMARK    3  A    between atoms: C_8  and  C_20 
REMARK    4  A    between atoms: C_8  and  C_9 
REMARK    5  A    between atoms: N_10  and  C_11 
REMARK    6  A    between atoms: C_11  and  C_21 
REMARK    7  A    between atoms: C_13  and  C_18 
REMARK    8  A    between atoms: N_15  and  C_19 
REMARK    9  A    between atoms: C_18  and  C_19 
REMARK   10  A    between atoms: C_20  and  C_21 
ROOT
HETATM    1  C           1     -21.531  -5.133  -6.693  0.00  0.00     0.249 C 
HETATM    2  N           1     -21.566  -6.388  -6.148  0.00  0.00    -0.345 N 
HETATM    3  O           1     -20.972  -4.236  -6.107  0.00  0.00    -0.271 OA
HETATM    4  H           1     -22.034  -7.139  -6.638  0.00  0.00     0.163 HD
ENDROOT
BRANCH   2   5
HETATM    5  C           1     -20.932  -6.641  -4.868  0.00  0.00     0.185 C 
BRANCH   5   6
HETATM    6  C           1     -22.001  -6.876  -3.811  0.00  0.00     0.038 C 
BRANCH   6   7
HETATM    7  C           1     -21.676  -6.058  -2.567  0.00  0.00     0.030 C 
BRANCH   7   8
HETATM    8  C           1     -22.073  -6.843  -1.323  0.00  0.00     0.230 C 
BRANCH   8   9
HETATM    9  N           1     -21.226  -8.076  -1.218  0.00  0.00    -0.079 N 
HETATM   10  H           1     -20.419  -8.002  -1.877  0.00  0.00     0.274 HD
HETATM   11  H           1     -21.801  -8.914  -1.462  0.00  0.00     0.274 HD
HETATM   12  H           1     -20.870  -8.171  -0.240  0.00  0.00     0.274 HD
ENDBRANCH   8   9
ENDBRANCH   7   8
ENDBRANCH   6   7
ENDBRANCH   5   6
BRANCH   5  13
HETATM   13  C           1     -20.053  -7.864  -4.977  0.00  0.00     0.196 C 
HETATM   14  O           1     -19.422  -8.088  -6.032  0.00  0.00    -0.646 OA
HETATM   15  O           1     -19.956  -8.652  -4.011  0.00  0.00    -0.646 OA
ENDBRANCH   5  13
ENDBRANCH   2   5
BRANCH   1  16
HETATM   16  C           1     -22.191  -4.869  -8.023  0.00  0.00     0.278 C 
BRANCH  16  17
HETATM   17  N           1     -23.481  -4.137  -7.804  0.00  0.00    -0.066 N 
HETATM   18  H           1     -23.295  -3.255  -7.274  0.00  0.00     0.275 HD
HETATM   19  H           1     -23.910  -3.904  -8.729  0.00  0.00     0.275 HD
HETATM   20  H           1     -24.136  -4.740  -7.258  0.00  0.00     0.275 HD
ENDBRANCH  16  17
BRANCH  16  21
HETATM   21  C           1     -21.268  -4.022  -8.889  0.00  0.00     0.021 C 
HETATM   22  C           1     -19.999  -4.806  -9.199  0.00  0.00     0.012 C 
BRANCH  21  23
HETATM   23  C           1     -21.977  -3.670 -10.191  0.00  0.00     0.002 C 
HETATM   24  C           1     -21.047  -3.940 -11.366  0.00  0.00     0.005 C 
ENDBRANCH  21  23
ENDBRANCH  16  21
ENDBRANCH   1  16
TORSDOF 10
ENDMDL
MODEL 6
REMARK VINA RESULT:      -5.5      3.724      7.260
REMARK  10 active torsions:
REMARK  status: ('A' for Active; 'I' for Inactive)
REMARK       I    between atoms: C_4  and  N_5 
REMARK    1  A    between atoms: C_4  and  C_19 
REMARK    2  A    between atoms: N_5  and  C_8 
REMARK    3  A    between atoms: C_8  and  C_20 
REMARK    4  A    between atoms: C_8  and  C_9 
REMARK    5  A    between atoms: N_10  and  C_11 
REMARK    6  A    between atoms: C_11  and  C_21 
REMARK    7  A    between atoms: C_13  and  C_18 
REMARK    8  A    between atoms: N_15  and  C_19 
REMARK    9  A    between atoms: C_18  and  C_19 
REMARK   10  A    between atoms: C_20  and  C_21 
ROOT
HETATM    1  C           1     -21.687  -5.559  -5.799  0.00  0.00     0.249 C 
HETATM    2  N           1     -20.960  -6.403  -5.004  0.00  0.00    -0.345 N 
HETATM    3  O           1     -22.895  -5.610  -5.789  0.00  0.00    -0.271 OA
HETATM    4  H           1     -19.949  -6.361  -5.012  0.00  0.00     0.163 HD
ENDROOT
BRANCH   2   5
HETATM    5  C           1     -21.639  -7.356  -4.147  0.00  0.00     0.185 C 
BRANCH   5   6
HETATM    6  C           1     -20.929  -8.701  -4.223  0.00  0.00     0.038 C 
BRANCH   6   7
HETATM    7  C           1     -19.622  -8.543  -4.989  0.00  0.00     0.030 C 
BRANCH   7   8
HETATM    8  C           1     -18.531  -9.360  -4.307  0.00  0.00     0.230 C 
BRANCH   8   9
HETATM    9  N           1     -18.652  -9.213  -2.819  0.00  0.00    -0.079 N 
HETATM   10  H           1     -19.295  -8.420  -2.599  0.00  0.00     0.274 HD
HETATM   11  H           1     -17.709  -9.021  -2.412  0.00  0.00     0.274 HD
HETATM   12  H           1     -19.035 -10.096  -2.412  0.00  0.00     0.274 HD
ENDBRANCH   8   9
ENDBRANCH   7   8
ENDBRANCH   6   7
ENDBRANCH   5   6
BRANCH   5  13
HETATM   13  C           1     -21.618  -6.856  -2.723  0.00  0.00     0.196 C 
HETATM   14  O           1     -20.831  -7.362  -1.894  0.00  0.00    -0.646 OA
HETATM   15  O           1     -22.388  -5.935  -2.373  0.00  0.00    -0.646 OA
ENDBRANCH   5  13
ENDBRANCH   2   5
BRANCH   1  16
HETATM   16  C           1     -20.982  -4.568  -6.691  0.00  0.00     0.278 C 
BRANCH  16  17
HETATM   17  N           1     -19.498  -4.709  -6.520  0.00  0.00    -0.066 N 
HETATM   18  H           1     -19.010  -4.024  -7.142  0.00  0.00     0.275 HD
HETATM   19  H           1     -19.244  -4.519  -5.524  0.00  0.00     0.275 HD
HETATM   20  H           1     -19.208  -5.679  -6.775  0.00  0.00     0.275 HD
ENDBRANCH  16  17
BRANCH  16  21
HETATM   21  C           1     -21.352  -4.837  -8.143  0.00  0.00     0.021 C 
HETATM   22  C           1     -22.355  -3.791  -8.615  0.00  0.00     0.012 C 
BRANCH  21  23
HETATM   23  C           1     -20.100  -4.764  -9.008  0.00  0.00     0.002 C 
HETATM   24  C           1     -20.480  -4.340 -10.420  0.00  0.00     0.005 C 
ENDBRANCH  21  23
ENDBRANCH  16  21
ENDBRANCH   1  16
TORSDOF 10
ENDMDL
MODEL 7
REMARK VINA RESULT:      -5.2      9.366     11.862
REMARK  10 active torsions:
REMARK  status: ('A' for Active; 'I' for Inactive)
REMARK       I    between atoms: C_4  and  N_5 
REMARK    1  A    between atoms: C_4  and  C_19 
REMARK    2  A    between atoms: N_5  and  C_8 
REMARK    3  A    between atoms: C_8  and  C_20 
REMARK    4  A    between atoms: C_8  and  C_9 
REMARK    5  A    between atoms: N_10  and  C_11 
REMARK    6  A    between atoms: C_11  and  C_21 
REMARK    7  A    between atoms: C_13  and  C_18 
REMARK    8  A    between atoms: N_15  and  C_19 
REMARK    9  A    between atoms: C_18  and  C_19 
REMARK   10  A    between atoms: C_20  and  C_21 
ROOT
HETATM    1  C           1     -28.312  -6.394 -19.134  0.00  0.00     0.249 C 
HETATM    2  N           1     -27.278  -7.233 -19.450  0.00  0.00    -0.345 N 
HETATM    3  O           1     -28.147  -5.197 -19.161  0.00  0.00    -0.271 OA
HETATM    4  H           1     -27.415  -8.236 -19.427  0.00  0.00     0.163 HD
ENDROOT
BRANCH   2   5
HETATM    5  C           1     -25.986  -6.687 -19.817  0.00  0.00     0.185 C 
BRANCH   5   6
HETATM    6  C           1     -25.004  -6.895 -18.672  0.00  0.00     0.038 C 
BRANCH   6   7
HETATM    7  C           1     -25.619  -6.385 -17.375  0.00  0.00     0.030 C 
BRANCH   7   8
HETATM    8  C           1     -25.044  -7.164 -16.199  0.00  0.00     0.230 C 
BRANCH   8   9
HETATM    9  N           1     -23.947  -8.065 -16.683  0.00  0.00    -0.079 N 
HETATM   10  H           1     -23.779  -8.818 -15.979  0.00  0.00     0.274 HD
HETATM   11  H           1     -23.073  -7.508 -16.815  0.00  0.00     0.274 HD
HETATM   12  H           1     -24.226  -8.495 -17.594  0.00  0.00     0.274 HD
ENDBRANCH   8   9
ENDBRANCH   7   8
ENDBRANCH   6   7
ENDBRANCH   5   6
BRANCH   5  13
HETATM   13  C           1     -25.476  -7.388 -21.052  0.00  0.00     0.196 C 
HETATM   14  O           1     -25.964  -8.488 -21.393  0.00  0.00    -0.646 OA
HETATM   15  O           1     -24.566  -6.870 -21.735  0.00  0.00    -0.646 OA
ENDBRANCH   5  13
ENDBRANCH   2   5
BRANCH   1  16
HETATM   16  C           1     -29.656  -6.962 -18.752  0.00  0.00     0.278 C 
BRANCH  16  17
HETATM   17  N           1     -29.560  -8.457 -18.665  0.00  0.00    -0.066 N 
HETATM   18  H           1     -29.460  -8.741 -17.664  0.00  0.00     0.275 HD
HETATM   19  H           1     -30.427  -8.884 -19.064  0.00  0.00     0.275 HD
HETATM   20  H           1     -28.729  -8.785 -19.205  0.00  0.00     0.275 HD
ENDBRANCH  16  17
BRANCH  16  21
HETATM   21  C           1     -30.079  -6.402 -17.401  0.00  0.00     0.021 C 
HETATM   22  C           1     -31.580  -6.590 -17.220  0.00  0.00     0.012 C 
BRANCH  21  23
HETATM   23  C           1     -29.339  -7.138 -16.292  0.00  0.00     0.002 C 
HETATM   24  C           1     -28.740  -6.128 -15.323  0.00  0.00     0.005 C 
ENDBRANCH  21  23
ENDBRANCH  16  21
ENDBRANCH   1  16
TORSDOF 10
ENDMDL
MODEL 8
REMARK VINA RESULT:      -5.2      5.251      8.118
REMARK  10 active torsions:
REMARK  status: ('A' for Active; 'I' for Inactive)
REMARK       I    between atoms: C_4  and  N_5 
REMARK    1  A    between atoms: C_4  and  C_19 
REMARK    2  A    between atoms: N_5  and  C_8 
REMARK    3  A    between atoms: C_8  and  C_20 
REMARK    4  A    between atoms: C_8  and  C_9 
REMARK    5  A    between atoms: N_10  and  C_11 
REMARK    6  A    between atoms: C_11  and  C_21 
REMARK    7  A    between atoms: C_13  and  C_18 
REMARK    8  A    between atoms: N_15  and  C_19 
REMARK    9  A    between atoms: C_18  and  C_19 
REMARK   10  A    between atoms: C_20  and  C_21 
ROOT
HETATM    1  C           1     -21.835 -10.162  -2.848  0.00  0.00     0.249 C 
HETATM    2  N           1     -21.080  -9.025  -2.953  0.00  0.00    -0.345 N 
HETATM    3  O           1     -22.372 -10.623  -3.828  0.00  0.00    -0.271 OA
HETATM    4  H           1     -20.631  -8.638  -2.133  0.00  0.00     0.163 HD
ENDROOT
BRANCH   2   5
HETATM    5  C           1     -20.922  -8.376  -4.240  0.00  0.00     0.185 C 
BRANCH   5   6
HETATM    6  C           1     -21.167  -6.881  -4.087  0.00  0.00     0.038 C 
BRANCH   6   7
HETATM    7  C           1     -22.174  -6.420  -5.134  0.00  0.00     0.030 C 
BRANCH   7   8
HETATM    8  C           1     -21.493  -5.468  -6.109  0.00  0.00     0.230 C 
BRANCH   8   9
HETATM    9  N           1     -20.897  -6.251  -7.241  0.00  0.00    -0.079 N 
HETATM   10  H           1     -21.149  -7.260  -7.137  0.00  0.00     0.274 HD
HETATM   11  H           1     -19.857  -6.147  -7.226  0.00  0.00     0.274 HD
HETATM   12  H           1     -21.270  -5.891  -8.148  0.00  0.00     0.274 HD
ENDBRANCH   8   9
ENDBRANCH   7   8
ENDBRANCH   6   7
ENDBRANCH   5   6
BRANCH   5  13
HETATM   13  C           1     -19.521  -8.607  -4.752  0.00  0.00     0.196 C 
HETATM   14  O           1     -19.253  -8.399  -5.955  0.00  0.00    -0.646 OA
HETATM   15  O           1     -18.629  -9.005  -3.972  0.00  0.00    -0.646 OA
ENDBRANCH   5  13
ENDBRANCH   2   5
BRANCH   1  16
HETATM   16  C           1     -22.000 -10.837  -1.510  0.00  0.00     0.278 C 
BRANCH  16  17
HETATM   17  N           1     -20.701 -10.787  -0.761  0.00  0.00    -0.066 N 
HETATM   18  H           1     -20.302 -11.751  -0.692  0.00  0.00     0.275 HD
HETATM   19  H           1     -20.030 -10.167  -1.269  0.00  0.00     0.275 HD
HETATM   20  H           1     -20.866 -10.410   0.199  0.00  0.00     0.275 HD
ENDBRANCH  16  17
BRANCH  16  21
HETATM   21  C           1     -23.076 -10.120  -0.706  0.00  0.00     0.021 C 
HETATM   22  C           1     -24.004 -11.145  -0.069  0.00  0.00     0.012 C 
BRANCH  21  23
HETATM   23  C           1     -22.421  -9.282   0.385  0.00  0.00     0.002 C 
HETATM   24  C           1     -22.983  -7.868   0.348  0.00  0.00     0.005 C 
ENDBRANCH  21  23
ENDBRANCH  16  21
ENDBRANCH   1  16
TORSDOF 10
ENDMDL
MODEL 9
REMARK VINA RESULT:      -5.1      2.193      6.248
REMARK  10 active torsions:
REMARK  status: ('A' for Active; 'I' for Inactive)
REMARK       I    between atoms: C_4  and  N_5 
REMARK    1  A    between atoms: C_4  and  C_19 
REMARK    2  A    between atoms: N_5  and  C_8 
REMARK    3  A    between atoms: C_8  and  C_20 
REMARK    4  A    between atoms: C_8  and  C_9 
REMARK    5  A    between atoms: N_10  and  C_11 
REMARK    6  A    between atoms: C_11  and  C_21 
REMARK    7  A    between atoms: C_13  and  C_18 
REMARK    8  A    between atoms: N_15  and  C_19 
REMARK    9  A    between atoms: C_18  and  C_19 
REMARK   10  A    between atoms: C_20  and  C_21 
ROOT
HETATM    1  C           1     -22.395  -4.071 -10.344  0.00  0.00     0.249 C 
HETATM    2  N           1     -21.805  -3.792  -9.140  0.00  0.00    -0.345 N 
HETATM    3  O           1     -22.910  -5.148 -10.529  0.00  0.00    -0.271 OA
HETATM    4  H           1     -21.373  -2.891  -8.985  0.00  0.00     0.163 HD
ENDROOT
BRANCH   2   5
HETATM    5  C           1     -21.801  -4.789  -8.087  0.00  0.00     0.185 C 
BRANCH   5   6
HETATM    6  C           1     -20.581  -4.584  -7.200  0.00  0.00     0.038 C 
BRANCH   6   7
HETATM    7  C           1     -19.769  -5.872  -7.145  0.00  0.00     0.030 C 
BRANCH   7   8
HETATM    8  C           1     -20.069  -6.607  -5.845  0.00  0.00     0.230 C 
BRANCH   8   9
HETATM    9  N           1     -21.159  -7.611  -6.077  0.00  0.00    -0.079 N 
HETATM   10  H           1     -21.536  -7.934  -5.158  0.00  0.00     0.274 HD
HETATM   11  H           1     -20.773  -8.428  -6.602  0.00  0.00     0.274 HD
HETATM   12  H           1     -21.926  -7.171  -6.633  0.00  0.00     0.274 HD
ENDBRANCH   8   9
ENDBRANCH   7   8
ENDBRANCH   6   7
ENDBRANCH   5   6
BRANCH   5  13
HETATM   13  C           1     -23.055  -4.651  -7.259  0.00  0.00     0.196 C 
HETATM   14  O           1     -23.076  -5.070  -6.081  0.00  0.00    -0.646 OA
HETATM   15  O           1     -24.073  -4.116  -7.750  0.00  0.00    -0.646 OA
ENDBRANCH   5  13
ENDBRANCH   2   5
BRANCH   1  16
HETATM   16  C           1     -22.399  -3.035 -11.440  0.00  0.00     0.278 C 
BRANCH  16  17
HETATM   17  N           1     -20.995  -2.803 -11.915  0.00  0.00    -0.066 N 
HETATM   18  H           1     -20.327  -3.295 -11.278  0.00  0.00     0.275 HD
HETATM   19  H           1     -20.890  -3.174 -12.886  0.00  0.00     0.275 HD
HETATM   20  H           1     -20.790  -1.778 -11.909  0.00  0.00     0.275 HD
ENDBRANCH  16  17
BRANCH  16  21
HETATM   21  C           1     -23.252  -3.526 -12.602  0.00  0.00     0.021 C 
HETATM   22  C           1     -24.670  -2.991 -12.453  0.00  0.00     0.012 C 
BRANCH  21  23
HETATM   23  C           1     -22.657  -3.030 -13.913  0.00  0.00     0.002 C 
HETATM   24  C           1     -23.519  -1.905 -14.469  0.00  0.00     0.005 C 
ENDBRANCH  21  23
ENDBRANCH  16  21
ENDBRANCH   1  16
TORSDOF 10
ENDMDL
