MODEL 1
REMARK VINA RESULT:      -5.8      0.000      0.000
REMARK  7 active torsions:
REMARK  status: ('A' for Active; 'I' for Inactive)
REMARK    1  A    between atoms: S_2  and  C_8 
REMARK    2  A    between atoms: N_6  and  C_16 
REMARK    3  A    between atoms: C_8  and  C_14 
REMARK    4  A    between atoms: N_9  and  C_13 
REMARK       I    between atoms: N_9  and  C_15 
REMARK    5  A    between atoms: C_12  and  C_13 
REMARK    6  A    between atoms: C_13  and  C_14 
REMARK    7  A    between atoms: C_15  and  C_16 
ROOT
HETATM    1  O           1     -22.937  -2.970 -14.937  0.00  0.00    -0.272 OA
HETATM    2  N           1     -23.544  -2.202 -12.929  0.00  0.00    -0.345 N 
HETATM    3  C           1     -23.459  -2.093 -14.291  0.00  0.00     0.243 C 
HETATM    4  H           1     -23.982  -1.467 -12.389  0.00  0.00     0.163 HD
ENDROOT
BRANCH   2   5
HETATM    5  C           1     -23.007  -3.372 -12.262  0.00  0.00     0.186 C 
BRANCH   5   6
HETATM    6  C           1     -24.049  -3.943 -11.331  0.00  0.00     0.196 C 
HETATM    7  O           1     -24.021  -5.156 -11.030  0.00  0.00    -0.646 OA
HETATM    8  O           1     -24.939  -3.202 -10.861  0.00  0.00    -0.646 OA
ENDBRANCH   5   6
BRANCH   5   9
HETATM    9  C           1     -21.773  -2.977 -11.462  0.00  0.00     0.046 C 
BRANCH   9  10
HETATM   10  C           1     -20.930  -4.214 -11.184  0.00  0.00     0.076 C 
BRANCH  10  11
HETATM   11  S           1     -20.215  -4.099  -9.520  0.00  0.00    -0.173 SA
HETATM   12  C           1     -21.776  -4.316  -8.618  0.00  0.00     0.089 C 
ENDBRANCH  10  11
ENDBRANCH   9  10
ENDBRANCH   5   9
ENDBRANCH   2   5
BRANCH   3  13
HETATM   13  C           1     -24.018  -0.875 -14.986  0.00  0.00     0.332 C 
BRANCH  13  14
HETATM   14  N           1     -23.056  -0.414 -16.040  0.00  0.00    -0.071 N 
HETATM   15  H           1     -22.525  -1.234 -16.410  0.00  0.00     0.274 HD
HETATM   16  H           1     -22.388   0.274 -15.623  0.00  0.00     0.274 HD
HETATM   17  H           1     -23.584   0.039 -16.818  0.00  0.00     0.274 HD
ENDBRANCH  13  14
ENDBRANCH   3  13
TORSDOF 7
ENDMDL
MODEL 2
REMARK VINA RESULT:      -5.5     11.706     12.533
REMARK  7 active torsions:
REMARK  status: ('A' for Active; 'I' for Inactive)
REMARK    1  A    between atoms: S_2  and  C_8 
REMARK    2  A    between atoms: N_6  and  C_16 
REMARK    3  A    between atoms: C_8  and  C_14 
REMARK    4  A    between atoms: N_9  and  C_13 
REMARK       I    between atoms: N_9  and  C_15 
REMARK    5  A    between atoms: C_12  and  C_13 
REMARK    6  A    between atoms: C_13  and  C_14 
REMARK    7  A    between atoms: C_15  and  C_16 
ROOT
HETATM    1  O           1     -35.971  -1.100 -13.918  0.00  0.00    -0.272 OA
HETATM    2  N           1     -34.733  -0.484 -12.164  0.00  0.00    -0.345 N 
HETATM    3  C           1     -35.197  -0.305 -13.439  0.00  0.00     0.243 C 
HETATM    4  H           1     -34.085   0.182 -11.763  0.00  0.00     0.163 HD
ENDROOT
BRANCH   2   5
HETATM    5  C           1     -35.170  -1.628 -11.388  0.00  0.00     0.186 C 
BRANCH   5   6
HETATM    6  C           1     -36.288  -1.212 -10.464  0.00  0.00     0.196 C 
HETATM    7  O           1     -36.026  -0.636  -9.386  0.00  0.00    -0.646 OA
HETATM    8  O           1     -37.476  -1.441 -10.778  0.00  0.00    -0.646 OA
ENDBRANCH   5   6
BRANCH   5   9
HETATM    9  C           1     -34.003  -2.159 -10.566  0.00  0.00     0.046 C 
BRANCH   9  10
HETATM   10  C           1     -33.222  -3.174 -11.389  0.00  0.00     0.076 C 
BRANCH  10  11
HETATM   11  S           1     -34.365  -4.399 -12.086  0.00  0.00    -0.173 SA
HETATM   12  C           1     -34.304  -5.549 -10.683  0.00  0.00     0.089 C 
ENDBRANCH  10  11
ENDBRANCH   9  10
ENDBRANCH   5   9
ENDBRANCH   2   5
BRANCH   3  13
HETATM   13  C           1     -34.742   0.885 -14.247  0.00  0.00     0.332 C 
BRANCH  13  14
HETATM   14  N           1     -35.870   1.364 -15.112  0.00  0.00    -0.071 N 
HETATM   15  H           1     -35.499   2.017 -15.839  0.00  0.00     0.274 HD
HETATM   16  H           1     -36.573   1.865 -14.522  0.00  0.00     0.274 HD
HETATM   17  H           1     -36.324   0.546 -15.577  0.00  0.00     0.274 HD
ENDBRANCH  13  14
ENDBRANCH   3  13
TORSDOF 7
ENDMDL
MODEL 3
REMARK VINA RESULT:      -5.1      1.702      1.917
REMARK  7 active torsions:
REMARK  status: ('A' for Active; 'I' for Inactive)
REMARK    1  A    between atoms: S_2  and  C_8 
REMARK    2  A    between atoms: N_6  and  C_16 
REMARK    3  A    between atoms: C_8  and  C_14 
REMARK    4  A    between atoms: N_9  and  C_13 
REMARK       I    between atoms: N_9  and  C_15 
REMARK    5  A    between atoms: C_12  and  C_13 
REMARK    6  A    between atoms: C_13  and  C_14 
REMARK    7  A    between atoms: C_15  and  C_16 
ROOT
HETATM    1  O           1     -23.979  -4.420 -13.000  0.00  0.00    -0.272 OA
HETATM    2  N           1     -23.056  -2.988 -11.556  0.00  0.00    -0.345 N 
HETATM    3  C           1     -23.505  -3.326 -12.804  0.00  0.00     0.243 C 
HETATM    4  H           1     -22.659  -2.071 -11.393  0.00  0.00     0.163 HD
ENDROOT
BRANCH   2   5
HETATM    5  C           1     -23.150  -3.943 -10.469  0.00  0.00     0.186 C 
BRANCH   5   6
HETATM    6  C           1     -24.531  -3.882  -9.865  0.00  0.00     0.196 C 
HETATM    7  O           1     -25.154  -4.939  -9.623  0.00  0.00    -0.646 OA
HETATM    8  O           1     -25.051  -2.776  -9.605  0.00  0.00    -0.646 OA
ENDBRANCH   5   6
BRANCH   5   9
HETATM    9  C           1     -22.114  -3.603  -9.406  0.00  0.00     0.046 C 
BRANCH   9  10
HETATM   10  C           1     -20.821  -4.351  -9.697  0.00  0.00     0.076 C 
BRANCH  10  11
HETATM   11  S           1     -19.923  -4.637  -8.146  0.00  0.00    -0.173 SA
HETATM   12  C           1     -21.137  -3.833  -7.062  0.00  0.00     0.089 C 
ENDBRANCH  10  11
ENDBRANCH   9  10
ENDBRANCH   5   9
ENDBRANCH   2   5
BRANCH   3  13
HETATM   13  C           1     -23.408  -2.333 -13.936  0.00  0.00     0.332 C 
BRANCH  13  14
HETATM   14  N           1     -22.486  -2.865 -14.992  0.00  0.00    -0.071 N 
HETATM   15  H           1     -22.962  -3.635 -15.515  0.00  0.00     0.274 HD
HETATM   16  H           1     -21.618  -3.236 -14.542  0.00  0.00     0.274 HD
HETATM   17  H           1     -22.235  -2.098 -15.655  0.00  0.00     0.274 HD
ENDBRANCH  13  14
ENDBRANCH   3  13
TORSDOF 7
ENDMDL
MODEL 4
REMARK VINA RESULT:      -5.1      9.079      9.803
REMARK  7 active torsions:
REMARK  status: ('A' for Active; 'I' for Inactive)
REMARK    1  A    between atoms: S_2  and  C_8 
REMARK    2  A    between atoms: N_6  and  C_16 
REMARK    3  A    between atoms: C_8  and  C_14 
REMARK    4  A    between atoms: N_9  and  C_13 
REMARK       I    between atoms: N_9  and  C_15 
REMARK    5  A    between atoms: C_12  and  C_13 
REMARK    6  A    between atoms: C_13  and  C_14 
REMARK    7  A    between atoms: C_15  and  C_16 
ROOT
HETATM    1  O           1     -30.704  -4.335 -17.932  0.00  0.00    -0.272 OA
HETATM    2  N           1     -31.092  -6.316 -16.975  0.00  0.00    -0.345 N 
HETATM    3  C           1     -31.394  -4.999 -17.195  0.00  0.00     0.243 C 
HETATM    4  H           1     -31.671  -6.871 -16.358  0.00  0.00     0.163 HD
ENDROOT
BRANCH   2   5
HETATM    5  C           1     -29.944  -6.914 -17.628  0.00  0.00     0.186 C 
BRANCH   5   6
HETATM    6  C           1     -30.414  -7.886 -18.681  0.00  0.00     0.196 C 
HETATM    7  O           1     -31.616  -7.902 -19.025  0.00  0.00    -0.646 OA
HETATM    8  O           1     -29.602  -8.675 -19.211  0.00  0.00    -0.646 OA
ENDBRANCH   5   6
BRANCH   5   9
HETATM    9  C           1     -29.102  -7.652 -16.595  0.00  0.00     0.046 C 
BRANCH   9  10
HETATM   10  C           1     -28.141  -6.676 -15.930  0.00  0.00     0.076 C 
BRANCH  10  11
HETATM   11  S           1     -26.730  -6.371 -17.030  0.00  0.00    -0.173 SA
HETATM   12  C           1     -25.445  -6.849 -15.840  0.00  0.00     0.089 C 
ENDBRANCH  10  11
ENDBRANCH   9  10
ENDBRANCH   5   9
ENDBRANCH   2   5
BRANCH   3  13
HETATM   13  C           1     -32.589  -4.375 -16.517  0.00  0.00     0.332 C 
BRANCH  13  14
HETATM   14  N           1     -33.121  -3.259 -17.365  0.00  0.00    -0.071 N 
HETATM   15  H           1     -32.480  -3.101 -18.175  0.00  0.00     0.274 HD
HETATM   16  H           1     -33.182  -2.386 -16.793  0.00  0.00     0.274 HD
HETATM   17  H           1     -34.071  -3.513 -17.717  0.00  0.00     0.274 HD
ENDBRANCH  13  14
ENDBRANCH   3  13
TORSDOF 7
ENDMDL
MODEL 5
REMARK VINA RESULT:      -5.0      3.763      6.060
REMARK  7 active torsions:
REMARK  status: ('A' for Active; 'I' for Inactive)
REMARK    1  A    between atoms: S_2  and  C_8 
REMARK    2  A    between atoms: N_6  and  C_16 
REMARK    3  A    between atoms: C_8  and  C_14 
REMARK    4  A    between atoms: N_9  and  C_13 
REMARK       I    between atoms: N_9  and  C_15 
REMARK    5  A    between atoms: C_12  and  C_13 
REMARK    6  A    between atoms: C_13  and  C_14 
REMARK    7  A    between atoms: C_15  and  C_16 
ROOT
HETATM    1  O           1     -21.108  -3.379  -7.046  0.00  0.00    -0.272 OA
HETATM    2  N           1     -22.533  -4.733  -8.107  0.00  0.00    -0.345 N 
HETATM    3  C           1     -21.652  -4.456  -7.096  0.00  0.00     0.243 C 
HETATM    4  H           1     -22.989  -5.635  -8.149  0.00  0.00     0.163 HD
ENDROOT
BRANCH   2   5
HETATM    5  C           1     -22.813  -3.732  -9.118  0.00  0.00     0.186 C 
BRANCH   5   6
HETATM    6  C           1     -24.255  -3.840  -9.548  0.00  0.00     0.196 C 
HETATM    7  O           1     -24.713  -4.939  -9.928  0.00  0.00    -0.646 OA
HETATM    8  O           1     -24.992  -2.831  -9.522  0.00  0.00    -0.646 OA
ENDBRANCH   5   6
BRANCH   5   9
HETATM    9  C           1     -21.906  -3.959 -10.321  0.00  0.00     0.046 C 
BRANCH   9  10
HETATM   10  C           1     -22.078  -2.814 -11.310  0.00  0.00     0.076 C 
BRANCH  10  11
HETATM   11  S           1     -22.558  -3.480 -12.929  0.00  0.00    -0.173 SA
HETATM   12  C           1     -24.165  -2.641 -13.020  0.00  0.00     0.089 C 
ENDBRANCH  10  11
ENDBRANCH   9  10
ENDBRANCH   5   9
ENDBRANCH   2   5
BRANCH   3  13
HETATM   13  C           1     -21.361  -5.498  -6.044  0.00  0.00     0.332 C 
BRANCH  13  14
HETATM   14  N           1     -22.641  -5.909  -5.378  0.00  0.00    -0.071 N 
HETATM   15  H           1     -23.164  -5.058  -5.073  0.00  0.00     0.274 HD
HETATM   16  H           1     -22.424  -6.502  -4.545  0.00  0.00     0.274 HD
HETATM   17  H           1     -23.224  -6.454  -6.052  0.00  0.00     0.274 HD
ENDBRANCH  13  14
ENDBRANCH   3  13
TORSDOF 7
ENDMDL
MODEL 6
REMARK VINA RESULT:      -4.8      4.636      7.172
REMARK  7 active torsions:
REMARK  status: ('A' for Active; 'I' for Inactive)
REMARK    1  A    between atoms: S_2  and  C_8 
REMARK    2  A    between atoms: N_6  and  C_16 
REMARK    3  A    between atoms: C_8  and  C_14 
REMARK    4  A    between atoms: N_9  and  C_13 
REMARK       I    between atoms: N_9  and  C_15 
REMARK    5  A    between atoms: C_12  and  C_13 
REMARK    6  A    between atoms: C_13  and  C_14 
REMARK    7  A    between atoms: C_15  and  C_16 
ROOT
HETATM    1  O           1     -20.847  -6.913  -6.820  0.00  0.00    -0.272 OA
HETATM    2  N           1     -21.556  -4.800  -6.969  0.00  0.00    -0.345 N 
HETATM    3  C           1     -21.140  -5.888  -6.251  0.00  0.00     0.243 C 
HETATM    4  H           1     -21.800  -3.942  -6.492  0.00  0.00     0.163 HD
ENDROOT
BRANCH   2   5
HETATM    5  C           1     -21.645  -4.877  -8.415  0.00  0.00     0.186 C 
BRANCH   5   6
HETATM    6  C           1     -20.347  -4.409  -9.024  0.00  0.00     0.196 C 
HETATM    7  O           1     -20.022  -4.787 -10.171  0.00  0.00    -0.646 OA
HETATM    8  O           1     -19.597  -3.641  -8.384  0.00  0.00    -0.646 OA
ENDBRANCH   5   6
BRANCH   5   9
HETATM    9  C           1     -22.784  -3.990  -8.900  0.00  0.00     0.046 C 
BRANCH   9  10
HETATM   10  C           1     -23.477  -4.654 -10.081  0.00  0.00     0.076 C 
BRANCH  10  11
HETATM   11  S           1     -24.118  -3.378 -11.202  0.00  0.00    -0.173 SA
HETATM   12  C           1     -22.507  -2.862 -11.859  0.00  0.00     0.089 C 
ENDBRANCH  10  11
ENDBRANCH   9  10
ENDBRANCH   5   9
ENDBRANCH   2   5
BRANCH   3  13
HETATM   13  C           1     -21.047  -5.808  -4.747  0.00  0.00     0.332 C 
BRANCH  13  14
HETATM   14  N           1     -22.347  -6.245  -4.140  0.00  0.00    -0.071 N 
HETATM   15  H           1     -23.115  -6.121  -4.837  0.00  0.00     0.274 HD
HETATM   16  H           1     -22.548  -5.666  -3.294  0.00  0.00     0.274 HD
HETATM   17  H           1     -22.283  -7.252  -3.868  0.00  0.00     0.274 HD
ENDBRANCH  13  14
ENDBRANCH   3  13
TORSDOF 7
ENDMDL
MODEL 7
REMARK VINA RESULT:      -4.5      2.399      4.337
REMARK  7 active torsions:
REMARK  status: ('A' for Active; 'I' for Inactive)
REMARK    1  A    between atoms: S_2  and  C_8 
REMARK    2  A    between atoms: N_6  and  C_16 
REMARK    3  A    between atoms: C_8  and  C_14 
REMARK    4  A    between atoms: N_9  and  C_13 
REMARK       I    between atoms: N_9  and  C_15 
REMARK    5  A    between atoms: C_12  and  C_13 
REMARK    6  A    between atoms: C_13  and  C_14 
REMARK    7  A    between atoms: C_15  and  C_16 
ROOT
HETATM    1  O           1     -21.686  -5.083 -11.798  0.00  0.00    -0.272 OA
HETATM    2  N           1     -22.107  -2.967 -12.377  0.00  0.00    -0.345 N 
HETATM    3  C           1     -21.380  -3.918 -11.712  0.00  0.00     0.243 C 
HETATM    4  H           1     -21.851  -1.991 -12.304  0.00  0.00     0.163 HD
ENDROOT
BRANCH   2   5
HETATM    5  C           1     -23.245  -3.361 -13.185  0.00  0.00     0.186 C 
BRANCH   5   6
HETATM    6  C           1     -23.291  -2.514 -14.433  0.00  0.00     0.196 C 
HETATM    7  O           1     -24.111  -1.574 -14.522  0.00  0.00    -0.646 OA
HETATM    8  O           1     -22.509  -2.751 -15.379  0.00  0.00    -0.646 OA
ENDBRANCH   5   6
BRANCH   5   9
HETATM    9  C           1     -24.527  -3.161 -12.388  0.00  0.00     0.046 C 
BRANCH   9  10
HETATM   10  C           1     -24.182  -2.907 -10.927  0.00  0.00     0.076 C 
BRANCH  10  11
HETATM   11  S           1     -24.580  -4.381  -9.945  0.00  0.00    -0.173 SA
HETATM   12  C           1     -23.383  -4.064  -8.618  0.00  0.00     0.089 C 
ENDBRANCH  10  11
ENDBRANCH   9  10
ENDBRANCH   5   9
ENDBRANCH   2   5
BRANCH   3  13
HETATM   13  C           1     -20.196  -3.509 -10.870  0.00  0.00     0.332 C 
BRANCH  13  14
HETATM   14  N           1     -20.017  -4.488  -9.748  0.00  0.00    -0.071 N 
HETATM   15  H           1     -18.998  -4.611  -9.552  0.00  0.00     0.274 HD
HETATM   16  H           1     -20.433  -5.408 -10.020  0.00  0.00     0.274 HD
HETATM   17  H           1     -20.496  -4.128  -8.892  0.00  0.00     0.274 HD
ENDBRANCH  13  14
ENDBRANCH   3  13
TORSDOF 7
ENDMDL
MODEL 8
REMARK VINA RESULT:      -4.5      3.501      5.020
REMARK  7 active torsions:
REMARK  status: ('A' for Active; 'I' for Inactive)
REMARK    1  A    between atoms: S_2  and  C_8 
REMARK    2  A    between atoms: N_6  and  C_16 
REMARK    3  A    between atoms: C_8  and  C_14 
REMARK    4  A    between atoms: N_9  and  C_13 
REMARK       I    between atoms: N_9  and  C_15 
REMARK    5  A    between atoms: C_12  and  C_13 
REMARK    6  A    between atoms: C_13  and  C_14 
REMARK    7  A    between atoms: C_15  and  C_16 
ROOT
HETATM    1  O           1     -23.815  -5.024  -9.864  0.00  0.00    -0.272 OA
HETATM    2  N           1     -22.729  -3.706  -8.424  0.00  0.00    -0.345 N 
HETATM    3  C           1     -23.754  -3.959  -9.297  0.00  0.00     0.243 C 
HETATM    4  H           1     -22.678  -2.815  -7.949  0.00  0.00     0.163 HD
ENDROOT
BRANCH   2   5
HETATM    5  C           1     -21.719  -4.717  -8.181  0.00  0.00     0.186 C 
BRANCH   5   6
HETATM    6  C           1     -21.578  -4.941  -6.696  0.00  0.00     0.196 C 
HETATM    7  O           1     -22.563  -5.317  -6.024  0.00  0.00    -0.646 OA
HETATM    8  O           1     -20.476  -4.751  -6.137  0.00  0.00    -0.646 OA
ENDBRANCH   5   6
BRANCH   5   9
HETATM    9  C           1     -20.387  -4.250  -8.753  0.00  0.00     0.046 C 
BRANCH   9  10
HETATM   10  C           1     -20.322  -4.592 -10.235  0.00  0.00     0.076 C 
BRANCH  10  11
HETATM   11  S           1     -20.538  -3.080 -11.216  0.00  0.00    -0.173 SA
HETATM   12  C           1     -21.880  -3.712 -12.262  0.00  0.00     0.089 C 
ENDBRANCH  10  11
ENDBRANCH   9  10
ENDBRANCH   5   9
ENDBRANCH   2   5
BRANCH   3  13
HETATM   13  C           1     -24.806  -2.908  -9.550  0.00  0.00     0.332 C 
BRANCH  13  14
HETATM   14  N           1     -26.153  -3.560  -9.645  0.00  0.00    -0.071 N 
HETATM   15  H           1     -26.272  -3.976 -10.596  0.00  0.00     0.274 HD
HETATM   16  H           1     -26.898  -2.844  -9.483  0.00  0.00     0.274 HD
HETATM   17  H           1     -26.227  -4.311  -8.924  0.00  0.00     0.274 HD
ENDBRANCH  13  14
ENDBRANCH   3  13
TORSDOF 7
ENDMDL
MODEL 9
REMARK VINA RESULT:      -4.2      6.891      8.998
REMARK  7 active torsions:
REMARK  status: ('A' for Active; 'I' for Inactive)
REMARK    1  A    between atoms: S_2  and  C_8 
REMARK    2  A    between atoms: N_6  and  C_16 
REMARK    3  A    between atoms: C_8  and  C_14 
REMARK    4  A    between atoms: N_9  and  C_13 
REMARK       I    between atoms: N_9  and  C_15 
REMARK    5  A    between atoms: C_12  and  C_13 
REMARK    6  A    between atoms: C_13  and  C_14 
REMARK    7  A    between atoms: C_15  and  C_16 
ROOT
HETATM    1  O           1     -20.084  -4.759  -6.196  0.00  0.00    -0.272 OA
HETATM    2  N           1     -21.911  -5.711  -5.334  0.00  0.00    -0.345 N 
HETATM    3  C           1     -21.280  -4.920  -6.256  0.00  0.00     0.243 C 
HETATM    4  H           1     -22.913  -5.846  -5.384  0.00  0.00     0.163 HD
ENDROOT
BRANCH   2   5
HETATM    5  C           1     -21.144  -6.356  -4.286  0.00  0.00     0.186 C 
BRANCH   5   6
HETATM    6  C           1     -20.816  -7.769  -4.700  0.00  0.00     0.196 C 
HETATM    7  O           1     -19.635  -8.085  -4.962  0.00  0.00    -0.646 OA
HETATM    8  O           1     -21.724  -8.624  -4.779  0.00  0.00    -0.646 OA
ENDBRANCH   5   6
BRANCH   5   9
HETATM    9  C           1     -21.962  -6.379  -3.001  0.00  0.00     0.046 C 
BRANCH   9  10
HETATM   10  C           1     -21.145  -7.024  -1.890  0.00  0.00     0.076 C 
BRANCH  10  11
HETATM   11  S           1     -22.253  -7.566  -0.559  0.00  0.00    -0.173 SA
HETATM   12  C           1     -22.189  -9.336  -0.955  0.00  0.00     0.089 C 
ENDBRANCH  10  11
ENDBRANCH   9  10
ENDBRANCH   5   9
ENDBRANCH   2   5
BRANCH   3  13
HETATM   13  C           1     -22.078  -4.249  -7.346  0.00  0.00     0.332 C 
BRANCH  13  14
HETATM   14  N           1     -23.542  -4.389  -7.055  0.00  0.00    -0.071 N 
HETATM   15  H           1     -23.992  -3.446  -7.071  0.00  0.00     0.274 HD
HETATM   16  H           1     -23.669  -4.818  -6.110  0.00  0.00     0.274 HD
HETATM   17  H           1     -23.984  -4.999  -7.778  0.00  0.00     0.274 HD
ENDBRANCH  13  14
ENDBRANCH   3  13
TORSDOF 7
ENDMDL
