MODEL 1
REMARK VINA RESULT:      -6.3      0.000      0.000
REMARK  8 active torsions:
REMARK  status: ('A' for Active; 'I' for Inactive)
REMARK    1  A    between atoms: C_4  and  C_10 
REMARK    2  A    between atoms: C_4  and  C_20 
REMARK    3  A    between atoms: C_4  and  N_19 
REMARK    4  A    between atoms: Se_9  and  C_10 
REMARK    5  A    between atoms: C_11  and  C_18 
REMARK    6  A    between atoms: C_11  and  C_12 
REMARK    7  A    between atoms: C_11  and  N_16 
REMARK    8  A    between atoms: C_12  and  C_14 
REMARK       I    between atoms: C_18  and  N_19 
ROOT
HETATM    1  H           1     -34.936  -0.684 -11.522  0.00  0.00     0.163 HD
HETATM    2  O           1     -34.440  -3.109 -13.449  0.00  0.00    -0.271 OA
HETATM    3  C           1     -34.336  -2.431 -12.454  0.00  0.00     0.249 C 
HETATM    4  N           1     -35.023  -1.251 -12.355  0.00  0.00    -0.345 N 
ENDROOT
BRANCH   3   5
HETATM    5  C           1     -33.450  -2.887 -11.321  0.00  0.00     0.278 C 
BRANCH   5   6
HETATM    6  C           1     -34.096  -4.072 -10.615  0.00  0.00     0.021 C 
HETATM    7  C           1     -35.604  -4.023 -10.816  0.00  0.00     0.012 C 
BRANCH   6   8
HETATM    8  C           1     -33.549  -5.369 -11.199  0.00  0.00     0.002 C 
HETATM    9  C           1     -34.287  -6.552 -10.586  0.00  0.00     0.005 C 
ENDBRANCH   6   8
ENDBRANCH   5   6
BRANCH   5  10
HETATM   10  N           1     -33.269  -1.764 -10.345  0.00  0.00    -0.066 N 
HETATM   11  H           1     -32.291  -1.772  -9.979  0.00  0.00     0.275 HD
HETATM   12  H           1     -33.939  -1.881  -9.551  0.00  0.00     0.275 HD
HETATM   13  H           1     -33.453  -0.853 -10.824  0.00  0.00     0.275 HD
ENDBRANCH   5  10
ENDBRANCH   3   5
BRANCH   4  14
HETATM   14  C           1     -35.874  -0.814 -13.444  0.00  0.00     0.185 C 
BRANCH  14  15
HETATM   15  C           1     -37.134  -0.173 -12.877  0.00  0.00     0.039 C 
BRANCH  15  16
HETATM   16 Se           1     -36.988  -0.061 -10.936  0.00  0.00     0.000 Se
HETATM   17  H           1     -38.244  -0.786 -10.684  0.00  0.00     0.000 HD
ENDBRANCH  15  16
ENDBRANCH  14  15
BRANCH  14  18
HETATM   18  C           1     -35.133   0.192 -14.289  0.00  0.00     0.196 C 
HETATM   19  O           1     -34.800   1.294 -13.801  0.00  0.00    -0.646 OA
HETATM   20  O           1     -34.850  -0.075 -15.477  0.00  0.00    -0.646 OA
ENDBRANCH  14  18
ENDBRANCH   4  14
TORSDOF 8
ENDMDL
MODEL 2
REMARK VINA RESULT:      -6.2      1.998      2.450
REMARK  8 active torsions:
REMARK  status: ('A' for Active; 'I' for Inactive)
REMARK    1  A    between atoms: C_4  and  C_10 
REMARK    2  A    between atoms: C_4  and  C_20 
REMARK    3  A    between atoms: C_4  and  N_19 
REMARK    4  A    between atoms: Se_9  and  C_10 
REMARK    5  A    between atoms: C_11  and  C_18 
REMARK    6  A    between atoms: C_11  and  C_12 
REMARK    7  A    between atoms: C_11  and  N_16 
REMARK    8  A    between atoms: C_12  and  C_14 
REMARK       I    between atoms: C_18  and  N_19 
ROOT
HETATM    1  H           1     -33.975  -1.198 -14.339  0.00  0.00     0.163 HD
HETATM    2  O           1     -36.442  -1.500 -12.426  0.00  0.00    -0.271 OA
HETATM    3  C           1     -35.290  -1.565 -12.785  0.00  0.00     0.249 C 
HETATM    4  N           1     -34.939  -1.143 -14.039  0.00  0.00    -0.345 N 
ENDROOT
BRANCH   3   5
HETATM    5  C           1     -34.239  -2.111 -11.850  0.00  0.00     0.278 C 
BRANCH   5   6
HETATM    6  C           1     -34.157  -3.624 -12.003  0.00  0.00     0.021 C 
HETATM    7  C           1     -32.702  -4.065 -11.918  0.00  0.00     0.012 C 
BRANCH   6   8
HETATM    8  C           1     -34.955  -4.290 -10.889  0.00  0.00     0.002 C 
HETATM    9  C           1     -34.267  -5.585 -10.477  0.00  0.00     0.005 C 
ENDBRANCH   6   8
ENDBRANCH   5   6
BRANCH   5  10
HETATM   10  N           1     -34.603  -1.771 -10.436  0.00  0.00    -0.066 N 
HETATM   11  H           1     -34.278  -2.533  -9.799  0.00  0.00     0.275 HD
HETATM   12  H           1     -35.640  -1.671 -10.358  0.00  0.00     0.275 HD
HETATM   13  H           1     -34.144  -0.872 -10.165  0.00  0.00     0.275 HD
ENDBRANCH   5  10
ENDBRANCH   3   5
BRANCH   4  14
HETATM   14  C           1     -35.950  -0.618 -14.937  0.00  0.00     0.185 C 
BRANCH  14  15
HETATM   15  C           1     -35.778   0.889 -15.067  0.00  0.00     0.039 C 
BRANCH  15  16
HETATM   16 Se           1     -34.540   1.523 -13.702  0.00  0.00     0.000 Se
HETATM   17  H           1     -35.076   0.650 -12.645  0.00  0.00     0.000 HD
ENDBRANCH  15  16
ENDBRANCH  14  15
BRANCH  14  18
HETATM   18  C           1     -35.801  -1.262 -16.293  0.00  0.00     0.196 C 
HETATM   19  O           1     -34.986  -2.196 -16.456  0.00  0.00    -0.646 OA
HETATM   20  O           1     -36.493  -0.862 -17.254  0.00  0.00    -0.646 OA
ENDBRANCH  14  18
ENDBRANCH   4  14
TORSDOF 8
ENDMDL
MODEL 3
REMARK VINA RESULT:      -5.6     12.746     13.958
REMARK  8 active torsions:
REMARK  status: ('A' for Active; 'I' for Inactive)
REMARK    1  A    between atoms: C_4  and  C_10 
REMARK    2  A    between atoms: C_4  and  C_20 
REMARK    3  A    between atoms: C_4  and  N_19 
REMARK    4  A    between atoms: Se_9  and  C_10 
REMARK    5  A    between atoms: C_11  and  C_18 
REMARK    6  A    between atoms: C_11  and  C_12 
REMARK    7  A    between atoms: C_11  and  N_16 
REMARK    8  A    between atoms: C_12  and  C_14 
REMARK       I    between atoms: C_18  and  N_19 
ROOT
HETATM    1  H           1     -22.476  -5.709  -9.379  0.00  0.00     0.163 HD
HETATM    2  O           1     -21.606  -3.672  -7.159  0.00  0.00    -0.271 OA
HETATM    3  C           1     -21.732  -4.740  -7.710  0.00  0.00     0.249 C 
HETATM    4  N           1     -22.371  -4.815  -8.919  0.00  0.00    -0.345 N 
ENDROOT
BRANCH   3   5
HETATM    5  C           1     -21.184  -5.990  -7.066  0.00  0.00     0.278 C 
BRANCH   5   6
HETATM    6  C           1     -21.419  -5.933  -5.563  0.00  0.00     0.021 C 
HETATM    7  C           1     -22.872  -6.278  -5.263  0.00  0.00     0.012 C 
BRANCH   6   8
HETATM    8  C           1     -20.507  -6.937  -4.868  0.00  0.00     0.002 C 
HETATM    9  C           1     -21.227  -8.273  -4.740  0.00  0.00     0.005 C 
ENDBRANCH   6   8
ENDBRANCH   5   6
BRANCH   5  10
HETATM   10  N           1     -19.713  -6.087  -7.338  0.00  0.00    -0.066 N 
HETATM   11  H           1     -19.188  -5.540  -6.618  0.00  0.00     0.275 HD
HETATM   12  H           1     -19.508  -5.701  -8.287  0.00  0.00     0.275 HD
HETATM   13  H           1     -19.417  -7.089  -7.297  0.00  0.00     0.275 HD
ENDBRANCH   5  10
ENDBRANCH   3   5
BRANCH   4  14
HETATM   14  C           1     -22.897  -3.614  -9.536  0.00  0.00     0.185 C 
BRANCH  14  15
HETATM   15  C           1     -22.291  -3.451 -10.924  0.00  0.00     0.039 C 
BRANCH  15  16
HETATM   16 Se           1     -20.440  -4.061 -10.900  0.00  0.00     0.000 Se
HETATM   17  H           1     -19.890  -2.747 -10.532  0.00  0.00     0.000 HD
ENDBRANCH  15  16
ENDBRANCH  14  15
BRANCH  14  18
HETATM   18  C           1     -24.397  -3.723  -9.651  0.00  0.00     0.196 C 
HETATM   19  O           1     -25.110  -2.704  -9.528  0.00  0.00    -0.646 OA
HETATM   20  O           1     -24.929  -4.834  -9.871  0.00  0.00    -0.646 OA
ENDBRANCH  14  18
ENDBRANCH   4  14
TORSDOF 8
ENDMDL
MODEL 4
REMARK VINA RESULT:      -5.4     12.773     14.029
REMARK  8 active torsions:
REMARK  status: ('A' for Active; 'I' for Inactive)
REMARK    1  A    between atoms: C_4  and  C_10 
REMARK    2  A    between atoms: C_4  and  C_20 
REMARK    3  A    between atoms: C_4  and  N_19 
REMARK    4  A    between atoms: Se_9  and  C_10 
REMARK    5  A    between atoms: C_11  and  C_18 
REMARK    6  A    between atoms: C_11  and  C_12 
REMARK    7  A    between atoms: C_11  and  N_16 
REMARK    8  A    between atoms: C_12  and  C_14 
REMARK       I    between atoms: C_18  and  N_19 
ROOT
HETATM    1  H           1     -22.710  -5.382  -8.544  0.00  0.00     0.163 HD
HETATM    2  O           1     -20.204  -3.711  -9.421  0.00  0.00    -0.271 OA
HETATM    3  C           1     -20.841  -4.534  -8.806  0.00  0.00     0.249 C 
HETATM    4  N           1     -22.177  -4.693  -9.059  0.00  0.00    -0.345 N 
ENDROOT
BRANCH   3   5
HETATM    5  C           1     -20.162  -5.387  -7.763  0.00  0.00     0.278 C 
BRANCH   5   6
HETATM    6  C           1     -21.123  -5.639  -6.608  0.00  0.00     0.021 C 
HETATM    7  C           1     -21.269  -7.139  -6.387  0.00  0.00     0.012 C 
BRANCH   6   8
HETATM    8  C           1     -20.576  -4.992  -5.342  0.00  0.00     0.002 C 
HETATM    9  C           1     -21.000  -5.810  -4.130  0.00  0.00     0.005 C 
ENDBRANCH   6   8
ENDBRANCH   5   6
BRANCH   5  10
HETATM   10  N           1     -18.945  -4.678  -7.252  0.00  0.00    -0.066 N 
HETATM   11  H           1     -18.131  -5.333  -7.257  0.00  0.00     0.275 HD
HETATM   12  H           1     -19.118  -4.345  -6.277  0.00  0.00     0.275 HD
HETATM   13  H           1     -18.734  -3.860  -7.868  0.00  0.00     0.275 HD
ENDBRANCH   5  10
ENDBRANCH   3   5
BRANCH   4  14
HETATM   14  C           1     -22.828  -3.873 -10.062  0.00  0.00     0.185 C 
BRANCH  14  15
HETATM   15  C           1     -22.551  -4.449 -11.444  0.00  0.00     0.039 C 
BRANCH  15  16
HETATM   16 Se           1     -22.792  -3.058 -12.788  0.00  0.00     0.000 Se
HETATM   17  H           1     -21.657  -2.247 -12.320  0.00  0.00     0.000 HD
ENDBRANCH  15  16
ENDBRANCH  14  15
BRANCH  14  18
HETATM   18  C           1     -24.315  -3.858  -9.812  0.00  0.00     0.196 C 
HETATM   19  O           1     -24.964  -4.926  -9.833  0.00  0.00    -0.646 OA
HETATM   20  O           1     -24.900  -2.777  -9.582  0.00  0.00    -0.646 OA
ENDBRANCH  14  18
ENDBRANCH   4  14
TORSDOF 8
ENDMDL
MODEL 5
REMARK VINA RESULT:      -5.4     15.216     16.590
REMARK  8 active torsions:
REMARK  status: ('A' for Active; 'I' for Inactive)
REMARK    1  A    between atoms: C_4  and  C_10 
REMARK    2  A    between atoms: C_4  and  C_20 
REMARK    3  A    between atoms: C_4  and  N_19 
REMARK    4  A    between atoms: Se_9  and  C_10 
REMARK    5  A    between atoms: C_11  and  C_18 
REMARK    6  A    between atoms: C_11  and  C_12 
REMARK    7  A    between atoms: C_11  and  N_16 
REMARK    8  A    between atoms: C_12  and  C_14 
REMARK       I    between atoms: C_18  and  N_19 
ROOT
HETATM    1  H           1     -20.600  -4.662  -4.432  0.00  0.00     0.163 HD
HETATM    2  O           1     -21.993  -7.451  -4.773  0.00  0.00    -0.271 OA
HETATM    3  C           1     -21.476  -6.522  -4.200  0.00  0.00     0.249 C 
HETATM    4  N           1     -21.032  -5.440  -4.912  0.00  0.00    -0.345 N 
ENDROOT
BRANCH   3   5
HETATM    5  C           1     -21.323  -6.552  -2.699  0.00  0.00     0.278 C 
BRANCH   5   6
HETATM    6  C           1     -21.440  -7.988  -2.204  0.00  0.00     0.021 C 
HETATM    7  C           1     -20.049  -8.565  -1.987  0.00  0.00     0.012 C 
BRANCH   6   8
HETATM    8  C           1     -22.208  -8.010  -0.889  0.00  0.00     0.002 C 
HETATM    9  C           1     -21.270  -8.419   0.240  0.00  0.00     0.005 C 
ENDBRANCH   6   8
ENDBRANCH   5   6
BRANCH   5  10
HETATM   10  N           1     -22.399  -5.719  -2.070  0.00  0.00    -0.066 N 
HETATM   11  H           1     -22.127  -4.710  -2.107  0.00  0.00     0.275 HD
HETATM   12  H           1     -22.527  -6.008  -1.075  0.00  0.00     0.275 HD
HETATM   13  H           1     -23.295  -5.855  -2.591  0.00  0.00     0.275 HD
ENDBRANCH   5  10
ENDBRANCH   3   5
BRANCH   4  14
HETATM   14  C           1     -21.179  -5.412  -6.354  0.00  0.00     0.185 C 
BRANCH  14  15
HETATM   15  C           1     -21.664  -4.034  -6.786  0.00  0.00     0.039 C 
BRANCH  15  16
HETATM   16 Se           1     -22.675  -4.191  -8.445  0.00  0.00     0.000 Se
HETATM   17  H           1     -22.132  -5.516  -8.786  0.00  0.00     0.000 HD
ENDBRANCH  15  16
ENDBRANCH  14  15
BRANCH  14  18
HETATM   18  C           1     -19.849  -5.703  -7.001  0.00  0.00     0.196 C 
HETATM   19  O           1     -19.175  -4.772  -7.495  0.00  0.00    -0.646 OA
HETATM   20  O           1     -19.418  -6.876  -7.045  0.00  0.00    -0.646 OA
ENDBRANCH  14  18
ENDBRANCH   4  14
TORSDOF 8
ENDMDL
MODEL 6
REMARK VINA RESULT:      -5.4     13.372     15.143
REMARK  8 active torsions:
REMARK  status: ('A' for Active; 'I' for Inactive)
REMARK    1  A    between atoms: C_4  and  C_10 
REMARK    2  A    between atoms: C_4  and  C_20 
REMARK    3  A    between atoms: C_4  and  N_19 
REMARK    4  A    between atoms: Se_9  and  C_10 
REMARK    5  A    between atoms: C_11  and  C_18 
REMARK    6  A    between atoms: C_11  and  C_12 
REMARK    7  A    between atoms: C_11  and  N_16 
REMARK    8  A    between atoms: C_12  and  C_14 
REMARK       I    between atoms: C_18  and  N_19 
ROOT
HETATM    1  H           1     -22.591  -6.504  -7.600  0.00  0.00     0.163 HD
HETATM    2  O           1     -21.634  -3.538  -7.246  0.00  0.00    -0.271 OA
HETATM    3  C           1     -22.201  -4.478  -7.751  0.00  0.00     0.249 C 
HETATM    4  N           1     -22.117  -5.718  -7.177  0.00  0.00    -0.345 N 
ENDROOT
BRANCH   3   5
HETATM    5  C           1     -23.003  -4.284  -9.015  0.00  0.00     0.278 C 
BRANCH   5   6
HETATM    6  C           1     -22.170  -3.517 -10.034  0.00  0.00     0.021 C 
HETATM    7  C           1     -21.041  -4.405 -10.538  0.00  0.00     0.012 C 
BRANCH   6   8
HETATM    8  C           1     -23.054  -3.108 -11.206  0.00  0.00     0.002 C 
HETATM    9  C           1     -22.299  -3.327 -12.510  0.00  0.00     0.005 C 
ENDBRANCH   6   8
ENDBRANCH   5   6
BRANCH   5  10
HETATM   10  N           1     -24.247  -3.508  -8.702  0.00  0.00    -0.066 N 
HETATM   11  H           1     -25.048  -3.898  -9.248  0.00  0.00     0.275 HD
HETATM   12  H           1     -24.106  -2.505  -8.959  0.00  0.00     0.275 HD
HETATM   13  H           1     -24.455  -3.580  -7.680  0.00  0.00     0.275 HD
ENDBRANCH   5  10
ENDBRANCH   3   5
BRANCH   4  14
HETATM   14  C           1     -21.346  -5.903  -5.963  0.00  0.00     0.185 C 
BRANCH  14  15
HETATM   15  C           1     -22.191  -6.644  -4.935  0.00  0.00     0.039 C 
BRANCH  15  16
HETATM   16 Se           1     -21.546  -6.229  -3.143  0.00  0.00     0.000 Se
HETATM   17  H           1     -22.375  -5.021  -2.998  0.00  0.00     0.000 HD
ENDBRANCH  15  16
ENDBRANCH  14  15
BRANCH  14  18
HETATM   18  C           1     -20.108  -6.707  -6.271  0.00  0.00     0.196 C 
HETATM   19  O           1     -19.324  -6.330  -7.169  0.00  0.00    -0.646 OA
HETATM   20  O           1     -19.864  -7.752  -5.629  0.00  0.00    -0.646 OA
ENDBRANCH  14  18
ENDBRANCH   4  14
TORSDOF 8
ENDMDL
MODEL 7
REMARK VINA RESULT:      -5.2      1.886      2.321
REMARK  8 active torsions:
REMARK  status: ('A' for Active; 'I' for Inactive)
REMARK    1  A    between atoms: C_4  and  C_10 
REMARK    2  A    between atoms: C_4  and  C_20 
REMARK    3  A    between atoms: C_4  and  N_19 
REMARK    4  A    between atoms: Se_9  and  C_10 
REMARK    5  A    between atoms: C_11  and  C_18 
REMARK    6  A    between atoms: C_11  and  C_12 
REMARK    7  A    between atoms: C_11  and  N_16 
REMARK    8  A    between atoms: C_12  and  C_14 
REMARK       I    between atoms: C_18  and  N_19 
ROOT
HETATM    1  H           1     -35.234  -1.824 -12.195  0.00  0.00     0.163 HD
HETATM    2  O           1     -34.629  -3.088 -15.001  0.00  0.00    -0.271 OA
HETATM    3  C           1     -34.682  -3.012 -13.797  0.00  0.00     0.249 C 
HETATM    4  N           1     -35.190  -1.887 -13.204  0.00  0.00    -0.345 N 
ENDROOT
BRANCH   3   5
HETATM    5  C           1     -34.191  -4.158 -12.946  0.00  0.00     0.278 C 
BRANCH   5   6
HETATM    6  C           1     -34.454  -3.851 -11.478  0.00  0.00     0.021 C 
HETATM    7  C           1     -34.661  -5.153 -10.716  0.00  0.00     0.012 C 
BRANCH   6   8
HETATM    8  C           1     -33.260  -3.107 -10.893  0.00  0.00     0.002 C 
HETATM    9  C           1     -33.753  -1.910 -10.089  0.00  0.00     0.005 C 
ENDBRANCH   6   8
ENDBRANCH   5   6
BRANCH   5  10
HETATM   10  N           1     -32.719  -4.343 -13.161  0.00  0.00    -0.066 N 
HETATM   11  H           1     -32.479  -5.358 -13.084  0.00  0.00     0.275 HD
HETATM   12  H           1     -32.191  -3.805 -12.437  0.00  0.00     0.275 HD
HETATM   13  H           1     -32.459  -3.996 -14.112  0.00  0.00     0.275 HD
ENDBRANCH   5  10
ENDBRANCH   3   5
BRANCH   4  14
HETATM   14  C           1     -35.662  -0.787 -14.022  0.00  0.00     0.185 C 
BRANCH  14  15
HETATM   15  C           1     -37.103  -0.461 -13.649  0.00  0.00     0.039 C 
BRANCH  15  16
HETATM   16 Se           1     -38.075   0.103 -15.241  0.00  0.00     0.000 Se
HETATM   17  H           1     -36.861   0.375 -16.027  0.00  0.00     0.000 HD
ENDBRANCH  15  16
ENDBRANCH  14  15
BRANCH  14  18
HETATM   18  C           1     -34.794   0.424 -13.786  0.00  0.00     0.196 C 
HETATM   19  O           1     -34.704   0.915 -12.640  0.00  0.00    -0.646 OA
HETATM   20  O           1     -34.164   0.936 -14.736  0.00  0.00    -0.646 OA
ENDBRANCH  14  18
ENDBRANCH   4  14
TORSDOF 8
ENDMDL
MODEL 8
REMARK VINA RESULT:      -5.2     12.587     14.183
REMARK  8 active torsions:
REMARK  status: ('A' for Active; 'I' for Inactive)
REMARK    1  A    between atoms: C_4  and  C_10 
REMARK    2  A    between atoms: C_4  and  C_20 
REMARK    3  A    between atoms: C_4  and  N_19 
REMARK    4  A    between atoms: Se_9  and  C_10 
REMARK    5  A    between atoms: C_11  and  C_18 
REMARK    6  A    between atoms: C_11  and  C_12 
REMARK    7  A    between atoms: C_11  and  N_16 
REMARK    8  A    between atoms: C_12  and  C_14 
REMARK       I    between atoms: C_18  and  N_19 
ROOT
HETATM    1  H           1     -21.508  -5.284  -9.490  0.00  0.00     0.163 HD
HETATM    2  O           1     -23.699  -4.101  -7.582  0.00  0.00    -0.271 OA
HETATM    3  C           1     -23.218  -4.524  -8.607  0.00  0.00     0.249 C 
HETATM    4  N           1     -21.910  -4.930  -8.632  0.00  0.00    -0.345 N 
ENDROOT
BRANCH   3   5
HETATM    5  C           1     -24.059  -4.608  -9.856  0.00  0.00     0.278 C 
BRANCH   5   6
HETATM    6  C           1     -23.197  -4.293 -11.072  0.00  0.00     0.021 C 
HETATM    7  C           1     -23.665  -5.128 -12.256  0.00  0.00     0.012 C 
BRANCH   6   8
HETATM    8  C           1     -23.324  -2.814 -11.414  0.00  0.00     0.002 C 
HETATM    9  C           1     -23.499  -2.654 -12.918  0.00  0.00     0.005 C 
ENDBRANCH   6   8
ENDBRANCH   5   6
BRANCH   5  10
HETATM   10  N           1     -25.181  -3.618  -9.770  0.00  0.00    -0.066 N 
HETATM   11  H           1     -25.799  -3.859  -8.963  0.00  0.00     0.275 HD
HETATM   12  H           1     -25.737  -3.645 -10.655  0.00  0.00     0.275 HD
HETATM   13  H           1     -24.790  -2.659  -9.634  0.00  0.00     0.275 HD
ENDBRANCH   5  10
ENDBRANCH   3   5
BRANCH   4  14
HETATM   14  C           1     -21.103  -4.849  -7.431  0.00  0.00     0.185 C 
BRANCH  14  15
HETATM   15  C           1     -20.978  -6.235  -6.811  0.00  0.00     0.039 C 
BRANCH  15  16
HETATM   16 Se           1     -21.429  -6.142  -4.917  0.00  0.00     0.000 Se
HETATM   17  H           1     -21.914  -7.530  -4.845  0.00  0.00     0.000 HD
ENDBRANCH  15  16
ENDBRANCH  14  15
BRANCH  14  18
HETATM   18  C           1     -19.731  -4.329  -7.780  0.00  0.00     0.196 C 
HETATM   19  O           1     -18.747  -4.634  -7.073  0.00  0.00    -0.646 OA
HETATM   20  O           1     -19.577  -3.592  -8.779  0.00  0.00    -0.646 OA
ENDBRANCH  14  18
ENDBRANCH   4  14
TORSDOF 8
ENDMDL
MODEL 9
REMARK VINA RESULT:      -5.1     25.287     26.411
REMARK  8 active torsions:
REMARK  status: ('A' for Active; 'I' for Inactive)
REMARK    1  A    between atoms: C_4  and  C_10 
REMARK    2  A    between atoms: C_4  and  C_20 
REMARK    3  A    between atoms: C_4  and  N_19 
REMARK    4  A    between atoms: Se_9  and  C_10 
REMARK    5  A    between atoms: C_11  and  C_18 
REMARK    6  A    between atoms: C_11  and  C_12 
REMARK    7  A    between atoms: C_11  and  N_16 
REMARK    8  A    between atoms: C_12  and  C_14 
REMARK       I    between atoms: C_18  and  N_19 
ROOT
HETATM    1  H           1     -12.085   5.031 -19.490  0.00  0.00     0.163 HD
HETATM    2  O           1     -11.539   6.604 -22.148  0.00  0.00    -0.271 OA
HETATM    3  C           1     -11.400   6.276 -20.994  0.00  0.00     0.249 C 
HETATM    4  N           1     -12.201   5.305 -20.457  0.00  0.00    -0.345 N 
ENDROOT
BRANCH   3   5
HETATM    5  C           1     -10.341   6.936 -20.145  0.00  0.00     0.278 C 
BRANCH   5   6
HETATM    6  C           1     -10.411   8.447 -20.327  0.00  0.00     0.021 C 
HETATM    7  C           1     -10.492   9.120 -18.963  0.00  0.00     0.012 C 
BRANCH   6   8
HETATM    8  C           1      -9.162   8.928 -21.055  0.00  0.00     0.002 C 
HETATM    9  C           1      -9.555   9.506 -22.408  0.00  0.00     0.005 C 
ENDBRANCH   6   8
ENDBRANCH   5   6
BRANCH   5  10
HETATM   10  N           1      -8.988   6.445 -20.563  0.00  0.00    -0.066 N 
HETATM   11  H           1      -9.095   5.628 -21.205  0.00  0.00     0.275 HD
HETATM   12  H           1      -8.446   6.154 -19.718  0.00  0.00     0.275 HD
HETATM   13  H           1      -8.477   7.211 -21.057  0.00  0.00     0.275 HD
ENDBRANCH   5  10
ENDBRANCH   3   5
BRANCH   4  14
HETATM   14  C           1     -13.218   4.672 -21.273  0.00  0.00     0.185 C 
BRANCH  14  15
HETATM   15  C           1     -13.103   3.158 -21.142  0.00  0.00     0.039 C 
BRANCH  15  16
HETATM   16 Se           1     -11.257   2.680 -20.739  0.00  0.00     0.000 Se
HETATM   17  H           1     -10.679   3.819 -21.471  0.00  0.00     0.000 HD
ENDBRANCH  15  16
ENDBRANCH  14  15
BRANCH  14  18
HETATM   18  C           1     -14.583   5.114 -20.810  0.00  0.00     0.196 C 
HETATM   19  O           1     -14.806   5.284 -19.591  0.00  0.00    -0.646 OA
HETATM   20  O           1     -15.494   5.313 -21.644  0.00  0.00    -0.646 OA
ENDBRANCH  14  18
ENDBRANCH   4  14
TORSDOF 8
ENDMDL
