MODEL 1
REMARK VINA RESULT:      -5.7      0.000      0.000
REMARK  6 active torsions:
REMARK  status: ('A' for Active; 'I' for Inactive)
REMARK    1  A    between atoms: C_2  and  C_14 
REMARK    2  A    between atoms: N_5  and  C_7 
REMARK    3  A    between atoms: C_7  and  C_8 
REMARK       I    between atoms: C_8  and  N_9 
REMARK    4  A    between atoms: N_9  and  C_13 
REMARK    5  A    between atoms: C_12  and  C_13 
REMARK    6  A    between atoms: C_13  and  C_14 
ROOT
HETATM    1  O           1     -21.573  -3.152  -7.272  0.00  0.00    -0.271 OA
HETATM    2  H           1     -22.494  -5.773  -8.728  0.00  0.00     0.163 HD
HETATM    3  C           1     -21.747  -4.335  -7.441  0.00  0.00     0.248 C 
HETATM    4  N           1     -22.349  -4.782  -8.586  0.00  0.00    -0.344 N 
ENDROOT
BRANCH   4   5
HETATM    5  C           1     -22.780  -3.834  -9.595  0.00  0.00     0.195 C 
BRANCH   5   6
HETATM    6  C           1     -24.286  -3.846  -9.685  0.00  0.00     0.197 C 
HETATM    7  O           1     -24.891  -4.917  -9.908  0.00  0.00    -0.646 OA
HETATM    8  O           1     -24.930  -2.785  -9.536  0.00  0.00    -0.646 OA
ENDBRANCH   5   6
BRANCH   5   9
HETATM    9  C           1     -22.187  -4.224 -10.943  0.00  0.00     0.149 C 
BRANCH   9  10
HETATM   10  C           1     -20.699  -3.973 -10.929  0.00  0.00     0.175 C 
HETATM   11  O           1     -19.917  -4.871 -10.548  0.00  0.00    -0.648 OA
HETATM   12  O           1     -20.248  -2.867 -11.300  0.00  0.00    -0.648 OA
ENDBRANCH   9  10
ENDBRANCH   5   9
ENDBRANCH   4   5
BRANCH   3  13
HETATM   13  C           1     -21.298  -5.321  -6.390  0.00  0.00     0.270 C 
HETATM   14  C           1     -20.181  -4.705  -5.559  0.00  0.00     0.050 C 
BRANCH  13  15
HETATM   15  N           1     -20.795  -6.567  -7.057  0.00  0.00    -0.067 N 
HETATM   16  H           1     -20.296  -6.314  -7.939  0.00  0.00     0.275 HD
HETATM   17  H           1     -20.137  -7.063  -6.414  0.00  0.00     0.275 HD
HETATM   18  H           1     -21.603  -7.192  -7.280  0.00  0.00     0.275 HD
ENDBRANCH  13  15
ENDBRANCH   3  13
TORSDOF 6
ENDMDL
MODEL 2
REMARK VINA RESULT:      -5.5     13.526     15.233
REMARK  6 active torsions:
REMARK  status: ('A' for Active; 'I' for Inactive)
REMARK    1  A    between atoms: C_2  and  C_14 
REMARK    2  A    between atoms: N_5  and  C_7 
REMARK    3  A    between atoms: C_7  and  C_8 
REMARK       I    between atoms: C_8  and  N_9 
REMARK    4  A    between atoms: N_9  and  C_13 
REMARK    5  A    between atoms: C_12  and  C_13 
REMARK    6  A    between atoms: C_13  and  C_14 
ROOT
HETATM    1  O           1     -37.952  -1.029 -10.927  0.00  0.00    -0.271 OA
HETATM    2  H           1     -35.118   0.284 -10.637  0.00  0.00     0.163 HD
HETATM    3  C           1     -37.050  -0.419 -10.403  0.00  0.00     0.248 C 
HETATM    4  N           1     -35.874  -0.227 -11.075  0.00  0.00    -0.344 N 
ENDROOT
BRANCH   4   5
HETATM    5  C           1     -35.708  -0.757 -12.415  0.00  0.00     0.195 C 
BRANCH   5   6
HETATM    6  C           1     -34.710  -1.887 -12.388  0.00  0.00     0.197 C 
HETATM    7  O           1     -34.630  -2.674 -13.357  0.00  0.00    -0.646 OA
HETATM    8  O           1     -33.961  -2.038 -11.399  0.00  0.00    -0.646 OA
ENDBRANCH   5   6
BRANCH   5   9
HETATM    9  C           1     -35.205   0.345 -13.338  0.00  0.00     0.149 C 
BRANCH   9  10
HETATM   10  C           1     -36.014   0.343 -14.612  0.00  0.00     0.175 C 
HETATM   11  O           1     -36.894  -0.526 -14.792  0.00  0.00    -0.648 OA
HETATM   12  O           1     -35.803   1.210 -15.488  0.00  0.00    -0.648 OA
ENDBRANCH   9  10
ENDBRANCH   5   9
ENDBRANCH   4   5
BRANCH   3  13
HETATM   13  C           1     -37.223   0.132  -9.010  0.00  0.00     0.270 C 
HETATM   14  C           1     -37.842   1.521  -9.085  0.00  0.00     0.050 C 
BRANCH  13  15
HETATM   15  N           1     -35.885   0.217  -8.336  0.00  0.00    -0.067 N 
HETATM   16  H           1     -35.320   0.977  -8.777  0.00  0.00     0.275 HD
HETATM   17  H           1     -36.019   0.427  -7.322  0.00  0.00     0.275 HD
HETATM   18  H           1     -35.384  -0.694  -8.442  0.00  0.00     0.275 HD
ENDBRANCH  13  15
ENDBRANCH   3  13
TORSDOF 6
ENDMDL
MODEL 3
REMARK VINA RESULT:      -5.5      1.475      3.221
REMARK  6 active torsions:
REMARK  status: ('A' for Active; 'I' for Inactive)
REMARK    1  A    between atoms: C_2  and  C_14 
REMARK    2  A    between atoms: N_5  and  C_7 
REMARK    3  A    between atoms: C_7  and  C_8 
REMARK       I    between atoms: C_8  and  N_9 
REMARK    4  A    between atoms: N_9  and  C_13 
REMARK    5  A    between atoms: C_12  and  C_13 
REMARK    6  A    between atoms: C_13  and  C_14 
ROOT
HETATM    1  O           1     -20.270  -4.993  -8.929  0.00  0.00    -0.271 OA
HETATM    2  H           1     -22.988  -3.451  -9.200  0.00  0.00     0.163 HD
HETATM    3  C           1     -21.237  -4.359  -8.577  0.00  0.00     0.248 C 
HETATM    4  N           1     -22.179  -3.982  -9.495  0.00  0.00    -0.344 N 
ENDROOT
BRANCH   4   5
HETATM    5  C           1     -22.016  -4.340 -10.890  0.00  0.00     0.195 C 
BRANCH   5   6
HETATM    6  C           1     -21.499  -3.149 -11.658  0.00  0.00     0.197 C 
HETATM    7  O           1     -22.173  -2.669 -12.596  0.00  0.00    -0.646 OA
HETATM    8  O           1     -20.397  -2.640 -11.357  0.00  0.00    -0.646 OA
ENDBRANCH   5   6
BRANCH   5   9
HETATM    9  C           1     -23.359  -4.770 -11.464  0.00  0.00     0.149 C 
BRANCH   9  10
HETATM   10  C           1     -24.472  -4.221 -10.605  0.00  0.00     0.175 C 
HETATM   11  O           1     -24.910  -4.890  -9.644  0.00  0.00    -0.648 OA
HETATM   12  O           1     -24.957  -3.095 -10.855  0.00  0.00    -0.648 OA
ENDBRANCH   9  10
ENDBRANCH   5   9
ENDBRANCH   4   5
BRANCH   3  13
HETATM   13  C           1     -21.406  -3.987  -7.125  0.00  0.00     0.270 C 
HETATM   14  C           1     -20.342  -4.689  -6.292  0.00  0.00     0.050 C 
BRANCH  13  15
HETATM   15  N           1     -22.767  -4.410  -6.655  0.00  0.00    -0.067 N 
HETATM   16  H           1     -23.348  -3.564  -6.465  0.00  0.00     0.275 HD
HETATM   17  H           1     -23.225  -4.989  -7.394  0.00  0.00     0.275 HD
HETATM   18  H           1     -22.673  -4.972  -5.778  0.00  0.00     0.275 HD
ENDBRANCH  13  15
ENDBRANCH   3  13
TORSDOF 6
ENDMDL
MODEL 4
REMARK VINA RESULT:      -5.5      1.379      1.938
REMARK  6 active torsions:
REMARK  status: ('A' for Active; 'I' for Inactive)
REMARK    1  A    between atoms: C_2  and  C_14 
REMARK    2  A    between atoms: N_5  and  C_7 
REMARK    3  A    between atoms: C_7  and  C_8 
REMARK       I    between atoms: C_8  and  N_9 
REMARK    4  A    between atoms: N_9  and  C_13 
REMARK    5  A    between atoms: C_12  and  C_13 
REMARK    6  A    between atoms: C_13  and  C_14 
ROOT
HETATM    1  O           1     -21.580  -3.260  -7.487  0.00  0.00    -0.271 OA
HETATM    2  H           1     -22.212  -5.870  -9.107  0.00  0.00     0.163 HD
HETATM    3  C           1     -21.615  -4.442  -7.734  0.00  0.00     0.248 C 
HETATM    4  N           1     -22.183  -4.880  -8.899  0.00  0.00    -0.344 N 
ENDROOT
BRANCH   4   5
HETATM    5  C           1     -22.745  -3.927  -9.836  0.00  0.00     0.195 C 
BRANCH   5   6
HETATM    6  C           1     -24.244  -3.889  -9.676  0.00  0.00     0.197 C 
HETATM    7  O           1     -24.820  -2.805  -9.438  0.00  0.00    -0.646 OA
HETATM    8  O           1     -24.912  -4.940  -9.782  0.00  0.00    -0.646 OA
ENDBRANCH   5   6
BRANCH   5   9
HETATM    9  C           1     -22.395  -4.346 -11.258  0.00  0.00     0.149 C 
BRANCH   9  10
HETATM   10  C           1     -22.987  -3.359 -12.234  0.00  0.00     0.175 C 
HETATM   11  O           1     -22.648  -2.156 -12.190  0.00  0.00    -0.648 OA
HETATM   12  O           1     -23.817  -3.743 -13.087  0.00  0.00    -0.648 OA
ENDBRANCH   9  10
ENDBRANCH   5   9
ENDBRANCH   4   5
BRANCH   3  13
HETATM   13  C           1     -21.030  -5.433  -6.759  0.00  0.00     0.270 C 
HETATM   14  C           1     -20.372  -4.687  -5.607  0.00  0.00     0.050 C 
BRANCH  13  15
HETATM   15  N           1     -20.004  -6.276  -7.458  0.00  0.00    -0.067 N 
HETATM   16  H           1     -20.426  -7.196  -7.717  0.00  0.00     0.275 HD
HETATM   17  H           1     -19.681  -5.785  -8.322  0.00  0.00     0.275 HD
HETATM   18  H           1     -19.191  -6.434  -6.820  0.00  0.00     0.275 HD
ENDBRANCH  13  15
ENDBRANCH   3  13
TORSDOF 6
ENDMDL
MODEL 5
REMARK VINA RESULT:      -5.2      2.389      4.698
REMARK  6 active torsions:
REMARK  status: ('A' for Active; 'I' for Inactive)
REMARK    1  A    between atoms: C_2  and  C_14 
REMARK    2  A    between atoms: N_5  and  C_7 
REMARK    3  A    between atoms: C_7  and  C_8 
REMARK       I    between atoms: C_8  and  N_9 
REMARK    4  A    between atoms: N_9  and  C_13 
REMARK    5  A    between atoms: C_12  and  C_13 
REMARK    6  A    between atoms: C_13  and  C_14 
ROOT
HETATM    1  O           1     -23.555  -4.821 -10.706  0.00  0.00    -0.271 OA
HETATM    2  H           1     -21.083  -2.964 -10.181  0.00  0.00     0.163 HD
HETATM    3  C           1     -22.778  -3.915 -10.891  0.00  0.00     0.248 C 
HETATM    4  N           1     -21.733  -3.723 -10.027  0.00  0.00    -0.344 N 
ENDROOT
BRANCH   4   5
HETATM    5  C           1     -21.561  -4.606  -8.890  0.00  0.00     0.195 C 
BRANCH   5   6
HETATM    6  C           1     -22.181  -3.977  -7.666  0.00  0.00     0.197 C 
HETATM    7  O           1     -21.661  -2.961  -7.154  0.00  0.00    -0.646 OA
HETATM    8  O           1     -23.213  -4.470  -7.164  0.00  0.00    -0.646 OA
ENDBRANCH   5   6
BRANCH   5   9
HETATM    9  C           1     -20.075  -4.835  -8.646  0.00  0.00     0.149 C 
BRANCH   9  10
HETATM   10  C           1     -19.886  -5.558  -7.335  0.00  0.00     0.175 C 
HETATM   11  O           1     -20.362  -6.703  -7.177  0.00  0.00    -0.648 OA
HETATM   12  O           1     -19.252  -5.012  -6.406  0.00  0.00    -0.648 OA
ENDBRANCH   9  10
ENDBRANCH   5   9
ENDBRANCH   4   5
BRANCH   3  13
HETATM   13  C           1     -22.957  -2.997 -12.074  0.00  0.00     0.270 C 
HETATM   14  C           1     -24.415  -3.008 -12.511  0.00  0.00     0.050 C 
BRANCH  13  15
HETATM   15  N           1     -22.093  -3.466 -13.207  0.00  0.00    -0.067 N 
HETATM   16  H           1     -21.112  -3.143 -13.054  0.00  0.00     0.275 HD
HETATM   17  H           1     -22.114  -4.510 -13.250  0.00  0.00     0.275 HD
HETATM   18  H           1     -22.453  -3.071 -14.105  0.00  0.00     0.275 HD
ENDBRANCH  13  15
ENDBRANCH   3  13
TORSDOF 6
ENDMDL
MODEL 6
REMARK VINA RESULT:      -5.1      2.195      4.925
REMARK  6 active torsions:
REMARK  status: ('A' for Active; 'I' for Inactive)
REMARK    1  A    between atoms: C_2  and  C_14 
REMARK    2  A    between atoms: N_5  and  C_7 
REMARK    3  A    between atoms: C_7  and  C_8 
REMARK       I    between atoms: C_8  and  N_9 
REMARK    4  A    between atoms: N_9  and  C_13 
REMARK    5  A    between atoms: C_12  and  C_13 
REMARK    6  A    between atoms: C_13  and  C_14 
ROOT
HETATM    1  O           1     -22.696  -2.959  -9.242  0.00  0.00    -0.271 OA
HETATM    2  H           1     -22.286  -5.799  -7.975  0.00  0.00     0.163 HD
HETATM    3  C           1     -22.905  -4.129  -9.030  0.00  0.00     0.248 C 
HETATM    4  N           1     -22.111  -4.818  -8.153  0.00  0.00    -0.344 N 
ENDROOT
BRANCH   4   5
HETATM    5  C           1     -21.017  -4.144  -7.482  0.00  0.00     0.195 C 
BRANCH   5   6
HETATM    6  C           1     -19.730  -4.418  -8.217  0.00  0.00     0.197 C 
HETATM    7  O           1     -19.752  -4.689  -9.438  0.00  0.00    -0.646 OA
HETATM    8  O           1     -18.639  -4.375  -7.608  0.00  0.00    -0.646 OA
ENDBRANCH   5   6
BRANCH   5   9
HETATM    9  C           1     -20.906  -4.657  -6.052  0.00  0.00     0.149 C 
BRANCH   9  10
HETATM   10  C           1     -21.632  -5.975  -5.933  0.00  0.00     0.175 C 
HETATM   11  O           1     -21.135  -7.010  -6.427  0.00  0.00    -0.648 OA
HETATM   12  O           1     -22.732  -6.031  -5.339  0.00  0.00    -0.648 OA
ENDBRANCH   9  10
ENDBRANCH   5   9
ENDBRANCH   4   5
BRANCH   3  13
HETATM   13  C           1     -24.044  -4.831  -9.728  0.00  0.00     0.270 C 
HETATM   14  C           1     -23.695  -5.029 -11.197  0.00  0.00     0.050 C 
BRANCH  13  15
HETATM   15  N           1     -25.287  -3.998  -9.619  0.00  0.00    -0.067 N 
HETATM   16  H           1     -26.079  -4.490 -10.090  0.00  0.00     0.275 HD
HETATM   17  H           1     -25.519  -3.851  -8.610  0.00  0.00     0.275 HD
HETATM   18  H           1     -25.128  -3.073 -10.080  0.00  0.00     0.275 HD
ENDBRANCH  13  15
ENDBRANCH   3  13
TORSDOF 6
ENDMDL
MODEL 7
REMARK VINA RESULT:      -4.8     13.124     14.810
REMARK  6 active torsions:
REMARK  status: ('A' for Active; 'I' for Inactive)
REMARK    1  A    between atoms: C_2  and  C_14 
REMARK    2  A    between atoms: N_5  and  C_7 
REMARK    3  A    between atoms: C_7  and  C_8 
REMARK       I    between atoms: C_8  and  N_9 
REMARK    4  A    between atoms: N_9  and  C_13 
REMARK    5  A    between atoms: C_12  and  C_13 
REMARK    6  A    between atoms: C_13  and  C_14 
ROOT
HETATM    1  O           1     -35.746   0.027  -8.540  0.00  0.00    -0.271 OA
HETATM    2  H           1     -37.889  -1.368 -10.357  0.00  0.00     0.163 HD
HETATM    3  C           1     -36.844  -0.286  -8.936  0.00  0.00     0.248 C 
HETATM    4  N           1     -36.970  -1.105 -10.026  0.00  0.00    -0.344 N 
ENDROOT
BRANCH   4   5
HETATM    5  C           1     -35.786  -1.594 -10.706  0.00  0.00     0.195 C 
BRANCH   5   6
HETATM    6  C           1     -35.643  -0.893 -12.033  0.00  0.00     0.197 C 
HETATM    7  O           1     -35.978  -1.476 -13.088  0.00  0.00    -0.646 OA
HETATM    8  O           1     -35.191   0.271 -12.081  0.00  0.00    -0.646 OA
ENDBRANCH   5   6
BRANCH   5   9
HETATM    9  C           1     -35.917  -3.094 -10.934  0.00  0.00     0.149 C 
BRANCH   9  10
HETATM   10  C           1     -34.545  -3.724 -10.938  0.00  0.00     0.175 C 
HETATM   11  O           1     -33.598  -3.163 -10.346  0.00  0.00    -0.648 OA
HETATM   12  O           1     -34.356  -4.808 -11.532  0.00  0.00    -0.648 OA
ENDBRANCH   9  10
ENDBRANCH   5   9
ENDBRANCH   4   5
BRANCH   3  13
HETATM   13  C           1     -38.075   0.223  -8.228  0.00  0.00     0.270 C 
HETATM   14  C           1     -38.075   1.745  -8.238  0.00  0.00     0.050 C 
BRANCH  13  15
HETATM   15  N           1     -38.075  -0.267  -6.810  0.00  0.00    -0.067 N 
HETATM   16  H           1     -37.265  -0.910  -6.663  0.00  0.00     0.275 HD
HETATM   17  H           1     -37.996   0.548  -6.161  0.00  0.00     0.275 HD
HETATM   18  H           1     -38.965  -0.781  -6.620  0.00  0.00     0.275 HD
ENDBRANCH  13  15
ENDBRANCH   3  13
TORSDOF 6
ENDMDL
MODEL 8
REMARK VINA RESULT:      -4.8      4.342      6.508
REMARK  6 active torsions:
REMARK  status: ('A' for Active; 'I' for Inactive)
REMARK    1  A    between atoms: C_2  and  C_14 
REMARK    2  A    between atoms: N_5  and  C_7 
REMARK    3  A    between atoms: C_7  and  C_8 
REMARK       I    between atoms: C_8  and  N_9 
REMARK    4  A    between atoms: N_9  and  C_13 
REMARK    5  A    between atoms: C_12  and  C_13 
REMARK    6  A    between atoms: C_13  and  C_14 
ROOT
HETATM    1  O           1     -22.551  -5.614  -5.645  0.00  0.00    -0.271 OA
HETATM    2  H           1     -19.834  -6.876  -4.714  0.00  0.00     0.163 HD
HETATM    3  C           1     -21.358  -5.799  -5.609  0.00  0.00     0.248 C 
HETATM    4  N           1     -20.834  -6.721  -4.744  0.00  0.00    -0.344 N 
ENDROOT
BRANCH   4   5
HETATM    5  C           1     -21.711  -7.475  -3.869  0.00  0.00     0.195 C 
BRANCH   5   6
HETATM    6  C           1     -21.652  -6.895  -2.478  0.00  0.00     0.197 C 
HETATM    7  O           1     -20.930  -7.430  -1.608  0.00  0.00    -0.646 OA
HETATM    8  O           1     -22.324  -5.880  -2.194  0.00  0.00    -0.646 OA
ENDBRANCH   5   6
BRANCH   5   9
HETATM    9  C           1     -21.262  -8.930  -3.833  0.00  0.00     0.149 C 
BRANCH   9  10
HETATM   10  C           1     -19.953  -9.072  -4.570  0.00  0.00     0.175 C 
HETATM   11  O           1     -18.873  -8.917  -3.961  0.00  0.00    -0.648 OA
HETATM   12  O           1     -19.949  -9.344  -5.791  0.00  0.00    -0.648 OA
ENDBRANCH   9  10
ENDBRANCH   5   9
ENDBRANCH   4   5
BRANCH   3  13
HETATM   13  C           1     -20.447  -5.014  -6.520  0.00  0.00     0.270 C 
HETATM   14  C           1     -21.209  -3.838  -7.114  0.00  0.00     0.050 C 
BRANCH  13  15
HETATM   15  N           1     -19.959  -5.903  -7.626  0.00  0.00    -0.067 N 
HETATM   16  H           1     -20.738  -6.083  -8.298  0.00  0.00     0.275 HD
HETATM   17  H           1     -19.169  -5.435  -8.125  0.00  0.00     0.275 HD
HETATM   18  H           1     -19.630  -6.810  -7.223  0.00  0.00     0.275 HD
ENDBRANCH  13  15
ENDBRANCH   3  13
TORSDOF 6
ENDMDL
MODEL 9
REMARK VINA RESULT:      -4.6      5.377      7.403
REMARK  6 active torsions:
REMARK  status: ('A' for Active; 'I' for Inactive)
REMARK    1  A    between atoms: C_2  and  C_14 
REMARK    2  A    between atoms: N_5  and  C_7 
REMARK    3  A    between atoms: C_7  and  C_8 
REMARK       I    between atoms: C_8  and  N_9 
REMARK    4  A    between atoms: N_9  and  C_13 
REMARK    5  A    between atoms: C_12  and  C_13 
REMARK    6  A    between atoms: C_13  and  C_14 
ROOT
HETATM    1  O           1     -21.898  -9.703  -2.260  0.00  0.00    -0.271 OA
HETATM    2  H           1     -20.695  -6.943  -3.142  0.00  0.00     0.163 HD
HETATM    3  C           1     -21.553  -8.549  -2.159  0.00  0.00     0.248 C 
HETATM    4  N           1     -20.984  -7.909  -3.226  0.00  0.00    -0.344 N 
ENDROOT
BRANCH   4   5
HETATM    5  C           1     -20.794  -8.616  -4.478  0.00  0.00     0.195 C 
BRANCH   5   6
HETATM    6  C           1     -19.324  -8.873  -4.692  0.00  0.00     0.197 C 
HETATM    7  O           1     -18.574  -9.072  -3.711  0.00  0.00    -0.646 OA
HETATM    8  O           1     -18.853  -8.888  -5.850  0.00  0.00    -0.646 OA
ENDBRANCH   5   6
BRANCH   5   9
HETATM    9  C           1     -21.335  -7.771  -5.624  0.00  0.00     0.149 C 
BRANCH   9  10
HETATM   10  C           1     -21.715  -6.405  -5.107  0.00  0.00     0.175 C 
HETATM   11  O           1     -20.840  -5.523  -4.967  0.00  0.00    -0.648 OA
HETATM   12  O           1     -22.906  -6.155  -4.818  0.00  0.00    -0.648 OA
ENDBRANCH   9  10
ENDBRANCH   5   9
ENDBRANCH   4   5
BRANCH   3  13
HETATM   13  C           1     -21.751  -7.815  -0.856  0.00  0.00     0.270 C 
HETATM   14  C           1     -22.722  -8.590   0.023  0.00  0.00     0.050 C 
BRANCH  13  15
HETATM   15  N           1     -22.307  -6.449  -1.131  0.00  0.00    -0.067 N 
HETATM   16  H           1     -22.984  -6.502  -1.925  0.00  0.00     0.275 HD
HETATM   17  H           1     -22.796  -6.094  -0.279  0.00  0.00     0.275 HD
HETATM   18  H           1     -21.526  -5.800  -1.382  0.00  0.00     0.275 HD
ENDBRANCH  13  15
ENDBRANCH   3  13
TORSDOF 6
ENDMDL
