MODEL 1
REMARK VINA RESULT:      -6.2      0.000      0.000
REMARK  6 active torsions:
REMARK  status: ('A' for Active; 'I' for Inactive)
REMARK    1  A    between atoms: C_1  and  C_11 
REMARK    2  A    between atoms: C_1  and  C_2 
REMARK    3  A    between atoms: C_2  and  C_17 
REMARK    4  A    between atoms: C_2  and  N_7 
REMARK       I    between atoms: N_7  and  C_8 
REMARK    5  A    between atoms: C_8  and  C_10 
REMARK    6  A    between atoms: C_11  and  Se_13 
ROOT
HETATM    1  H           1     -34.728  -0.919 -11.256  0.00  0.00     0.163 HD
HETATM    2  N           1     -34.897  -1.397 -12.133  0.00  0.00    -0.345 N 
HETATM    3  C           1     -34.226  -2.554 -12.422  0.00  0.00     0.251 C 
HETATM    4  O           1     -34.428  -3.124 -13.468  0.00  0.00    -0.271 OA
ENDROOT
BRANCH   2   5
HETATM    5  C           1     -35.849  -0.854 -13.082  0.00  0.00     0.185 C 
BRANCH   5   6
HETATM    6  C           1     -36.960  -0.132 -12.330  0.00  0.00     0.036 C 
BRANCH   6   7
HETATM    7  C           1     -37.020  -0.645 -10.896  0.00  0.00     0.003 C 
BRANCH   7   8
HETATM    8 Se           1     -37.301   0.852  -9.681  0.00  0.00     0.000 Se
HETATM    9  C           1     -37.481  -0.260  -8.091  0.00  0.00     0.000 C 
ENDBRANCH   7   8
ENDBRANCH   6   7
ENDBRANCH   5   6
BRANCH   5  10
HETATM   10  C           1     -35.148   0.120 -13.996  0.00  0.00     0.196 C 
HETATM   11  O           1     -34.754   1.221 -13.553  0.00  0.00    -0.646 OA
HETATM   12  O           1     -34.961  -0.174 -15.197  0.00  0.00    -0.646 OA
ENDBRANCH   5  10
ENDBRANCH   2   5
BRANCH   3  13
HETATM   13  C           1     -33.234  -3.118 -11.435  0.00  0.00     0.311 C 
HETATM   14  C           1     -32.605  -4.394 -11.967  0.00  0.00     0.047 C 
HETATM   15  C           1     -33.444  -5.524 -11.384  0.00  0.00     0.033 C 
HETATM   16  C           1     -34.505  -4.836 -10.541  0.00  0.00     0.271 C 
HETATM   17  N           1     -33.905  -3.546 -10.211  0.00  0.00     0.097 N 
HETATM   18  H           1     -33.234  -3.668  -9.453  0.00  0.00     0.317 HD
ENDBRANCH   3  13
TORSDOF 6
ENDMDL
MODEL 2
REMARK VINA RESULT:      -5.3     11.894     13.774
REMARK  6 active torsions:
REMARK  status: ('A' for Active; 'I' for Inactive)
REMARK    1  A    between atoms: C_1  and  C_11 
REMARK    2  A    between atoms: C_1  and  C_2 
REMARK    3  A    between atoms: C_2  and  C_17 
REMARK    4  A    between atoms: C_2  and  N_7 
REMARK       I    between atoms: N_7  and  C_8 
REMARK    5  A    between atoms: C_8  and  C_10 
REMARK    6  A    between atoms: C_11  and  Se_13 
ROOT
HETATM    1  H           1     -23.357  -3.785  -7.622  0.00  0.00     0.163 HD
HETATM    2  N           1     -22.711  -3.732  -8.400  0.00  0.00    -0.345 N 
HETATM    3  C           1     -21.367  -3.877  -8.185  0.00  0.00     0.251 C 
HETATM    4  O           1     -20.596  -3.813  -9.113  0.00  0.00    -0.271 OA
ENDROOT
BRANCH   2   5
HETATM    5  C           1     -23.209  -3.501  -9.741  0.00  0.00     0.185 C 
BRANCH   5   6
HETATM    6  C           1     -22.469  -4.402 -10.721  0.00  0.00     0.036 C 
BRANCH   6   7
HETATM    7  C           1     -22.172  -3.628 -11.999  0.00  0.00     0.003 C 
BRANCH   7   8
HETATM    8 Se           1     -23.805  -3.459 -13.050  0.00  0.00     0.000 Se
HETATM    9  C           1     -22.921  -2.668 -14.597  0.00  0.00     0.000 C 
ENDBRANCH   7   8
ENDBRANCH   6   7
ENDBRANCH   5   6
BRANCH   5  10
HETATM   10  C           1     -24.685  -3.814  -9.790  0.00  0.00     0.196 C 
HETATM   11  O           1     -25.521  -2.884  -9.804  0.00  0.00    -0.646 OA
HETATM   12  O           1     -25.071  -5.002  -9.815  0.00  0.00    -0.646 OA
ENDBRANCH   5  10
ENDBRANCH   2   5
BRANCH   3  13
HETATM   13  C           1     -20.848  -4.116  -6.788  0.00  0.00     0.311 C 
HETATM   14  C           1     -19.458  -4.727  -6.824  0.00  0.00     0.047 C 
HETATM   15  C           1     -19.683  -6.231  -6.725  0.00  0.00     0.033 C 
HETATM   16  C           1     -21.190  -6.401  -6.630  0.00  0.00     0.271 C 
HETATM   17  N           1     -21.653  -5.122  -6.100  0.00  0.00     0.097 N 
HETATM   18  H           1     -21.489  -5.091  -5.094  0.00  0.00     0.317 HD
ENDBRANCH   3  13
TORSDOF 6
ENDMDL
MODEL 3
REMARK VINA RESULT:      -5.3     12.481     14.452
REMARK  6 active torsions:
REMARK  status: ('A' for Active; 'I' for Inactive)
REMARK    1  A    between atoms: C_1  and  C_11 
REMARK    2  A    between atoms: C_1  and  C_2 
REMARK    3  A    between atoms: C_2  and  C_17 
REMARK    4  A    between atoms: C_2  and  N_7 
REMARK       I    between atoms: N_7  and  C_8 
REMARK    5  A    between atoms: C_8  and  C_10 
REMARK    6  A    between atoms: C_11  and  Se_13 
ROOT
HETATM    1  H           1     -21.774  -5.616  -9.719  0.00  0.00     0.163 HD
HETATM    2  N           1     -22.096  -4.995  -8.987  0.00  0.00    -0.345 N 
HETATM    3  C           1     -23.330  -4.410  -9.079  0.00  0.00     0.251 C 
HETATM    4  O           1     -23.714  -3.669  -8.206  0.00  0.00    -0.271 OA
ENDROOT
BRANCH   2   5
HETATM    5  C           1     -21.248  -4.723  -7.842  0.00  0.00     0.185 C 
BRANCH   5   6
HETATM    6  C           1     -21.096  -5.990  -7.011  0.00  0.00     0.036 C 
BRANCH   6   7
HETATM    7  C           1     -21.882  -5.845  -5.714  0.00  0.00     0.003 C 
BRANCH   7   8
HETATM    8 Se           1     -21.498  -7.358  -4.548  0.00  0.00     0.000 Se
HETATM    9  C           1     -21.587  -6.320  -2.901  0.00  0.00     0.000 C 
ENDBRANCH   7   8
ENDBRANCH   6   7
ENDBRANCH   5   6
BRANCH   5  10
HETATM   10  C           1     -19.890  -4.270  -8.319  0.00  0.00     0.196 C 
HETATM   11  O           1     -18.896  -4.377  -7.568  0.00  0.00    -0.646 OA
HETATM   12  O           1     -19.759  -3.788  -9.465  0.00  0.00    -0.646 OA
ENDBRANCH   5  10
ENDBRANCH   2   5
BRANCH   3  13
HETATM   13  C           1     -24.211  -4.693 -10.271  0.00  0.00     0.311 C 
HETATM   14  C           1     -23.392  -5.218 -11.438  0.00  0.00     0.047 C 
HETATM   15  C           1     -23.072  -3.992 -12.283  0.00  0.00     0.033 C 
HETATM   16  C           1     -23.732  -2.829 -11.561  0.00  0.00     0.271 C 
HETATM   17  N           1     -24.798  -3.459 -10.787  0.00  0.00     0.097 N 
HETATM   18  H           1     -25.588  -3.662 -11.399  0.00  0.00     0.317 HD
ENDBRANCH   3  13
TORSDOF 6
ENDMDL
MODEL 4
REMARK VINA RESULT:      -5.1     15.491     17.458
REMARK  6 active torsions:
REMARK  status: ('A' for Active; 'I' for Inactive)
REMARK    1  A    between atoms: C_1  and  C_11 
REMARK    2  A    between atoms: C_1  and  C_2 
REMARK    3  A    between atoms: C_2  and  C_17 
REMARK    4  A    between atoms: C_2  and  N_7 
REMARK       I    between atoms: N_7  and  C_8 
REMARK    5  A    between atoms: C_8  and  C_10 
REMARK    6  A    between atoms: C_11  and  Se_13 
ROOT
HETATM    1  H           1     -19.742  -6.255  -4.665  0.00  0.00     0.163 HD
HETATM    2  N           1     -20.745  -6.307  -4.792  0.00  0.00    -0.345 N 
HETATM    3  C           1     -21.378  -5.414  -5.614  0.00  0.00     0.251 C 
HETATM    4  O           1     -22.575  -5.476  -5.765  0.00  0.00    -0.271 OA
ENDROOT
BRANCH   2   5
HETATM    5  C           1     -21.511  -7.327  -4.103  0.00  0.00     0.185 C 
BRANCH   5   6
HETATM    6  C           1     -20.789  -8.663  -4.211  0.00  0.00     0.036 C 
BRANCH   6   7
HETATM    7  C           1     -19.527  -8.493  -5.047  0.00  0.00     0.003 C 
BRANCH   7   8
HETATM    8 Se           1     -18.323  -9.990  -4.719  0.00  0.00     0.000 Se
HETATM    9  C           1     -17.858  -9.431  -2.910  0.00  0.00     0.000 C 
ENDBRANCH   7   8
ENDBRANCH   6   7
ENDBRANCH   5   6
BRANCH   5  10
HETATM   10  C           1     -21.654  -6.950  -2.648  0.00  0.00     0.196 C 
HETATM   11  O           1     -21.008  -7.570  -1.775  0.00  0.00    -0.646 OA
HETATM   12  O           1     -22.419  -6.020  -2.317  0.00  0.00    -0.646 OA
ENDBRANCH   5  10
ENDBRANCH   2   5
BRANCH   3  13
HETATM   13  C           1     -20.581  -4.352  -6.330  0.00  0.00     0.311 C 
HETATM   14  C           1     -21.441  -3.624  -7.349  0.00  0.00     0.047 C 
HETATM   15  C           1     -21.190  -4.343  -8.667  0.00  0.00     0.033 C 
HETATM   16  C           1     -20.193  -5.441  -8.337  0.00  0.00     0.271 C 
HETATM   17  N           1     -19.522  -4.952  -7.136  0.00  0.00     0.097 N 
HETATM   18  H           1     -18.825  -4.255  -7.396  0.00  0.00     0.317 HD
ENDBRANCH   3  13
TORSDOF 6
ENDMDL
MODEL 5
REMARK VINA RESULT:      -5.0     15.560     17.541
REMARK  6 active torsions:
REMARK  status: ('A' for Active; 'I' for Inactive)
REMARK    1  A    between atoms: C_1  and  C_11 
REMARK    2  A    between atoms: C_1  and  C_2 
REMARK    3  A    between atoms: C_2  and  C_17 
REMARK    4  A    between atoms: C_2  and  N_7 
REMARK       I    between atoms: N_7  and  C_8 
REMARK    5  A    between atoms: C_8  and  C_10 
REMARK    6  A    between atoms: C_11  and  Se_13 
ROOT
HETATM    1  H           1     -20.108  -6.068  -3.884  0.00  0.00     0.163 HD
HETATM    2  N           1     -20.631  -6.853  -4.251  0.00  0.00    -0.345 N 
HETATM    3  C           1     -20.668  -7.081  -5.600  0.00  0.00     0.251 C 
HETATM    4  O           1     -21.292  -8.018  -6.037  0.00  0.00    -0.271 OA
ENDROOT
BRANCH   2   5
HETATM    5  C           1     -21.341  -7.735  -3.346  0.00  0.00     0.185 C 
BRANCH   5   6
HETATM    6  C           1     -20.388  -8.802  -2.824  0.00  0.00     0.036 C 
BRANCH   6   7
HETATM    7  C           1     -20.875 -10.177  -3.262  0.00  0.00     0.003 C 
BRANCH   7   8
HETATM    8 Se           1     -22.264 -10.794  -2.042  0.00  0.00     0.000 Se
HETATM    9  C           1     -21.111 -10.793  -0.470  0.00  0.00     0.000 C 
ENDBRANCH   7   8
ENDBRANCH   6   7
ENDBRANCH   5   6
BRANCH   5  10
HETATM   10  C           1     -21.883  -6.936  -2.186  0.00  0.00     0.196 C 
HETATM   11  O           1     -22.484  -5.859  -2.396  0.00  0.00    -0.646 OA
HETATM   12  O           1     -21.731  -7.350  -1.017  0.00  0.00    -0.646 OA
ENDBRANCH   5  10
ENDBRANCH   2   5
BRANCH   3  13
HETATM   13  C           1     -19.929  -6.162  -6.541  0.00  0.00     0.311 C 
HETATM   14  C           1     -19.862  -4.752  -5.979  0.00  0.00     0.047 C 
HETATM   15  C           1     -21.046  -4.021  -6.599  0.00  0.00     0.033 C 
HETATM   16  C           1     -21.725  -5.048  -7.490  0.00  0.00     0.271 C 
HETATM   17  N           1     -20.662  -6.002  -7.794  0.00  0.00     0.097 N 
HETATM   18  H           1     -20.058  -5.618  -8.521  0.00  0.00     0.317 HD
ENDBRANCH   3  13
TORSDOF 6
ENDMDL
MODEL 6
REMARK VINA RESULT:      -4.9     16.639     18.500
REMARK  6 active torsions:
REMARK  status: ('A' for Active; 'I' for Inactive)
REMARK    1  A    between atoms: C_1  and  C_11 
REMARK    2  A    between atoms: C_1  and  C_2 
REMARK    3  A    between atoms: C_2  and  C_17 
REMARK    4  A    between atoms: C_2  and  N_7 
REMARK       I    between atoms: N_7  and  C_8 
REMARK    5  A    between atoms: C_8  and  C_10 
REMARK    6  A    between atoms: C_11  and  Se_13 
ROOT
HETATM    1  H           1     -22.517  -9.098  -2.853  0.00  0.00     0.163 HD
HETATM    2  N           1     -21.623  -8.629  -2.774  0.00  0.00    -0.345 N 
HETATM    3  C           1     -20.869  -8.779  -1.642  0.00  0.00     0.251 C 
HETATM    4  O           1     -19.803  -8.219  -1.548  0.00  0.00    -0.271 OA
ENDROOT
BRANCH   2   5
HETATM    5  C           1     -21.144  -7.796  -3.860  0.00  0.00     0.185 C 
BRANCH   5   6
HETATM    6  C           1     -21.319  -8.534  -5.181  0.00  0.00     0.036 C 
BRANCH   6   7
HETATM    7  C           1     -20.575  -9.861  -5.124  0.00  0.00     0.003 C 
BRANCH   7   8
HETATM    8 Se           1     -18.667  -9.528  -4.902  0.00  0.00     0.000 Se
HETATM    9  C           1     -18.116 -10.852  -6.223  0.00  0.00     0.000 C 
ENDBRANCH   7   8
ENDBRANCH   6   7
ENDBRANCH   5   6
BRANCH   5  10
HETATM   10  C           1     -21.934  -6.511  -3.894  0.00  0.00     0.196 C 
HETATM   11  O           1     -22.202  -5.971  -4.990  0.00  0.00    -0.646 OA
HETATM   12  O           1     -22.321  -5.987  -2.827  0.00  0.00    -0.646 OA
ENDBRANCH   5  10
ENDBRANCH   2   5
BRANCH   3  13
HETATM   13  C           1     -21.369  -9.645  -0.512  0.00  0.00     0.311 C 
HETATM   14  C           1     -22.886  -9.722  -0.518  0.00  0.00     0.047 C 
HETATM   15  C           1     -23.343  -8.636   0.448  0.00  0.00     0.033 C 
HETATM   16  C           1     -22.063  -8.000   0.964  0.00  0.00     0.271 C 
HETATM   17  N           1     -21.057  -9.043   0.781  0.00  0.00     0.097 N 
HETATM   18  H           1     -21.140  -9.730   1.531  0.00  0.00     0.317 HD
ENDBRANCH   3  13
TORSDOF 6
ENDMDL
MODEL 7
REMARK VINA RESULT:      -4.7     17.045     19.104
REMARK  6 active torsions:
REMARK  status: ('A' for Active; 'I' for Inactive)
REMARK    1  A    between atoms: C_1  and  C_11 
REMARK    2  A    between atoms: C_1  and  C_2 
REMARK    3  A    between atoms: C_2  and  C_17 
REMARK    4  A    between atoms: C_2  and  N_7 
REMARK       I    between atoms: N_7  and  C_8 
REMARK    5  A    between atoms: C_8  and  C_10 
REMARK    6  A    between atoms: C_11  and  Se_13 
ROOT
HETATM    1  H           1     -21.525  -9.661  -2.830  0.00  0.00     0.163 HD
HETATM    2  N           1     -21.320  -8.672  -2.759  0.00  0.00    -0.345 N 
HETATM    3  C           1     -21.749  -7.960  -1.672  0.00  0.00     0.251 C 
HETATM    4  O           1     -21.505  -6.780  -1.588  0.00  0.00    -0.271 OA
ENDROOT
BRANCH   2   5
HETATM    5  C           1     -20.574  -8.011  -3.811  0.00  0.00     0.185 C 
BRANCH   5   6
HETATM    6  C           1     -19.411  -8.895  -4.242  0.00  0.00     0.036 C 
BRANCH   6   7
HETATM    7  C           1     -18.803  -9.567  -3.018  0.00  0.00     0.003 C 
BRANCH   7   8
HETATM    8 Se           1     -17.324 -10.709  -3.571  0.00  0.00     0.000 Se
HETATM    9  C           1     -15.941  -9.556  -2.825  0.00  0.00     0.000 C 
ENDBRANCH   7   8
ENDBRANCH   6   7
ENDBRANCH   5   6
BRANCH   5  10
HETATM   10  C           1     -21.481  -7.764  -4.992  0.00  0.00     0.196 C 
HETATM   11  O           1     -21.304  -8.393  -6.058  0.00  0.00    -0.646 OA
HETATM   12  O           1     -22.408  -6.931  -4.904  0.00  0.00    -0.646 OA
ENDBRANCH   5  10
ENDBRANCH   2   5
BRANCH   3  13
HETATM   13  C           1     -22.527  -8.649  -0.578  0.00  0.00     0.311 C 
HETATM   14  C           1     -22.286  -7.978   0.763  0.00  0.00     0.047 C 
HETATM   15  C           1     -21.161  -8.774   1.410  0.00  0.00     0.033 C 
HETATM   16  C           1     -20.820  -9.866   0.409  0.00  0.00     0.271 C 
HETATM   17  N           1     -22.043 -10.012  -0.376  0.00  0.00     0.097 N 
HETATM   18  H           1     -22.721 -10.563   0.151  0.00  0.00     0.317 HD
ENDBRANCH   3  13
TORSDOF 6
ENDMDL
MODEL 8
REMARK VINA RESULT:      -4.6     16.691     18.173
REMARK  6 active torsions:
REMARK  status: ('A' for Active; 'I' for Inactive)
REMARK    1  A    between atoms: C_1  and  C_11 
REMARK    2  A    between atoms: C_1  and  C_2 
REMARK    3  A    between atoms: C_2  and  C_17 
REMARK    4  A    between atoms: C_2  and  N_7 
REMARK       I    between atoms: N_7  and  C_8 
REMARK    5  A    between atoms: C_8  and  C_10 
REMARK    6  A    between atoms: C_11  and  Se_13 
ROOT
HETATM    1  H           1     -23.002  -9.116  -2.537  0.00  0.00     0.163 HD
HETATM    2  N           1     -21.999  -8.975  -2.530  0.00  0.00    -0.345 N 
HETATM    3  C           1     -21.164 -10.017  -2.228  0.00  0.00     0.251 C 
HETATM    4  O           1     -19.968  -9.849  -2.218  0.00  0.00    -0.271 OA
ENDROOT
BRANCH   2   5
HETATM    5  C           1     -21.448  -7.670  -2.837  0.00  0.00     0.185 C 
BRANCH   5   6
HETATM    6  C           1     -21.775  -7.308  -4.279  0.00  0.00     0.036 C 
BRANCH   6   7
HETATM    7  C           1     -20.483  -7.036  -5.040  0.00  0.00     0.003 C 
BRANCH   7   8
HETATM    8 Se           1     -20.463  -5.183  -5.644  0.00  0.00     0.000 Se
HETATM    9  C           1     -20.065  -5.622  -7.501  0.00  0.00     0.000 C 
ENDBRANCH   7   8
ENDBRANCH   6   7
ENDBRANCH   5   6
BRANCH   5  10
HETATM   10  C           1     -22.051  -6.640  -1.912  0.00  0.00     0.196 C 
HETATM   11  O           1     -21.939  -5.423  -2.175  0.00  0.00    -0.646 OA
HETATM   12  O           1     -22.661  -7.005  -0.884  0.00  0.00    -0.646 OA
ENDBRANCH   5  10
ENDBRANCH   2   5
BRANCH   3  13
HETATM   13  C           1     -21.738 -11.375  -1.907  0.00  0.00     0.311 C 
HETATM   14  C           1     -23.235 -11.288  -1.665  0.00  0.00     0.047 C 
HETATM   15  C           1     -23.385 -11.148  -0.156  0.00  0.00     0.033 C 
HETATM   16  C           1     -21.967 -11.171   0.389  0.00  0.00     0.271 C 
HETATM   17  N           1     -21.210 -11.876  -0.641  0.00  0.00     0.097 N 
HETATM   18  H           1     -21.370 -12.880  -0.553  0.00  0.00     0.317 HD
ENDBRANCH   3  13
TORSDOF 6
ENDMDL
MODEL 9
REMARK VINA RESULT:      -4.5     17.214     19.183
REMARK  6 active torsions:
REMARK  status: ('A' for Active; 'I' for Inactive)
REMARK    1  A    between atoms: C_1  and  C_11 
REMARK    2  A    between atoms: C_1  and  C_2 
REMARK    3  A    between atoms: C_2  and  C_17 
REMARK    4  A    between atoms: C_2  and  N_7 
REMARK       I    between atoms: N_7  and  C_8 
REMARK    5  A    between atoms: C_8  and  C_10 
REMARK    6  A    between atoms: C_11  and  Se_13 
ROOT
HETATM    1  H           1     -22.199  -9.890  -2.008  0.00  0.00     0.163 HD
HETATM    2  N           1     -21.608  -9.746  -1.199  0.00  0.00    -0.345 N 
HETATM    3  C           1     -21.192 -10.818  -0.456  0.00  0.00     0.251 C 
HETATM    4  O           1     -20.487 -10.646   0.509  0.00  0.00    -0.271 OA
ENDROOT
BRANCH   2   5
HETATM    5  C           1     -21.204  -8.405  -0.826  0.00  0.00     0.185 C 
BRANCH   5   6
HETATM    6  C           1     -20.519  -7.734  -2.009  0.00  0.00     0.036 C 
BRANCH   6   7
HETATM    7  C           1     -19.843  -8.791  -2.872  0.00  0.00     0.003 C 
BRANCH   7   8
HETATM    8 Se           1     -20.070  -8.338  -4.753  0.00  0.00     0.000 Se
HETATM    9  C           1     -21.702  -7.310  -4.477  0.00  0.00     0.000 C 
ENDBRANCH   7   8
ENDBRANCH   6   7
ENDBRANCH   5   6
BRANCH   5  10
HETATM   10  C           1     -22.422  -7.604  -0.431  0.00  0.00     0.196 C 
HETATM   11  O           1     -23.153  -7.999   0.503  0.00  0.00    -0.646 OA
HETATM   12  O           1     -22.698  -6.548  -1.039  0.00  0.00    -0.646 OA
ENDBRANCH   5  10
ENDBRANCH   2   5
BRANCH   3  13
HETATM   13  C           1     -21.613 -12.214  -0.844  0.00  0.00     0.311 C 
HETATM   14  C           1     -22.826 -12.179  -1.758  0.00  0.00     0.047 C 
HETATM   15  C           1     -24.025 -12.346  -0.834  0.00  0.00     0.033 C 
HETATM   16  C           1     -23.436 -12.476   0.561  0.00  0.00     0.271 C 
HETATM   17  N           1     -22.079 -12.958   0.323  0.00  0.00     0.097 N 
HETATM   18  H           1     -22.103 -13.959   0.128  0.00  0.00     0.317 HD
ENDBRANCH   3  13
TORSDOF 6
ENDMDL
