MODEL 1
REMARK VINA RESULT:      -7.3      0.000      0.000
REMARK  11 active torsions:
REMARK  status: ('A' for Active; 'I' for Inactive)
REMARK    1  A    between atoms: C_1  and  C_6 
REMARK    2  A    between atoms: C_5  and  C_18 
REMARK    3  A    between atoms: C_5  and  C_6 
REMARK    4  A    between atoms: C_5  and  N_13 
REMARK    5  A    between atoms: O_7  and  P_27 
REMARK    6  A    between atoms: S_10  and  C_11 
REMARK    7  A    between atoms: C_11  and  C_12 
REMARK    8  A    between atoms: C_12  and  C_26 
REMARK    9  A    between atoms: C_12  and  N_16 
REMARK       I    between atoms: N_13  and  C_26 
REMARK   10  A    between atoms: O_19  and  C_21 
REMARK   11  A    between atoms: O_19  and  P_27 
ROOT
HETATM    1  C           1     -21.626  -6.834  -5.407  0.00  0.00     0.189 C 
ENDROOT
BRANCH   1   2
HETATM    2  C           1     -20.842  -8.095  -5.135  0.00  0.00     0.197 C 
HETATM    3  O           1     -21.428  -9.198  -5.097  0.00  0.00    -0.646 OA
HETATM    4  O           1     -19.607  -8.036  -4.950  0.00  0.00    -0.646 OA
ENDBRANCH   1   2
BRANCH   1   5
HETATM    5  C           1     -20.668  -5.710  -5.779  0.00  0.00     0.074 C 
BRANCH   5   6
HETATM    6  C           1     -21.115  -5.076  -7.058  0.00  0.00    -0.056 A 
HETATM    7  C           1     -20.274  -5.080  -8.171  0.00  0.00     0.010 A 
HETATM    8  C           1     -20.691  -4.489  -9.363  0.00  0.00     0.038 A 
HETATM    9  C           1     -21.948  -3.891  -9.443  0.00  0.00     0.081 A 
HETATM   10  C           1     -22.790  -3.886  -8.331  0.00  0.00     0.038 A 
HETATM   11  C           1     -22.373  -4.478  -7.138  0.00  0.00     0.010 A 
BRANCH   9  12
HETATM   12  O           1     -22.353  -3.317 -10.601  0.00  0.00    -0.247 OA
BRANCH  12  13
HETATM   13  P           1     -23.614  -3.971 -11.371  0.00  0.00     0.411 P 
HETATM   14  O           1     -23.816  -5.358 -10.897  0.00  0.00    -0.624 OA
HETATM   15  O           1     -24.830  -3.174 -11.094  0.00  0.00    -0.624 OA
BRANCH  13  16
HETATM   16  O           1     -23.327  -3.980 -12.961  0.00  0.00    -0.300 OA
HETATM   17  H           1     -23.701  -3.175 -13.280  0.00  0.00     0.223 HD
ENDBRANCH  13  16
ENDBRANCH  12  13
ENDBRANCH   9  12
ENDBRANCH   5   6
ENDBRANCH   1   5
BRANCH   1  18
HETATM   18  N           1     -22.369  -6.462  -4.218  0.00  0.00    -0.344 N 
HETATM   19  C           1     -21.730  -6.373  -3.012  0.00  0.00     0.249 C 
HETATM   20  O           1     -21.239  -5.325  -2.664  0.00  0.00    -0.271 OA
HETATM   21  H           1     -23.360  -6.268  -4.282  0.00  0.00     0.163 HD
BRANCH  19  22
HETATM   22  C           1     -21.639  -7.583  -2.115  0.00  0.00     0.283 C 
BRANCH  22  23
HETATM   23  C           1     -22.358  -7.299  -0.803  0.00  0.00     0.113 C 
BRANCH  23  24
HETATM   24  S           1     -21.670  -8.354   0.505  0.00  0.00    -0.180 SA
HETATM   25  H           1     -20.997  -7.375   1.136  0.00  0.00     0.101 HD
ENDBRANCH  23  24
ENDBRANCH  22  23
BRANCH  22  26
HETATM   26  N           1     -20.197  -7.892  -1.838  0.00  0.00    -0.066 N 
HETATM   27  H           1     -20.030  -8.915  -1.963  0.00  0.00     0.275 HD
HETATM   28  H           1     -19.593  -7.356  -2.501  0.00  0.00     0.275 HD
HETATM   29  H           1     -19.965  -7.618  -0.856  0.00  0.00     0.275 HD
ENDBRANCH  22  26
ENDBRANCH  19  22
ENDBRANCH   1  18
TORSDOF 11
ENDMDL
MODEL 2
REMARK VINA RESULT:      -7.3      2.042      2.852
REMARK  11 active torsions:
REMARK  status: ('A' for Active; 'I' for Inactive)
REMARK    1  A    between atoms: C_1  and  C_6 
REMARK    2  A    between atoms: C_5  and  C_18 
REMARK    3  A    between atoms: C_5  and  C_6 
REMARK    4  A    between atoms: C_5  and  N_13 
REMARK    5  A    between atoms: O_7  and  P_27 
REMARK    6  A    between atoms: S_10  and  C_11 
REMARK    7  A    between atoms: C_11  and  C_12 
REMARK    8  A    between atoms: C_12  and  C_26 
REMARK    9  A    between atoms: C_12  and  N_16 
REMARK       I    between atoms: N_13  and  C_26 
REMARK   10  A    between atoms: O_19  and  C_21 
REMARK   11  A    between atoms: O_19  and  P_27 
ROOT
HETATM    1  C           1     -21.561  -5.568  -6.628  0.00  0.00     0.189 C 
ENDROOT
BRANCH   1   2
HETATM    2  C           1     -20.062  -5.622  -6.462  0.00  0.00     0.197 C 
HETATM    3  O           1     -19.435  -6.653  -6.788  0.00  0.00    -0.646 OA
HETATM    4  O           1     -19.448  -4.637  -5.999  0.00  0.00    -0.646 OA
ENDBRANCH   1   2
BRANCH   1   5
HETATM    5  C           1     -21.971  -4.177  -7.094  0.00  0.00     0.074 C 
BRANCH   5   6
HETATM    6  C           1     -22.413  -4.238  -8.522  0.00  0.00    -0.056 A 
HETATM    7  C           1     -23.768  -4.145  -8.838  0.00  0.00     0.010 A 
HETATM    8  C           1     -24.179  -4.203 -10.169  0.00  0.00     0.038 A 
HETATM    9  C           1     -23.236  -4.355 -11.185  0.00  0.00     0.081 A 
HETATM   10  C           1     -21.880  -4.449 -10.870  0.00  0.00     0.038 A 
HETATM   11  C           1     -21.469  -4.391  -9.538  0.00  0.00     0.010 A 
BRANCH   9  12
HETATM   12  O           1     -23.635  -4.411 -12.478  0.00  0.00    -0.247 OA
BRANCH  12  13
HETATM   13  P           1     -24.072  -3.032 -13.197  0.00  0.00     0.411 P 
HETATM   14  O           1     -23.876  -3.155 -14.660  0.00  0.00    -0.624 OA
HETATM   15  O           1     -25.498  -2.757 -12.914  0.00  0.00    -0.624 OA
BRANCH  13  16
HETATM   16  O           1     -23.167  -1.820 -12.631  0.00  0.00    -0.300 OA
HETATM   17  H           1     -22.384  -1.836 -13.156  0.00  0.00     0.223 HD
ENDBRANCH  13  16
ENDBRANCH  12  13
ENDBRANCH   9  12
ENDBRANCH   5   6
ENDBRANCH   1   5
BRANCH   1  18
HETATM   18  N           1     -22.199  -5.858  -5.358  0.00  0.00    -0.344 N 
HETATM   19  C           1     -21.581  -6.676  -4.452  0.00  0.00     0.249 C 
HETATM   20  O           1     -20.835  -6.207  -3.626  0.00  0.00    -0.271 OA
HETATM   21  H           1     -23.102  -5.456  -5.142  0.00  0.00     0.163 HD
BRANCH  19  22
HETATM   22  C           1     -21.828  -8.164  -4.487  0.00  0.00     0.283 C 
BRANCH  22  23
HETATM   23  C           1     -21.437  -8.776  -3.148  0.00  0.00     0.113 C 
BRANCH  23  24
HETATM   24  S           1     -19.833  -9.610  -3.308  0.00  0.00    -0.180 SA
HETATM   25  H           1     -19.923  -9.834  -4.632  0.00  0.00     0.101 HD
ENDBRANCH  23  24
ENDBRANCH  22  23
BRANCH  22  26
HETATM   26  N           1     -21.005  -8.783  -5.578  0.00  0.00    -0.066 N 
HETATM   27  H           1     -20.672  -9.724  -5.272  0.00  0.00     0.275 HD
HETATM   28  H           1     -21.588  -8.883  -6.439  0.00  0.00     0.275 HD
HETATM   29  H           1     -20.183  -8.171  -5.783  0.00  0.00     0.275 HD
ENDBRANCH  22  26
ENDBRANCH  19  22
ENDBRANCH   1  18
TORSDOF 11
ENDMDL
MODEL 3
REMARK VINA RESULT:      -7.1     14.368     16.947
REMARK  11 active torsions:
REMARK  status: ('A' for Active; 'I' for Inactive)
REMARK    1  A    between atoms: C_1  and  C_6 
REMARK    2  A    between atoms: C_5  and  C_18 
REMARK    3  A    between atoms: C_5  and  C_6 
REMARK    4  A    between atoms: C_5  and  N_13 
REMARK    5  A    between atoms: O_7  and  P_27 
REMARK    6  A    between atoms: S_10  and  C_11 
REMARK    7  A    between atoms: C_11  and  C_12 
REMARK    8  A    between atoms: C_12  and  C_26 
REMARK    9  A    between atoms: C_12  and  N_16 
REMARK       I    between atoms: N_13  and  C_26 
REMARK   10  A    between atoms: O_19  and  C_21 
REMARK   11  A    between atoms: O_19  and  P_27 
ROOT
HETATM    1  C           1     -36.423  -0.785 -12.249  0.00  0.00     0.189 C 
ENDROOT
BRANCH   1   2
HETATM    2  C           1     -36.942  -0.291 -10.921  0.00  0.00     0.197 C 
HETATM    3  O           1     -36.239   0.468 -10.219  0.00  0.00    -0.646 OA
HETATM    4  O           1     -38.074  -0.639 -10.524  0.00  0.00    -0.646 OA
ENDBRANCH   1   2
BRANCH   1   5
HETATM    5  C           1     -34.901  -0.847 -12.209  0.00  0.00     0.074 C 
BRANCH   5   6
HETATM    6  C           1     -34.467  -2.244 -11.895  0.00  0.00    -0.056 A 
HETATM    7  C           1     -34.170  -2.603 -10.580  0.00  0.00     0.010 A 
HETATM    8  C           1     -33.764  -3.905 -10.287  0.00  0.00     0.038 A 
HETATM    9  C           1     -33.654  -4.848 -11.309  0.00  0.00     0.081 A 
HETATM   10  C           1     -33.951  -4.489 -12.624  0.00  0.00     0.038 A 
HETATM   11  C           1     -34.356  -3.187 -12.917  0.00  0.00     0.010 A 
BRANCH   9  12
HETATM   12  O           1     -33.260  -6.112 -11.025  0.00  0.00    -0.247 OA
BRANCH  12  13
HETATM   13  P           1     -34.400  -7.199 -10.667  0.00  0.00     0.411 P 
HETATM   14  O           1     -33.759  -8.466 -10.247  0.00  0.00    -0.624 OA
HETATM   15  O           1     -35.244  -6.685  -9.564  0.00  0.00    -0.624 OA
BRANCH  13  16
HETATM   16  O           1     -35.319  -7.464 -11.968  0.00  0.00    -0.300 OA
HETATM   17  H           1     -36.020  -6.838 -11.903  0.00  0.00     0.223 HD
ENDBRANCH  13  16
ENDBRANCH  12  13
ENDBRANCH   9  12
ENDBRANCH   5   6
ENDBRANCH   1   5
BRANCH   1  18
HETATM   18  N           1     -36.841   0.123 -13.299  0.00  0.00    -0.344 N 
HETATM   19  C           1     -37.003  -0.337 -14.578  0.00  0.00     0.249 C 
HETATM   20  O           1     -38.075  -0.763 -14.935  0.00  0.00    -0.271 OA
HETATM   21  H           1     -37.014   1.097 -13.087  0.00  0.00     0.163 HD
BRANCH  19  22
HETATM   22  C           1     -35.841  -0.314 -15.541  0.00  0.00     0.283 C 
BRANCH  22  23
HETATM   23  C           1     -35.142   1.037 -15.461  0.00  0.00     0.113 C 
BRANCH  23  24
HETATM   24  S           1     -36.210   2.315 -16.183  0.00  0.00    -0.180 SA
HETATM   25  H           1     -37.100   1.464 -16.726  0.00  0.00     0.101 HD
ENDBRANCH  23  24
ENDBRANCH  22  23
BRANCH  22  26
HETATM   26  N           1     -36.344  -0.534 -16.937  0.00  0.00    -0.066 N 
HETATM   27  H           1     -36.969   0.257 -17.212  0.00  0.00     0.275 HD
HETATM   28  H           1     -35.534  -0.583 -17.595  0.00  0.00     0.275 HD
HETATM   29  H           1     -36.879  -1.431 -16.976  0.00  0.00     0.275 HD
ENDBRANCH  22  26
ENDBRANCH  19  22
ENDBRANCH   1  18
TORSDOF 11
ENDMDL
MODEL 4
REMARK VINA RESULT:      -6.6      4.753      8.166
REMARK  11 active torsions:
REMARK  status: ('A' for Active; 'I' for Inactive)
REMARK    1  A    between atoms: C_1  and  C_6 
REMARK    2  A    between atoms: C_5  and  C_18 
REMARK    3  A    between atoms: C_5  and  C_6 
REMARK    4  A    between atoms: C_5  and  N_13 
REMARK    5  A    between atoms: O_7  and  P_27 
REMARK    6  A    between atoms: S_10  and  C_11 
REMARK    7  A    between atoms: C_11  and  C_12 
REMARK    8  A    between atoms: C_12  and  C_26 
REMARK    9  A    between atoms: C_12  and  N_16 
REMARK       I    between atoms: N_13  and  C_26 
REMARK   10  A    between atoms: O_19  and  C_21 
REMARK   11  A    between atoms: O_19  and  P_27 
ROOT
HETATM    1  C           1     -20.778  -5.071  -6.161  0.00  0.00     0.189 C 
ENDROOT
BRANCH   1   2
HETATM    2  C           1     -19.647  -5.390  -7.108  0.00  0.00     0.197 C 
HETATM    3  O           1     -18.916  -4.473  -7.540  0.00  0.00    -0.646 OA
HETATM    4  O           1     -19.441  -6.572  -7.460  0.00  0.00    -0.646 OA
ENDBRANCH   1   2
BRANCH   1   5
HETATM    5  C           1     -21.605  -6.326  -5.916  0.00  0.00     0.074 C 
BRANCH   5   6
HETATM    6  C           1     -21.379  -6.808  -4.517  0.00  0.00    -0.056 A 
HETATM    7  C           1     -20.531  -7.890  -4.280  0.00  0.00     0.010 A 
HETATM    8  C           1     -20.320  -8.339  -2.977  0.00  0.00     0.038 A 
HETATM    9  C           1     -20.958  -7.708  -1.910  0.00  0.00     0.081 A 
HETATM   10  C           1     -21.807  -6.626  -2.146  0.00  0.00     0.038 A 
HETATM   11  C           1     -22.017  -6.177  -3.450  0.00  0.00     0.010 A 
BRANCH   9  12
HETATM   12  O           1     -20.754  -8.144  -0.644  0.00  0.00    -0.247 OA
BRANCH  12  13
HETATM   13  P           1     -21.917  -9.021   0.053  0.00  0.00     0.411 P 
HETATM   14  O           1     -21.307  -9.997   0.985  0.00  0.00    -0.624 OA
HETATM   15  O           1     -22.828  -8.128   0.804  0.00  0.00    -0.624 OA
BRANCH  13  16
HETATM   16  O           1     -22.751  -9.809  -1.084  0.00  0.00    -0.300 OA
HETATM   17  H           1     -22.429 -10.694  -1.051  0.00  0.00     0.223 HD
ENDBRANCH  13  16
ENDBRANCH  12  13
ENDBRANCH   9  12
ENDBRANCH   5   6
ENDBRANCH   1   5
BRANCH   1  18
HETATM   18  N           1     -21.620  -4.045  -6.743  0.00  0.00    -0.344 N 
HETATM   19  C           1     -22.795  -4.387  -7.354  0.00  0.00     0.249 C 
HETATM   20  O           1     -23.817  -4.437  -6.713  0.00  0.00    -0.271 OA
HETATM   21  H           1     -21.339  -3.073  -6.696  0.00  0.00     0.163 HD
BRANCH  19  22
HETATM   22  C           1     -22.813  -4.705  -8.829  0.00  0.00     0.283 C 
BRANCH  22  23
HETATM   23  C           1     -21.808  -3.819  -9.553  0.00  0.00     0.113 C 
BRANCH  23  24
HETATM   24  S           1     -22.177  -3.812 -11.330  0.00  0.00    -0.180 SA
HETATM   25  H           1     -22.985  -4.887 -11.311  0.00  0.00     0.101 HD
ENDBRANCH  23  24
ENDBRANCH  22  23
BRANCH  22  26
HETATM   26  N           1     -24.187  -4.454  -9.378  0.00  0.00    -0.066 N 
HETATM   27  H           1     -24.900  -4.678  -8.649  0.00  0.00     0.275 HD
HETATM   28  H           1     -24.273  -3.449  -9.652  0.00  0.00     0.275 HD
HETATM   29  H           1     -24.342  -5.058 -10.216  0.00  0.00     0.275 HD
ENDBRANCH  22  26
ENDBRANCH  19  22
ENDBRANCH   1  18
TORSDOF 11
ENDMDL
MODEL 5
REMARK VINA RESULT:      -6.4      2.144      3.291
REMARK  11 active torsions:
REMARK  status: ('A' for Active; 'I' for Inactive)
REMARK    1  A    between atoms: C_1  and  C_6 
REMARK    2  A    between atoms: C_5  and  C_18 
REMARK    3  A    between atoms: C_5  and  C_6 
REMARK    4  A    between atoms: C_5  and  N_13 
REMARK    5  A    between atoms: O_7  and  P_27 
REMARK    6  A    between atoms: S_10  and  C_11 
REMARK    7  A    between atoms: C_11  and  C_12 
REMARK    8  A    between atoms: C_12  and  C_26 
REMARK    9  A    between atoms: C_12  and  N_16 
REMARK       I    between atoms: N_13  and  C_26 
REMARK   10  A    between atoms: O_19  and  C_21 
REMARK   11  A    between atoms: O_19  and  P_27 
ROOT
HETATM    1  C           1     -20.965  -7.084  -3.810  0.00  0.00     0.189 C 
ENDROOT
BRANCH   1   2
HETATM    2  C           1     -21.543  -6.772  -2.451  0.00  0.00     0.197 C 
HETATM    3  O           1     -22.471  -5.942  -2.343  0.00  0.00    -0.646 OA
HETATM    4  O           1     -21.095  -7.345  -1.435  0.00  0.00    -0.646 OA
ENDBRANCH   1   2
BRANCH   1   5
HETATM    5  C           1     -22.064  -7.007  -4.861  0.00  0.00     0.074 C 
BRANCH   5   6
HETATM    6  C           1     -21.640  -6.088  -5.963  0.00  0.00    -0.056 A 
HETATM    7  C           1     -22.525  -5.126  -6.449  0.00  0.00     0.010 A 
HETATM    8  C           1     -22.129  -4.270  -7.476  0.00  0.00     0.038 A 
HETATM    9  C           1     -20.849  -4.376  -8.019  0.00  0.00     0.081 A 
HETATM   10  C           1     -19.963  -5.338  -7.533  0.00  0.00     0.038 A 
HETATM   11  C           1     -20.359  -6.195  -6.505  0.00  0.00     0.010 A 
BRANCH   9  12
HETATM   12  O           1     -20.464  -3.544  -9.016  0.00  0.00    -0.247 OA
BRANCH  12  13
HETATM   13  P           1     -20.669  -4.041 -10.539  0.00  0.00     0.411 P 
HETATM   14  O           1     -19.651  -5.065 -10.865  0.00  0.00    -0.624 OA
HETATM   15  O           1     -22.020  -4.625 -10.691  0.00  0.00    -0.624 OA
BRANCH  13  16
HETATM   16  O           1     -20.511  -2.784 -11.541  0.00  0.00    -0.300 OA
HETATM   17  H           1     -20.482  -2.028 -10.979  0.00  0.00     0.223 HD
ENDBRANCH  13  16
ENDBRANCH  12  13
ENDBRANCH   9  12
ENDBRANCH   5   6
ENDBRANCH   1   5
BRANCH   1  18
HETATM   18  N           1     -20.399  -8.418  -3.800  0.00  0.00    -0.344 N 
HETATM   19  C           1     -21.041  -9.440  -4.445  0.00  0.00     0.249 C 
HETATM   20  O           1     -20.795  -9.671  -5.605  0.00  0.00    -0.271 OA
HETATM   21  H           1     -19.528  -8.595  -3.316  0.00  0.00     0.163 HD
BRANCH  19  22
HETATM   22  C           1     -22.059 -10.275  -3.709  0.00  0.00     0.283 C 
BRANCH  22  23
HETATM   23  C           1     -21.511 -10.655  -2.340  0.00  0.00     0.113 C 
BRANCH  23  24
HETATM   24  S           1     -22.837 -10.547  -1.105  0.00  0.00    -0.180 SA
HETATM   25  H           1     -23.772 -11.164  -1.849  0.00  0.00     0.101 HD
ENDBRANCH  23  24
ENDBRANCH  22  23
BRANCH  22  26
HETATM   26  N           1     -22.346 -11.521  -4.495  0.00  0.00    -0.066 N 
HETATM   27  H           1     -21.567 -12.204  -4.362  0.00  0.00     0.275 HD
HETATM   28  H           1     -23.240 -11.945  -4.160  0.00  0.00     0.275 HD
HETATM   29  H           1     -22.431 -11.281  -5.508  0.00  0.00     0.275 HD
ENDBRANCH  22  26
ENDBRANCH  19  22
ENDBRANCH   1  18
TORSDOF 11
ENDMDL
MODEL 6
REMARK VINA RESULT:      -6.3      1.541      1.955
REMARK  11 active torsions:
REMARK  status: ('A' for Active; 'I' for Inactive)
REMARK    1  A    between atoms: C_1  and  C_6 
REMARK    2  A    between atoms: C_5  and  C_18 
REMARK    3  A    between atoms: C_5  and  C_6 
REMARK    4  A    between atoms: C_5  and  N_13 
REMARK    5  A    between atoms: O_7  and  P_27 
REMARK    6  A    between atoms: S_10  and  C_11 
REMARK    7  A    between atoms: C_11  and  C_12 
REMARK    8  A    between atoms: C_12  and  C_26 
REMARK    9  A    between atoms: C_12  and  N_16 
REMARK       I    between atoms: N_13  and  C_26 
REMARK   10  A    between atoms: O_19  and  C_21 
REMARK   11  A    between atoms: O_19  and  P_27 
ROOT
HETATM    1  C           1     -21.060  -7.543  -5.229  0.00  0.00     0.189 C 
ENDROOT
BRANCH   1   2
HETATM    2  C           1     -20.480  -8.896  -5.561  0.00  0.00     0.197 C 
HETATM    3  O           1     -21.239  -9.863  -5.785  0.00  0.00    -0.646 OA
HETATM    4  O           1     -19.241  -9.049  -5.611  0.00  0.00    -0.646 OA
ENDBRANCH   1   2
BRANCH   1   5
HETATM    5  C           1     -20.125  -6.451  -5.733  0.00  0.00     0.074 C 
BRANCH   5   6
HETATM    6  C           1     -20.835  -5.615  -6.750  0.00  0.00    -0.056 A 
HETATM    7  C           1     -20.215  -5.313  -7.962  0.00  0.00     0.010 A 
HETATM    8  C           1     -20.877  -4.534  -8.910  0.00  0.00     0.038 A 
HETATM    9  C           1     -22.160  -4.054  -8.646  0.00  0.00     0.081 A 
HETATM   10  C           1     -22.781  -4.355  -7.434  0.00  0.00     0.038 A 
HETATM   11  C           1     -22.118  -5.135  -6.486  0.00  0.00     0.010 A 
BRANCH   9  12
HETATM   12  O           1     -22.803  -3.297  -9.567  0.00  0.00    -0.247 OA
BRANCH  12  13
HETATM   13  P           1     -24.062  -3.950 -10.340  0.00  0.00     0.411 P 
HETATM   14  O           1     -24.241  -3.278 -11.646  0.00  0.00    -0.624 OA
HETATM   15  O           1     -23.814  -5.393 -10.558  0.00  0.00    -0.624 OA
BRANCH  13  16
HETATM   16  O           1     -25.396  -3.762  -9.449  0.00  0.00    -0.300 OA
HETATM   17  H           1     -26.109  -3.833 -10.061  0.00  0.00     0.223 HD
ENDBRANCH  13  16
ENDBRANCH  12  13
ENDBRANCH   9  12
ENDBRANCH   5   6
ENDBRANCH   1   5
BRANCH   1  18
HETATM   18  N           1     -21.214  -7.422  -3.792  0.00  0.00    -0.344 N 
HETATM   19  C           1     -20.810  -8.439  -2.972  0.00  0.00     0.249 C 
HETATM   20  O           1     -19.680  -8.459  -2.545  0.00  0.00    -0.271 OA
HETATM   21  H           1     -21.620  -6.584  -3.396  0.00  0.00     0.163 HD
BRANCH  19  22
HETATM   22  C           1     -21.774  -9.539  -2.602  0.00  0.00     0.283 C 
BRANCH  22  23
HETATM   23  C           1     -22.195  -9.378  -1.147  0.00  0.00     0.113 C 
BRANCH  23  24
HETATM   24  S           1     -23.316 -10.729  -0.688  0.00  0.00    -0.180 SA
HETATM   25  H           1     -23.441 -10.376   0.604  0.00  0.00     0.101 HD
ENDBRANCH  23  24
ENDBRANCH  22  23
BRANCH  22  26
HETATM   26  N           1     -21.109 -10.871  -2.784  0.00  0.00    -0.066 N 
HETATM   27  H           1     -20.200 -10.741  -3.282  0.00  0.00     0.275 HD
HETATM   28  H           1     -20.935 -11.304  -1.849  0.00  0.00     0.275 HD
HETATM   29  H           1     -21.729 -11.495  -3.348  0.00  0.00     0.275 HD
ENDBRANCH  22  26
ENDBRANCH  19  22
ENDBRANCH   1  18
TORSDOF 11
ENDMDL
MODEL 7
REMARK VINA RESULT:      -6.1      2.582      3.930
REMARK  11 active torsions:
REMARK  status: ('A' for Active; 'I' for Inactive)
REMARK    1  A    between atoms: C_1  and  C_6 
REMARK    2  A    between atoms: C_5  and  C_18 
REMARK    3  A    between atoms: C_5  and  C_6 
REMARK    4  A    between atoms: C_5  and  N_13 
REMARK    5  A    between atoms: O_7  and  P_27 
REMARK    6  A    between atoms: S_10  and  C_11 
REMARK    7  A    between atoms: C_11  and  C_12 
REMARK    8  A    between atoms: C_12  and  C_26 
REMARK    9  A    between atoms: C_12  and  N_16 
REMARK       I    between atoms: N_13  and  C_26 
REMARK   10  A    between atoms: O_19  and  C_21 
REMARK   11  A    between atoms: O_19  and  P_27 
ROOT
HETATM    1  C           1     -20.918  -7.426  -3.552  0.00  0.00     0.189 C 
ENDROOT
BRANCH   1   2
HETATM    2  C           1     -21.561  -6.897  -2.293  0.00  0.00     0.197 C 
HETATM    3  O           1     -21.354  -7.466  -1.199  0.00  0.00    -0.646 OA
HETATM    4  O           1     -22.299  -5.890  -2.343  0.00  0.00    -0.646 OA
ENDBRANCH   1   2
BRANCH   1   5
HETATM    5  C           1     -21.934  -7.411  -4.686  0.00  0.00     0.074 C 
BRANCH   5   6
HETATM    6  C           1     -21.490  -6.449  -5.742  0.00  0.00    -0.056 A 
HETATM    7  C           1     -22.358  -5.453  -6.189  0.00  0.00     0.010 A 
HETATM    8  C           1     -21.944  -4.556  -7.173  0.00  0.00     0.038 A 
HETATM    9  C           1     -20.662  -4.655  -7.713  0.00  0.00     0.081 A 
HETATM   10  C           1     -19.793  -5.651  -7.267  0.00  0.00     0.038 A 
HETATM   11  C           1     -20.208  -6.548  -6.282  0.00  0.00     0.010 A 
BRANCH   9  12
HETATM   12  O           1     -20.260  -3.784  -8.669  0.00  0.00    -0.247 OA
BRANCH  12  13
HETATM   13  P           1     -20.641  -4.113 -10.203  0.00  0.00     0.411 P 
HETATM   14  O           1     -20.571  -2.871 -11.006  0.00  0.00    -0.624 OA
HETATM   15  O           1     -19.687  -5.105 -10.748  0.00  0.00    -0.624 OA
BRANCH  13  16
HETATM   16  O           1     -22.138  -4.714 -10.269  0.00  0.00    -0.300 OA
HETATM   17  H           1     -22.640  -4.183  -9.673  0.00  0.00     0.223 HD
ENDBRANCH  13  16
ENDBRANCH  12  13
ENDBRANCH   9  12
ENDBRANCH   5   6
ENDBRANCH   1   5
BRANCH   1  18
HETATM   18  N           1     -20.464  -8.785  -3.328  0.00  0.00    -0.344 N 
HETATM   19  C           1     -19.171  -9.130  -3.611  0.00  0.00     0.249 C 
HETATM   20  O           1     -18.318  -9.027  -2.761  0.00  0.00    -0.271 OA
HETATM   21  H           1     -21.104  -9.478  -2.963  0.00  0.00     0.163 HD
BRANCH  19  22
HETATM   22  C           1     -18.808  -9.637  -4.985  0.00  0.00     0.283 C 
BRANCH  22  23
HETATM   23  C           1     -19.834 -10.669  -5.433  0.00  0.00     0.113 C 
BRANCH  23  24
HETATM   24  S           1     -19.421 -12.284  -4.716  0.00  0.00    -0.180 SA
HETATM   25  H           1     -18.403 -12.554  -5.552  0.00  0.00     0.101 HD
ENDBRANCH  23  24
ENDBRANCH  22  23
BRANCH  22  26
HETATM   26  N           1     -17.449 -10.270  -4.942  0.00  0.00    -0.066 N 
HETATM   27  H           1     -16.748  -9.569  -4.613  0.00  0.00     0.275 HD
HETATM   28  H           1     -17.464 -11.082  -4.283  0.00  0.00     0.275 HD
HETATM   29  H           1     -17.189 -10.602  -5.898  0.00  0.00     0.275 HD
ENDBRANCH  22  26
ENDBRANCH  19  22
ENDBRANCH   1  18
TORSDOF 11
ENDMDL
MODEL 8
REMARK VINA RESULT:      -5.9      4.734      6.884
REMARK  11 active torsions:
REMARK  status: ('A' for Active; 'I' for Inactive)
REMARK    1  A    between atoms: C_1  and  C_6 
REMARK    2  A    between atoms: C_5  and  C_18 
REMARK    3  A    between atoms: C_5  and  C_6 
REMARK    4  A    between atoms: C_5  and  N_13 
REMARK    5  A    between atoms: O_7  and  P_27 
REMARK    6  A    between atoms: S_10  and  C_11 
REMARK    7  A    between atoms: C_11  and  C_12 
REMARK    8  A    between atoms: C_12  and  C_26 
REMARK    9  A    between atoms: C_12  and  N_16 
REMARK       I    between atoms: N_13  and  C_26 
REMARK   10  A    between atoms: O_19  and  C_21 
REMARK   11  A    between atoms: O_19  and  P_27 
ROOT
HETATM    1  C           1     -21.698 -10.435   0.027  0.00  0.00     0.189 C 
ENDROOT
BRANCH   1   2
HETATM    2  C           1     -20.495 -10.539   0.933  0.00  0.00     0.197 C 
HETATM    3  O           1     -19.562 -11.320   0.645  0.00  0.00    -0.646 OA
HETATM    4  O           1     -20.431  -9.844   1.969  0.00  0.00    -0.646 OA
ENDBRANCH   1   2
BRANCH   1   5
HETATM    5  C           1     -22.338  -9.063   0.187  0.00  0.00     0.074 C 
BRANCH   5   6
HETATM    6  C           1     -21.959  -8.197  -0.973  0.00  0.00    -0.056 A 
HETATM    7  C           1     -22.349  -6.858  -1.002  0.00  0.00     0.010 A 
HETATM    8  C           1     -21.996  -6.051  -2.083  0.00  0.00     0.038 A 
HETATM    9  C           1     -21.254  -6.583  -3.137  0.00  0.00     0.081 A 
HETATM   10  C           1     -20.863  -7.922  -3.110  0.00  0.00     0.038 A 
HETATM   11  C           1     -21.216  -8.728  -2.028  0.00  0.00     0.010 A 
BRANCH   9  12
HETATM   12  O           1     -20.910  -5.799  -4.188  0.00  0.00    -0.247 OA
BRANCH  12  13
HETATM   13  P           1     -21.720  -5.990  -5.572  0.00  0.00     0.411 P 
HETATM   14  O           1     -21.187  -7.165  -6.297  0.00  0.00    -0.624 OA
HETATM   15  O           1     -23.156  -6.200  -5.280  0.00  0.00    -0.624 OA
BRANCH  13  16
HETATM   16  O           1     -21.545  -4.668  -6.484  0.00  0.00    -0.300 OA
HETATM   17  H           1     -21.550  -4.983  -7.372  0.00  0.00     0.223 HD
ENDBRANCH  13  16
ENDBRANCH  12  13
ENDBRANCH   9  12
ENDBRANCH   5   6
ENDBRANCH   1   5
BRANCH   1  18
HETATM   18  N           1     -22.660 -11.460   0.382  0.00  0.00    -0.344 N 
HETATM   19  C           1     -22.580 -12.702  -0.188  0.00  0.00     0.249 C 
HETATM   20  O           1     -21.920 -13.566   0.337  0.00  0.00    -0.271 OA
HETATM   21  H           1     -23.391 -11.258   1.052  0.00  0.00     0.163 HD
BRANCH  19  22
HETATM   22  C           1     -23.315 -12.990  -1.474  0.00  0.00     0.283 C 
BRANCH  22  23
HETATM   23  C           1     -22.900 -14.357  -2.001  0.00  0.00     0.113 C 
BRANCH  23  24
HETATM   24  S           1     -24.349 -15.449  -2.061  0.00  0.00    -0.180 SA
HETATM   25  H           1     -24.979 -14.792  -3.052  0.00  0.00     0.101 HD
ENDBRANCH  23  24
ENDBRANCH  22  23
BRANCH  22  26
HETATM   26  N           1     -22.977 -11.940  -2.490  0.00  0.00    -0.066 N 
HETATM   27  H           1     -22.569 -12.393  -3.338  0.00  0.00     0.275 HD
HETATM   28  H           1     -23.844 -11.421  -2.756  0.00  0.00     0.275 HD
HETATM   29  H           1     -22.283 -11.272  -2.083  0.00  0.00     0.275 HD
ENDBRANCH  22  26
ENDBRANCH  19  22
ENDBRANCH   1  18
TORSDOF 11
ENDMDL
MODEL 9
REMARK VINA RESULT:      -5.9      3.076      4.460
REMARK  11 active torsions:
REMARK  status: ('A' for Active; 'I' for Inactive)
REMARK    1  A    between atoms: C_1  and  C_6 
REMARK    2  A    between atoms: C_5  and  C_18 
REMARK    3  A    between atoms: C_5  and  C_6 
REMARK    4  A    between atoms: C_5  and  N_13 
REMARK    5  A    between atoms: O_7  and  P_27 
REMARK    6  A    between atoms: S_10  and  C_11 
REMARK    7  A    between atoms: C_11  and  C_12 
REMARK    8  A    between atoms: C_12  and  C_26 
REMARK    9  A    between atoms: C_12  and  N_16 
REMARK       I    between atoms: N_13  and  C_26 
REMARK   10  A    between atoms: O_19  and  C_21 
REMARK   11  A    between atoms: O_19  and  P_27 
ROOT
HETATM    1  C           1     -21.342  -7.418  -1.585  0.00  0.00     0.189 C 
ENDROOT
BRANCH   1   2
HETATM    2  C           1     -21.936  -7.754  -0.239  0.00  0.00     0.197 C 
HETATM    3  O           1     -23.133  -7.482   0.001  0.00  0.00    -0.646 OA
HETATM    4  O           1     -21.233  -8.305   0.635  0.00  0.00    -0.646 OA
ENDBRANCH   1   2
BRANCH   1   5
HETATM    5  C           1     -22.223  -6.394  -2.288  0.00  0.00     0.074 C 
BRANCH   5   6
HETATM    6  C           1     -21.750  -6.211  -3.696  0.00  0.00    -0.056 A 
HETATM    7  C           1     -20.618  -5.440  -3.957  0.00  0.00     0.010 A 
HETATM    8  C           1     -20.177  -5.269  -5.269  0.00  0.00     0.038 A 
HETATM    9  C           1     -20.870  -5.868  -6.321  0.00  0.00     0.081 A 
HETATM   10  C           1     -22.002  -6.640  -6.061  0.00  0.00     0.038 A 
HETATM   11  C           1     -22.443  -6.810  -4.748  0.00  0.00     0.010 A 
BRANCH   9  12
HETATM   12  O           1     -20.442  -5.703  -7.596  0.00  0.00    -0.247 OA
BRANCH  12  13
HETATM   13  P           1     -21.087  -4.502  -8.462  0.00  0.00     0.411 P 
HETATM   14  O           1     -21.482  -3.399  -7.558  0.00  0.00    -0.624 OA
HETATM   15  O           1     -20.091  -4.007  -9.439  0.00  0.00    -0.624 OA
BRANCH  13  16
HETATM   16  O           1     -22.388  -5.046  -9.250  0.00  0.00    -0.300 OA
HETATM   17  H           1     -22.980  -4.313  -9.277  0.00  0.00     0.223 HD
ENDBRANCH  13  16
ENDBRANCH  12  13
ENDBRANCH   9  12
ENDBRANCH   5   6
ENDBRANCH   1   5
BRANCH   1  18
HETATM   18  N           1     -21.262  -8.620  -2.392  0.00  0.00    -0.344 N 
HETATM   19  C           1     -20.071  -9.281  -2.519  0.00  0.00     0.249 C 
HETATM   20  O           1     -19.775 -10.151  -1.735  0.00  0.00    -0.271 OA
HETATM   21  H           1     -22.087  -8.971  -2.860  0.00  0.00     0.163 HD
BRANCH  19  22
HETATM   22  C           1     -19.124  -8.921  -3.638  0.00  0.00     0.283 C 
BRANCH  22  23
HETATM   23  C           1     -19.617  -9.542  -4.939  0.00  0.00     0.113 C 
BRANCH  23  24
HETATM   24  S           1     -18.243 -10.400  -5.759  0.00  0.00    -0.180 SA
HETATM   25  H           1     -17.694 -10.892  -4.634  0.00  0.00     0.101 HD
ENDBRANCH  23  24
ENDBRANCH  22  23
BRANCH  22  26
HETATM   26  N           1     -17.754  -9.445  -3.323  0.00  0.00    -0.066 N 
HETATM   27  H           1     -17.078  -8.650  -3.282  0.00  0.00     0.275 HD
HETATM   28  H           1     -17.773  -9.934  -2.399  0.00  0.00     0.275 HD
HETATM   29  H           1     -17.459 -10.117  -4.066  0.00  0.00     0.275 HD
ENDBRANCH  22  26
ENDBRANCH  19  22
ENDBRANCH   1  18
TORSDOF 11
ENDMDL
