MODEL 1
REMARK VINA RESULT:      -7.6      0.000      0.000
REMARK  8 active torsions:
REMARK  status: ('A' for Active; 'I' for Inactive)
REMARK    1  A    between atoms: C_4  and  C_21 
REMARK    2  A    between atoms: C_4  and  O_6 
REMARK    3  A    between atoms: N_8  and  C_22 
REMARK       I    between atoms: N_8  and  C_28 
REMARK    4  A    between atoms: C_12  and  C_14 
REMARK    5  A    between atoms: C_14  and  C_22 
REMARK    6  A    between atoms: C_17  and  C_22 
REMARK    7  A    between atoms: C_21  and  C_28 
REMARK    8  A    between atoms: C_21  and  N_26 
ROOT
HETATM    1  C           1     -21.921  -6.578  -5.551  0.00  0.00     0.190 C 
ENDROOT
BRANCH   1   2
HETATM    2  N           1     -22.387  -6.360  -4.196  0.00  0.00    -0.344 N 
HETATM    3  C           1     -21.535  -6.549  -3.140  0.00  0.00     0.251 C 
HETATM    4  O           1     -20.864  -5.632  -2.734  0.00  0.00    -0.271 OA
HETATM    5  H           1     -23.341  -6.067  -4.030  0.00  0.00     0.163 HD
BRANCH   3   6
HETATM    6  C           1     -21.437  -7.904  -2.485  0.00  0.00     0.302 C 
BRANCH   6   7
HETATM    7  C           1     -22.190  -7.884  -1.161  0.00  0.00     0.153 C 
HETATM    8  C           1     -21.238  -8.251  -0.030  0.00  0.00     0.042 C 
BRANCH   7   9
HETATM    9  O           1     -22.709  -6.601  -0.937  0.00  0.00    -0.393 OA
HETATM   10  H           1     -23.592  -6.713  -0.629  0.00  0.00     0.210 HD
ENDBRANCH   7   9
ENDBRANCH   6   7
BRANCH   6  11
HETATM   11  N           1     -19.995  -8.234  -2.233  0.00  0.00    -0.064 N 
HETATM   12  H           1     -19.886  -8.593  -1.257  0.00  0.00     0.275 HD
HETATM   13  H           1     -19.681  -8.964  -2.911  0.00  0.00     0.275 HD
HETATM   14  H           1     -19.414  -7.374  -2.354  0.00  0.00     0.275 HD
ENDBRANCH   6  11
ENDBRANCH   3   6
ENDBRANCH   1   2
BRANCH   1  15
HETATM   15  C           1     -21.260  -5.307  -6.069  0.00  0.00     0.077 C 
BRANCH  15  16
HETATM   16  C           1     -22.056  -4.761  -7.215  0.00  0.00    -0.028 A 
HETATM   17  C           1     -21.571  -4.513  -8.528  0.00  0.00    -0.002 A 
HETATM   18  C           1     -22.640  -4.009  -9.272  0.00  0.00     0.042 A 
HETATM   19  C           1     -20.321  -4.668  -9.158  0.00  0.00     0.014 A 
HETATM   20  N           1     -23.728  -3.958  -8.430  0.00  0.00    -0.365 N 
HETATM   21  C           1     -22.520  -3.652 -10.620  0.00  0.00     0.030 A 
HETATM   22  C           1     -23.386  -4.411  -7.184  0.00  0.00     0.096 A 
HETATM   23  H           1     -24.684  -3.621  -8.706  0.00  0.00     0.165 HD
HETATM   24  C           1     -21.269  -3.816 -11.223  0.00  0.00     0.002 A 
HETATM   25  C           1     -20.185  -4.316 -10.506  0.00  0.00     0.001 A 
ENDBRANCH  15  16
ENDBRANCH   1  15
BRANCH   1  26
HETATM   26  C           1     -20.919  -7.707  -5.562  0.00  0.00     0.197 C 
HETATM   27  O           1     -19.701  -7.463  -5.428  0.00  0.00    -0.646 OA
HETATM   28  O           1     -21.308  -8.886  -5.706  0.00  0.00    -0.646 OA
ENDBRANCH   1  26
TORSDOF 8
ENDMDL
MODEL 2
REMARK VINA RESULT:      -7.5      1.739      2.168
REMARK  8 active torsions:
REMARK  status: ('A' for Active; 'I' for Inactive)
REMARK    1  A    between atoms: C_4  and  C_21 
REMARK    2  A    between atoms: C_4  and  O_6 
REMARK    3  A    between atoms: N_8  and  C_22 
REMARK       I    between atoms: N_8  and  C_28 
REMARK    4  A    between atoms: C_12  and  C_14 
REMARK    5  A    between atoms: C_14  and  C_22 
REMARK    6  A    between atoms: C_17  and  C_22 
REMARK    7  A    between atoms: C_21  and  C_28 
REMARK    8  A    between atoms: C_21  and  N_26 
ROOT
HETATM    1  C           1     -21.139  -6.023  -7.149  0.00  0.00     0.190 C 
ENDROOT
BRANCH   1   2
HETATM    2  N           1     -21.745  -6.944  -6.209  0.00  0.00    -0.344 N 
HETATM    3  C           1     -22.237  -6.482  -5.017  0.00  0.00     0.251 C 
HETATM    4  O           1     -23.387  -6.119  -4.939  0.00  0.00    -0.271 OA
HETATM    5  H           1     -21.806  -7.928  -6.433  0.00  0.00     0.163 HD
BRANCH   3   6
HETATM    6  C           1     -21.344  -6.425  -3.804  0.00  0.00     0.302 C 
BRANCH   6   7
HETATM    7  C           1     -20.818  -7.822  -3.494  0.00  0.00     0.153 C 
HETATM    8  C           1     -20.589  -7.956  -1.994  0.00  0.00     0.042 C 
BRANCH   7   9
HETATM    9  O           1     -21.756  -8.777  -3.910  0.00  0.00    -0.393 OA
HETATM   10  H           1     -21.883  -8.651  -4.836  0.00  0.00     0.210 HD
ENDBRANCH   7   9
ENDBRANCH   6   7
BRANCH   6  11
HETATM   11  N           1     -22.127  -5.916  -2.630  0.00  0.00    -0.064 N 
HETATM   12  H           1     -21.486  -5.788  -1.814  0.00  0.00     0.275 HD
HETATM   13  H           1     -22.567  -5.001  -2.875  0.00  0.00     0.275 HD
HETATM   14  H           1     -22.872  -6.605  -2.381  0.00  0.00     0.275 HD
ENDBRANCH   6  11
ENDBRANCH   3   6
ENDBRANCH   1   2
BRANCH   1  15
HETATM   15  C           1     -21.708  -4.627  -6.928  0.00  0.00     0.077 C 
BRANCH  15  16
HETATM   16  C           1     -22.576  -4.252  -8.089  0.00  0.00    -0.028 A 
HETATM   17  C           1     -22.131  -3.945  -9.404  0.00  0.00    -0.002 A 
HETATM   18  C           1     -23.264  -3.653 -10.164  0.00  0.00     0.042 A 
HETATM   19  C           1     -20.867  -3.887 -10.023  0.00  0.00     0.014 A 
HETATM   20  N           1     -24.353  -3.781  -9.331  0.00  0.00    -0.365 N 
HETATM   21  C           1     -23.196  -3.304 -11.518  0.00  0.00     0.030 A 
HETATM   22  C           1     -23.948  -4.143  -8.074  0.00  0.00     0.096 A 
HETATM   23  H           1     -25.350  -3.624  -9.619  0.00  0.00     0.165 HD
HETATM   24  C           1     -21.930  -3.254 -12.110  0.00  0.00     0.002 A 
HETATM   25  C           1     -20.781  -3.540 -11.376  0.00  0.00     0.001 A 
ENDBRANCH  15  16
ENDBRANCH   1  15
BRANCH   1  26
HETATM   26  C           1     -19.645  -5.997  -6.935  0.00  0.00     0.197 C 
HETATM   27  O           1     -19.016  -4.922  -7.044  0.00  0.00    -0.646 OA
HETATM   28  O           1     -19.036  -7.051  -6.650  0.00  0.00    -0.646 OA
ENDBRANCH   1  26
TORSDOF 8
ENDMDL
MODEL 3
REMARK VINA RESULT:      -7.2     14.497     17.268
REMARK  8 active torsions:
REMARK  status: ('A' for Active; 'I' for Inactive)
REMARK    1  A    between atoms: C_4  and  C_21 
REMARK    2  A    between atoms: C_4  and  O_6 
REMARK    3  A    between atoms: N_8  and  C_22 
REMARK       I    between atoms: N_8  and  C_28 
REMARK    4  A    between atoms: C_12  and  C_14 
REMARK    5  A    between atoms: C_14  and  C_22 
REMARK    6  A    between atoms: C_17  and  C_22 
REMARK    7  A    between atoms: C_21  and  C_28 
REMARK    8  A    between atoms: C_21  and  N_26 
ROOT
HETATM    1  C           1     -36.885  -0.388 -11.090  0.00  0.00     0.190 C 
ENDROOT
BRANCH   1   2
HETATM    2  N           1     -37.127   0.327 -12.327  0.00  0.00    -0.344 N 
HETATM    3  C           1     -36.962  -0.310 -13.529  0.00  0.00     0.251 C 
HETATM    4  O           1     -37.890  -0.892 -14.037  0.00  0.00    -0.271 OA
HETATM    5  H           1     -37.418   1.295 -12.304  0.00  0.00     0.163 HD
BRANCH   3   6
HETATM    6  C           1     -35.620  -0.283 -14.217  0.00  0.00     0.302 C 
BRANCH   6   7
HETATM    7  C           1     -35.772   0.330 -15.604  0.00  0.00     0.153 C 
HETATM    8  C           1     -35.855  -0.780 -16.643  0.00  0.00     0.042 C 
BRANCH   7   9
HETATM    9  O           1     -36.942   1.100 -15.648  0.00  0.00    -0.393 OA
HETATM   10  H           1     -36.680   2.002 -15.568  0.00  0.00     0.210 HD
ENDBRANCH   7   9
ENDBRANCH   6   7
BRANCH   6  11
HETATM   11  N           1     -35.097  -1.683 -14.347  0.00  0.00    -0.064 N 
HETATM   12  H           1     -34.155  -1.662 -14.800  0.00  0.00     0.275 HD
HETATM   13  H           1     -35.018  -2.115 -13.398  0.00  0.00     0.275 HD
HETATM   14  H           1     -35.752  -2.249 -14.933  0.00  0.00     0.275 HD
ENDBRANCH   6  11
ENDBRANCH   3   6
ENDBRANCH   1   2
BRANCH   1  15
HETATM   15  C           1     -35.460  -0.926 -11.085  0.00  0.00     0.077 C 
BRANCH  15  16
HETATM   16  C           1     -35.488  -2.413 -10.909  0.00  0.00    -0.028 A 
HETATM   17  C           1     -34.420  -3.309 -11.187  0.00  0.00    -0.002 A 
HETATM   18  C           1     -34.872  -4.595 -10.884  0.00  0.00     0.042 A 
HETATM   19  C           1     -33.106  -3.150 -11.668  0.00  0.00     0.014 A 
HETATM   20  N           1     -36.170  -4.471 -10.440  0.00  0.00    -0.365 N 
HETATM   21  C           1     -34.073  -5.733 -11.040  0.00  0.00     0.030 A 
HETATM   22  C           1     -36.552  -3.156 -10.452  0.00  0.00     0.096 A 
HETATM   23  H           1     -36.778  -5.271 -10.136  0.00  0.00     0.165 HD
HETATM   24  C           1     -32.772  -5.549 -11.519  0.00  0.00     0.002 A 
HETATM   25  C           1     -32.293  -4.279 -11.829  0.00  0.00     0.001 A 
ENDBRANCH  15  16
ENDBRANCH   1  15
BRANCH   1  26
HETATM   26  C           1     -37.073   0.550  -9.923  0.00  0.00     0.197 C 
HETATM   27  O           1     -38.074   1.298  -9.877  0.00  0.00    -0.646 OA
HETATM   28  O           1     -36.228   0.580  -9.002  0.00  0.00    -0.646 OA
ENDBRANCH   1  26
TORSDOF 8
ENDMDL
MODEL 4
REMARK VINA RESULT:      -7.1     13.992     16.847
REMARK  8 active torsions:
REMARK  status: ('A' for Active; 'I' for Inactive)
REMARK    1  A    between atoms: C_4  and  C_21 
REMARK    2  A    between atoms: C_4  and  O_6 
REMARK    3  A    between atoms: N_8  and  C_22 
REMARK       I    between atoms: N_8  and  C_28 
REMARK    4  A    between atoms: C_12  and  C_14 
REMARK    5  A    between atoms: C_14  and  C_22 
REMARK    6  A    between atoms: C_17  and  C_22 
REMARK    7  A    between atoms: C_21  and  C_28 
REMARK    8  A    between atoms: C_21  and  N_26 
ROOT
HETATM    1  C           1     -35.363  -2.079 -11.620  0.00  0.00     0.190 C 
ENDROOT
BRANCH   1   2
HETATM    2  N           1     -34.851  -1.420 -12.806  0.00  0.00    -0.344 N 
HETATM    3  C           1     -35.473  -0.298 -13.287  0.00  0.00     0.251 C 
HETATM    4  O           1     -35.132   0.794 -12.901  0.00  0.00    -0.271 OA
HETATM    5  H           1     -34.035  -1.787 -13.276  0.00  0.00     0.163 HD
BRANCH   3   6
HETATM    6  C           1     -36.583  -0.428 -14.300  0.00  0.00     0.302 C 
BRANCH   6   7
HETATM    7  C           1     -36.147   0.205 -15.616  0.00  0.00     0.153 C 
HETATM    8  C           1     -36.095  -0.864 -16.700  0.00  0.00     0.042 C 
BRANCH   7   9
HETATM    9  O           1     -37.065   1.198 -15.983  0.00  0.00    -0.393 OA
HETATM   10  H           1     -36.563   1.957 -16.230  0.00  0.00     0.210 HD
ENDBRANCH   7   9
ENDBRANCH   6   7
BRANCH   6  11
HETATM   11  N           1     -37.808   0.272 -13.792  0.00  0.00    -0.064 N 
HETATM   12  H           1     -38.550  -0.433 -13.582  0.00  0.00     0.275 HD
HETATM   13  H           1     -37.571   0.800 -12.921  0.00  0.00     0.275 HD
HETATM   14  H           1     -38.157   0.938 -14.518  0.00  0.00     0.275 HD
ENDBRANCH   6  11
ENDBRANCH   3   6
ENDBRANCH   1   2
BRANCH   1  15
HETATM   15  C           1     -34.210  -2.380 -10.670  0.00  0.00     0.077 C 
BRANCH  15  16
HETATM   16  C           1     -33.607  -3.705 -11.021  0.00  0.00    -0.028 A 
HETATM   17  C           1     -34.071  -4.977 -10.589  0.00  0.00    -0.002 A 
HETATM   18  C           1     -33.222  -5.935 -11.146  0.00  0.00     0.042 A 
HETATM   19  C           1     -35.136  -5.408  -9.774  0.00  0.00     0.014 A 
HETATM   20  N           1     -32.280  -5.257 -11.887  0.00  0.00    -0.365 N 
HETATM   21  C           1     -33.386  -7.308 -10.928  0.00  0.00     0.030 A 
HETATM   22  C           1     -32.504  -3.908 -11.819  0.00  0.00     0.096 A 
HETATM   23  H           1     -31.503  -5.711 -12.428  0.00  0.00     0.165 HD
HETATM   24  C           1     -34.451  -7.711 -10.115  0.00  0.00     0.002 A 
HETATM   25  C           1     -35.314  -6.778  -9.546  0.00  0.00     0.001 A 
ENDBRANCH  15  16
ENDBRANCH   1  15
BRANCH   1  26
HETATM   26  C           1     -36.359  -1.176 -10.934  0.00  0.00     0.197 C 
HETATM   27  O           1     -37.578  -1.282 -11.188  0.00  0.00    -0.646 OA
HETATM   28  O           1     -35.964  -0.321 -10.111  0.00  0.00    -0.646 OA
ENDBRANCH   1  26
TORSDOF 8
ENDMDL
MODEL 5
REMARK VINA RESULT:      -7.0      2.296      7.045
REMARK  8 active torsions:
REMARK  status: ('A' for Active; 'I' for Inactive)
REMARK    1  A    between atoms: C_4  and  C_21 
REMARK    2  A    between atoms: C_4  and  O_6 
REMARK    3  A    between atoms: N_8  and  C_22 
REMARK       I    between atoms: N_8  and  C_28 
REMARK    4  A    between atoms: C_12  and  C_14 
REMARK    5  A    between atoms: C_14  and  C_22 
REMARK    6  A    between atoms: C_17  and  C_22 
REMARK    7  A    between atoms: C_21  and  C_28 
REMARK    8  A    between atoms: C_21  and  N_26 
ROOT
HETATM    1  C           1     -19.971  -8.055  -4.901  0.00  0.00     0.190 C 
ENDROOT
BRANCH   1   2
HETATM    2  N           1     -19.938  -7.161  -6.041  0.00  0.00    -0.344 N 
HETATM    3  C           1     -20.587  -5.956  -5.984  0.00  0.00     0.251 C 
HETATM    4  O           1     -20.009  -4.976  -5.581  0.00  0.00    -0.271 OA
HETATM    5  H           1     -19.434  -7.425  -6.877  0.00  0.00     0.163 HD
BRANCH   3   6
HETATM    6  C           1     -22.026  -5.855  -6.426  0.00  0.00     0.302 C 
BRANCH   6   7
HETATM    7  C           1     -22.229  -4.559  -7.202  0.00  0.00     0.153 C 
HETATM    8  C           1     -21.676  -4.721  -8.612  0.00  0.00     0.042 C 
BRANCH   7   9
HETATM    9  O           1     -23.598  -4.264  -7.269  0.00  0.00    -0.393 OA
HETATM   10  H           1     -23.970  -4.837  -7.918  0.00  0.00     0.210 HD
ENDBRANCH   7   9
ENDBRANCH   6   7
BRANCH   6  11
HETATM   11  N           1     -22.920  -5.859  -5.222  0.00  0.00    -0.064 N 
HETATM   12  H           1     -23.798  -6.383  -5.443  0.00  0.00     0.275 HD
HETATM   13  H           1     -22.428  -6.323  -4.425  0.00  0.00     0.275 HD
HETATM   14  H           1     -23.159  -4.877  -4.960  0.00  0.00     0.275 HD
ENDBRANCH   6  11
ENDBRANCH   3   6
ENDBRANCH   1   2
BRANCH   1  15
HETATM   15  C           1     -21.261  -8.865  -4.929  0.00  0.00     0.077 C 
BRANCH  15  16
HETATM   16  C           1     -21.527  -9.429  -3.568  0.00  0.00    -0.028 A 
HETATM   17  C           1     -21.814  -8.680  -2.393  0.00  0.00    -0.002 A 
HETATM   18  C           1     -21.994  -9.597  -1.356  0.00  0.00     0.042 A 
HETATM   19  C           1     -21.939  -7.306  -2.112  0.00  0.00     0.014 A 
HETATM   20  N           1     -21.820 -10.853  -1.892  0.00  0.00    -0.365 N 
HETATM   21  C           1     -22.294  -9.205  -0.046  0.00  0.00     0.030 A 
HETATM   22  C           1     -21.537 -10.763  -3.229  0.00  0.00     0.096 A 
HETATM   23  H           1     -21.894 -11.751  -1.353  0.00  0.00     0.165 HD
HETATM   24  C           1     -22.413  -7.835   0.208  0.00  0.00     0.002 A 
HETATM   25  C           1     -22.239  -6.898  -0.807  0.00  0.00     0.001 A 
ENDBRANCH  15  16
ENDBRANCH   1  15
BRANCH   1  26
HETATM   26  C           1     -18.788  -8.990  -4.962  0.00  0.00     0.197 C 
HETATM   27  O           1     -18.486  -9.548  -6.039  0.00  0.00    -0.646 OA
HETATM   28  O           1     -18.109  -9.208  -3.934  0.00  0.00    -0.646 OA
ENDBRANCH   1  26
TORSDOF 8
ENDMDL
MODEL 6
REMARK VINA RESULT:      -7.0      2.481      7.594
REMARK  8 active torsions:
REMARK  status: ('A' for Active; 'I' for Inactive)
REMARK    1  A    between atoms: C_4  and  C_21 
REMARK    2  A    between atoms: C_4  and  O_6 
REMARK    3  A    between atoms: N_8  and  C_22 
REMARK       I    between atoms: N_8  and  C_28 
REMARK    4  A    between atoms: C_12  and  C_14 
REMARK    5  A    between atoms: C_14  and  C_22 
REMARK    6  A    between atoms: C_17  and  C_22 
REMARK    7  A    between atoms: C_21  and  C_28 
REMARK    8  A    between atoms: C_21  and  N_26 
ROOT
HETATM    1  C           1     -21.268  -7.544  -5.183  0.00  0.00     0.190 C 
ENDROOT
BRANCH   1   2
HETATM    2  N           1     -20.308  -6.886  -6.047  0.00  0.00    -0.344 N 
HETATM    3  C           1     -20.495  -5.577  -6.405  0.00  0.00     0.251 C 
HETATM    4  O           1     -20.035  -4.693  -5.724  0.00  0.00    -0.271 OA
HETATM    5  H           1     -19.500  -7.392  -6.383  0.00  0.00     0.163 HD
BRANCH   3   6
HETATM    6  C           1     -21.276  -5.241  -7.651  0.00  0.00     0.302 C 
BRANCH   6   7
HETATM    7  C           1     -20.321  -4.758  -8.735  0.00  0.00     0.153 C 
HETATM    8  C           1     -21.122  -4.251  -9.927  0.00  0.00     0.042 C 
BRANCH   7   9
HETATM    9  O           1     -19.528  -3.719  -8.229  0.00  0.00    -0.393 OA
HETATM   10  H           1     -18.695  -3.772  -8.667  0.00  0.00     0.210 HD
ENDBRANCH   7   9
ENDBRANCH   6   7
BRANCH   6  11
HETATM   11  N           1     -22.268  -4.159  -7.342  0.00  0.00    -0.064 N 
HETATM   12  H           1     -21.761  -3.304  -7.018  0.00  0.00     0.275 HD
HETATM   13  H           1     -22.817  -3.934  -8.202  0.00  0.00     0.275 HD
HETATM   14  H           1     -22.917  -4.483  -6.590  0.00  0.00     0.275 HD
ENDBRANCH   6  11
ENDBRANCH   3   6
ENDBRANCH   1   2
BRANCH   1  15
HETATM   15  C           1     -20.528  -8.368  -4.137  0.00  0.00     0.077 C 
BRANCH  15  16
HETATM   16  C           1     -21.385  -9.519  -3.709  0.00  0.00    -0.028 A 
HETATM   17  C           1     -22.026  -9.662  -2.448  0.00  0.00    -0.002 A 
HETATM   18  C           1     -22.718 -10.874  -2.473  0.00  0.00     0.042 A 
HETATM   19  C           1     -22.084  -8.874  -1.282  0.00  0.00     0.014 A 
HETATM   20  N           1     -22.497 -11.438  -3.710  0.00  0.00    -0.365 N 
HETATM   21  C           1     -23.468 -11.339  -1.387  0.00  0.00     0.030 A 
HETATM   22  C           1     -21.692 -10.627  -4.465  0.00  0.00     0.096 A 
HETATM   23  H           1     -22.891 -12.358  -4.028  0.00  0.00     0.165 HD
HETATM   24  C           1     -23.511 -10.538  -0.241  0.00  0.00     0.002 A 
HETATM   25  C           1     -22.831  -9.324  -0.187  0.00  0.00     0.001 A 
ENDBRANCH  15  16
ENDBRANCH   1  15
BRANCH   1  26
HETATM   26  C           1     -22.120  -6.506  -4.495  0.00  0.00     0.197 C 
HETATM   27  O           1     -21.754  -6.020  -3.404  0.00  0.00    -0.646 OA
HETATM   28  O           1     -23.194  -6.132  -5.017  0.00  0.00    -0.646 OA
ENDBRANCH   1  26
TORSDOF 8
ENDMDL
MODEL 7
REMARK VINA RESULT:      -6.9      2.338      7.017
REMARK  8 active torsions:
REMARK  status: ('A' for Active; 'I' for Inactive)
REMARK    1  A    between atoms: C_4  and  C_21 
REMARK    2  A    between atoms: C_4  and  O_6 
REMARK    3  A    between atoms: N_8  and  C_22 
REMARK       I    between atoms: N_8  and  C_28 
REMARK    4  A    between atoms: C_12  and  C_14 
REMARK    5  A    between atoms: C_14  and  C_22 
REMARK    6  A    between atoms: C_17  and  C_22 
REMARK    7  A    between atoms: C_21  and  C_28 
REMARK    8  A    between atoms: C_21  and  N_26 
ROOT
HETATM    1  C           1     -19.793  -7.717  -5.082  0.00  0.00     0.190 C 
ENDROOT
BRANCH   1   2
HETATM    2  N           1     -19.611  -7.084  -6.373  0.00  0.00    -0.344 N 
HETATM    3  C           1     -20.148  -5.846  -6.610  0.00  0.00     0.251 C 
HETATM    4  O           1     -19.506  -4.853  -6.370  0.00  0.00    -0.271 OA
HETATM    5  H           1     -19.086  -7.554  -7.098  0.00  0.00     0.163 HD
BRANCH   3   6
HETATM    6  C           1     -21.543  -5.726  -7.172  0.00  0.00     0.302 C 
BRANCH   6   7
HETATM    7  C           1     -21.475  -5.160  -8.585  0.00  0.00     0.153 C 
HETATM    8  C           1     -22.112  -3.777  -8.607  0.00  0.00     0.042 C 
BRANCH   7   9
HETATM    9  O           1     -20.135  -5.063  -8.985  0.00  0.00    -0.393 OA
HETATM   10  H           1     -20.081  -4.341  -9.588  0.00  0.00     0.210 HD
ENDBRANCH   7   9
ENDBRANCH   6   7
BRANCH   6  11
HETATM   11  N           1     -22.353  -4.807  -6.305  0.00  0.00    -0.064 N 
HETATM   12  H           1     -22.128  -4.989  -5.301  0.00  0.00     0.275 HD
HETATM   13  H           1     -22.125  -3.815  -6.541  0.00  0.00     0.275 HD
HETATM   14  H           1     -23.371  -4.979  -6.469  0.00  0.00     0.275 HD
ENDBRANCH   6  11
ENDBRANCH   3   6
ENDBRANCH   1   2
BRANCH   1  15
HETATM   15  C           1     -21.280  -7.935  -4.830  0.00  0.00     0.077 C 
BRANCH  15  16
HETATM   16  C           1     -21.648  -7.373  -3.492  0.00  0.00    -0.028 A 
HETATM   17  C           1     -21.800  -8.110  -2.286  0.00  0.00    -0.002 A 
HETATM   18  C           1     -22.145  -7.198  -1.287  0.00  0.00     0.042 A 
HETATM   19  C           1     -21.676  -9.472  -1.946  0.00  0.00     0.014 A 
HETATM   20  N           1     -22.199  -5.955  -1.877  0.00  0.00    -0.365 N 
HETATM   21  C           1     -22.374  -7.582   0.039  0.00  0.00     0.030 A 
HETATM   22  C           1     -21.899  -6.049  -3.210  0.00  0.00     0.096 A 
HETATM   23  H           1     -22.434  -5.063  -1.375  0.00  0.00     0.165 HD
HETATM   24  C           1     -22.245  -8.939   0.351  0.00  0.00     0.002 A 
HETATM   25  C           1     -21.901  -9.872  -0.624  0.00  0.00     0.001 A 
ENDBRANCH  15  16
ENDBRANCH   1  15
BRANCH   1  26
HETATM   26  C           1     -19.080  -9.047  -5.070  0.00  0.00     0.197 C 
HETATM   27  O           1     -18.418  -9.392  -4.068  0.00  0.00    -0.646 OA
HETATM   28  O           1     -19.152  -9.804  -6.062  0.00  0.00    -0.646 OA
ENDBRANCH   1  26
TORSDOF 8
ENDMDL
MODEL 8
REMARK VINA RESULT:      -6.9      2.306      3.148
REMARK  8 active torsions:
REMARK  status: ('A' for Active; 'I' for Inactive)
REMARK    1  A    between atoms: C_4  and  C_21 
REMARK    2  A    between atoms: C_4  and  O_6 
REMARK    3  A    between atoms: N_8  and  C_22 
REMARK       I    between atoms: N_8  and  C_28 
REMARK    4  A    between atoms: C_12  and  C_14 
REMARK    5  A    between atoms: C_14  and  C_22 
REMARK    6  A    between atoms: C_17  and  C_22 
REMARK    7  A    between atoms: C_21  and  C_28 
REMARK    8  A    between atoms: C_21  and  N_26 
ROOT
HETATM    1  C           1     -20.957  -9.299  -4.374  0.00  0.00     0.190 C 
ENDROOT
BRANCH   1   2
HETATM    2  N           1     -20.740  -9.764  -3.019  0.00  0.00    -0.344 N 
HETATM    3  C           1     -21.564  -9.339  -2.010  0.00  0.00     0.251 C 
HETATM    4  O           1     -22.562  -9.963  -1.742  0.00  0.00    -0.271 OA
HETATM    5  H           1     -19.982 -10.402  -2.818  0.00  0.00     0.163 HD
BRANCH   3   6
HETATM    6  C           1     -21.223  -8.092  -1.233  0.00  0.00     0.302 C 
BRANCH   6   7
HETATM    7  C           1     -20.991  -8.450   0.229  0.00  0.00     0.153 C 
HETATM    8  C           1     -22.183  -7.990   1.058  0.00  0.00     0.042 C 
BRANCH   7   9
HETATM    9  O           1     -20.846  -9.839   0.352  0.00  0.00    -0.393 OA
HETATM   10  H           1     -21.708 -10.212   0.277  0.00  0.00     0.210 HD
ENDBRANCH   7   9
ENDBRANCH   6   7
BRANCH   6  11
HETATM   11  N           1     -22.357  -7.115  -1.334  0.00  0.00    -0.064 N 
HETATM   12  H           1     -22.151  -6.419  -2.085  0.00  0.00     0.275 HD
HETATM   13  H           1     -23.238  -7.627  -1.564  0.00  0.00     0.275 HD
HETATM   14  H           1     -22.472  -6.618  -0.422  0.00  0.00     0.275 HD
ENDBRANCH   6  11
ENDBRANCH   3   6
ENDBRANCH   1   2
BRANCH   1  15
HETATM   15  C           1     -20.156  -8.025  -4.608  0.00  0.00     0.077 C 
BRANCH  15  16
HETATM   16  C           1     -21.049  -6.972  -5.187  0.00  0.00    -0.028 A 
HETATM   17  C           1     -20.677  -5.992  -6.148  0.00  0.00    -0.002 A 
HETATM   18  C           1     -21.809  -5.218  -6.406  0.00  0.00     0.042 A 
HETATM   19  C           1     -19.480  -5.688  -6.825  0.00  0.00     0.014 A 
HETATM   20  N           1     -22.826  -5.718  -5.624  0.00  0.00    -0.365 N 
HETATM   21  C           1     -21.804  -4.151  -7.312  0.00  0.00     0.030 A 
HETATM   22  C           1     -22.378  -6.779  -4.883  0.00  0.00     0.096 A 
HETATM   23  H           1     -23.806  -5.340  -5.601  0.00  0.00     0.165 HD
HETATM   24  C           1     -20.604  -3.870  -7.972  0.00  0.00     0.002 A 
HETATM   25  C           1     -19.458  -4.625  -7.735  0.00  0.00     0.001 A 
ENDBRANCH  15  16
ENDBRANCH   1  15
BRANCH   1  26
HETATM   26  C           1     -20.508 -10.362  -5.347  0.00  0.00     0.197 C 
HETATM   27  O           1     -21.183 -10.597  -6.372  0.00  0.00    -0.646 OA
HETATM   28  O           1     -19.460 -11.008  -5.128  0.00  0.00    -0.646 OA
ENDBRANCH   1  26
TORSDOF 8
ENDMDL
MODEL 9
REMARK VINA RESULT:      -6.9      4.309      8.155
REMARK  8 active torsions:
REMARK  status: ('A' for Active; 'I' for Inactive)
REMARK    1  A    between atoms: C_4  and  C_21 
REMARK    2  A    between atoms: C_4  and  O_6 
REMARK    3  A    between atoms: N_8  and  C_22 
REMARK       I    between atoms: N_8  and  C_28 
REMARK    4  A    between atoms: C_12  and  C_14 
REMARK    5  A    between atoms: C_14  and  C_22 
REMARK    6  A    between atoms: C_17  and  C_22 
REMARK    7  A    between atoms: C_21  and  C_28 
REMARK    8  A    between atoms: C_21  and  N_26 
ROOT
HETATM    1  C           1     -21.234  -7.826  -2.983  0.00  0.00     0.190 C 
ENDROOT
BRANCH   1   2
HETATM    2  N           1     -20.318  -7.974  -4.096  0.00  0.00    -0.344 N 
HETATM    3  C           1     -20.675  -8.731  -5.180  0.00  0.00     0.251 C 
HETATM    4  O           1     -21.248  -8.220  -6.112  0.00  0.00    -0.271 OA
HETATM    5  H           1     -19.416  -7.518  -4.073  0.00  0.00     0.163 HD
BRANCH   3   6
HETATM    6  C           1     -20.352 -10.205  -5.209  0.00  0.00     0.302 C 
BRANCH   6   7
HETATM    7  C           1     -18.862 -10.393  -5.462  0.00  0.00     0.153 C 
HETATM    8  C           1     -18.645 -11.650  -6.296  0.00  0.00     0.042 C 
BRANCH   7   9
HETATM    9  O           1     -18.361  -9.282  -6.154  0.00  0.00    -0.393 OA
HETATM   10  H           1     -19.056  -8.967  -6.707  0.00  0.00     0.210 HD
ENDBRANCH   7   9
ENDBRANCH   6   7
BRANCH   6  11
HETATM   11  N           1     -21.132 -10.865  -6.307  0.00  0.00    -0.064 N 
HETATM   12  H           1     -20.956 -11.895  -6.287  0.00  0.00     0.275 HD
HETATM   13  H           1     -22.152 -10.683  -6.169  0.00  0.00     0.275 HD
HETATM   14  H           1     -20.831 -10.479  -7.231  0.00  0.00     0.275 HD
ENDBRANCH   6  11
ENDBRANCH   3   6
ENDBRANCH   1   2
BRANCH   1  15
HETATM   15  C           1     -20.502  -8.122  -1.680  0.00  0.00     0.077 C 
BRANCH  15  16
HETATM   16  C           1     -20.631  -9.578  -1.354  0.00  0.00    -0.028 A 
HETATM   17  C           1     -21.785 -10.219  -0.825  0.00  0.00    -0.002 A 
HETATM   18  C           1     -21.472 -11.570  -0.674  0.00  0.00     0.042 A 
HETATM   19  C           1     -23.071  -9.777  -0.459  0.00  0.00     0.014 A 
HETATM   20  N           1     -20.172 -11.733  -1.099  0.00  0.00    -0.365 N 
HETATM   21  C           1     -22.384 -12.506  -0.174  0.00  0.00     0.030 A 
HETATM   22  C           1     -19.654 -10.534  -1.512  0.00  0.00     0.096 A 
HETATM   23  H           1     -19.653 -12.646  -1.105  0.00  0.00     0.165 HD
HETATM   24  C           1     -23.655 -12.043   0.183  0.00  0.00     0.002 A 
HETATM   25  C           1     -23.996 -10.700   0.043  0.00  0.00     0.001 A 
ENDBRANCH  15  16
ENDBRANCH   1  15
BRANCH   1  26
HETATM   26  C           1     -21.763  -6.413  -2.953  0.00  0.00     0.197 C 
HETATM   27  O           1     -22.540  -6.055  -2.041  0.00  0.00    -0.646 OA
HETATM   28  O           1     -21.425  -5.599  -3.840  0.00  0.00    -0.646 OA
ENDBRANCH   1  26
TORSDOF 8
ENDMDL
