MODEL 1
REMARK VINA RESULT:      -7.0      0.000      0.000
REMARK  10 active torsions:
REMARK  status: ('A' for Active; 'I' for Inactive)
REMARK    1  A    between atoms: S_5  and  C_6 
REMARK    2  A    between atoms: C_6  and  C_28 
REMARK    3  A    between atoms: C_7  and  C_8 
REMARK    4  A    between atoms: C_7  and  C_19 
REMARK    5  A    between atoms: C_7  and  N_15 
REMARK    6  A    between atoms: C_8  and  C_9 
REMARK    7  A    between atoms: C_9  and  C_10 
REMARK    8  A    between atoms: C_10  and  N_11 
REMARK       I    between atoms: N_11  and  C_13 
REMARK       I    between atoms: N_12  and  C_13 
REMARK       I    between atoms: C_14  and  N_15 
REMARK    9  A    between atoms: C_14  and  C_28 
REMARK   10  A    between atoms: N_21  and  C_28 
ROOT
HETATM    1  C           1     -22.686  -3.759  -9.607  0.00  0.00     0.185 C 
ENDROOT
BRANCH   1   2
HETATM    2  C           1     -22.076  -3.876 -10.998  0.00  0.00     0.038 C 
BRANCH   2   3
HETATM    3  C           1     -22.400  -2.625 -11.802  0.00  0.00     0.023 C 
BRANCH   3   4
HETATM    4  C           1     -23.190  -3.010 -13.045  0.00  0.00     0.138 C 
BRANCH   4   5
HETATM    5  N           1     -23.918  -1.835 -13.547  0.00  0.00    -0.227 N 
HETATM    6  C           1     -23.673  -1.385 -14.704  0.00  0.00     0.665 C 
HETATM    7  N           1     -22.800  -1.946 -15.430  0.00  0.00    -0.235 N 
HETATM    8  N           1     -24.316  -0.346 -15.147  0.00  0.00    -0.235 N 
HETATM    9  H           1     -22.280  -2.785 -15.071  0.00  0.00     0.174 HD
HETATM   10  H           1     -22.596  -1.573 -16.389  0.00  0.00     0.174 HD
HETATM   11  H           1     -25.037   0.117 -14.549  0.00  0.00     0.174 HD
HETATM   12  H           1     -24.114   0.026 -16.103  0.00  0.00     0.174 HD
HETATM   13  H           1     -24.642  -1.370 -12.945  0.00  0.00     0.177 HD
ENDBRANCH   4   5
ENDBRANCH   3   4
ENDBRANCH   2   3
ENDBRANCH   1   2
BRANCH   1  14
HETATM   14  C           1     -24.190  -3.818  -9.709  0.00  0.00     0.196 C 
HETATM   15  O           1     -24.872  -2.796  -9.481  0.00  0.00    -0.646 OA
HETATM   16  O           1     -24.753  -4.888 -10.023  0.00  0.00    -0.646 OA
ENDBRANCH   1  14
BRANCH   1  17
HETATM   17  N           1     -22.215  -4.853  -8.780  0.00  0.00    -0.345 N 
HETATM   18  H           1     -22.353  -5.810  -9.080  0.00  0.00     0.163 HD
HETATM   19  C           1     -21.585  -4.592  -7.592  0.00  0.00     0.249 C 
HETATM   20  O           1     -21.421  -3.450  -7.234  0.00  0.00    -0.271 OA
BRANCH  19  21
HETATM   21  C           1     -21.095  -5.731  -6.732  0.00  0.00     0.283 C 
BRANCH  21  22
HETATM   22  C           1     -20.731  -5.204  -5.350  0.00  0.00     0.113 C 
BRANCH  22  23
HETATM   23  S           1     -21.425  -6.300  -4.081  0.00  0.00    -0.180 SA
HETATM   24  H           1     -22.361  -5.437  -3.646  0.00  0.00     0.101 HD
ENDBRANCH  22  23
ENDBRANCH  21  22
BRANCH  21  25
HETATM   25  N           1     -19.884  -6.350  -7.365  0.00  0.00    -0.066 N 
HETATM   26  H           1     -20.147  -6.760  -8.290  0.00  0.00     0.275 HD
HETATM   27  H           1     -19.513  -7.105  -6.744  0.00  0.00     0.275 HD
HETATM   28  H           1     -19.151  -5.620  -7.502  0.00  0.00     0.275 HD
ENDBRANCH  21  25
ENDBRANCH  19  21
ENDBRANCH   1  17
TORSDOF 10
ENDMDL
MODEL 2
REMARK VINA RESULT:      -6.4      9.722     11.472
REMARK  10 active torsions:
REMARK  status: ('A' for Active; 'I' for Inactive)
REMARK    1  A    between atoms: S_5  and  C_6 
REMARK    2  A    between atoms: C_6  and  C_28 
REMARK    3  A    between atoms: C_7  and  C_8 
REMARK    4  A    between atoms: C_7  and  C_19 
REMARK    5  A    between atoms: C_7  and  N_15 
REMARK    6  A    between atoms: C_8  and  C_9 
REMARK    7  A    between atoms: C_9  and  C_10 
REMARK    8  A    between atoms: C_10  and  N_11 
REMARK       I    between atoms: N_11  and  C_13 
REMARK       I    between atoms: N_12  and  C_13 
REMARK       I    between atoms: C_14  and  N_15 
REMARK    9  A    between atoms: C_14  and  C_28 
REMARK   10  A    between atoms: N_21  and  C_28 
ROOT
HETATM    1  C           1     -28.597  -6.571 -16.997  0.00  0.00     0.185 C 
ENDROOT
BRANCH   1   2
HETATM    2  C           1     -29.580  -7.690 -17.314  0.00  0.00     0.038 C 
BRANCH   2   3
HETATM    3  C           1     -30.865  -7.095 -17.874  0.00  0.00     0.023 C 
BRANCH   3   4
HETATM    4  C           1     -30.945  -5.620 -17.505  0.00  0.00     0.138 C 
BRANCH   4   5
HETATM    5  N           1     -32.188  -5.367 -16.763  0.00  0.00    -0.227 N 
HETATM    6  C           1     -32.716  -4.216 -16.786  0.00  0.00     0.665 C 
HETATM    7  N           1     -32.172  -3.283 -17.448  0.00  0.00    -0.235 N 
HETATM    8  N           1     -33.816  -3.992 -16.130  0.00  0.00    -0.235 N 
HETATM    9  H           1     -31.284  -3.464 -17.977  0.00  0.00     0.174 HD
HETATM   10  H           1     -32.609  -2.329 -17.467  0.00  0.00     0.174 HD
HETATM   11  H           1     -34.265  -4.762 -15.584  0.00  0.00     0.174 HD
HETATM   12  H           1     -34.251  -3.042 -16.149  0.00  0.00     0.174 HD
HETATM   13  H           1     -32.639  -6.140 -16.215  0.00  0.00     0.177 HD
ENDBRANCH   4   5
ENDBRANCH   3   4
ENDBRANCH   2   3
ENDBRANCH   1   2
BRANCH   1  14
HETATM   14  C           1     -28.350  -6.525 -15.509  0.00  0.00     0.196 C 
HETATM   15  O           1     -27.884  -7.524 -14.921  0.00  0.00    -0.646 OA
HETATM   16  O           1     -28.611  -5.486 -14.865  0.00  0.00    -0.646 OA
ENDBRANCH   1  14
BRANCH   1  17
HETATM   17  N           1     -27.346  -6.817 -17.686  0.00  0.00    -0.345 N 
HETATM   18  H           1     -26.626  -7.376 -17.245  0.00  0.00     0.163 HD
HETATM   19  C           1     -27.137  -6.293 -18.934  0.00  0.00     0.249 C 
HETATM   20  O           1     -27.996  -5.626 -19.460  0.00  0.00    -0.271 OA
BRANCH  19  21
HETATM   21  C           1     -25.835  -6.549 -19.652  0.00  0.00     0.283 C 
BRANCH  21  22
HETATM   22  C           1     -26.059  -7.563 -20.766  0.00  0.00     0.113 C 
BRANCH  22  23
HETATM   23  S           1     -24.494  -7.865 -21.635  0.00  0.00    -0.180 SA
HETATM   24  H           1     -25.011  -8.668 -22.582  0.00  0.00     0.101 HD
ENDBRANCH  22  23
ENDBRANCH  21  22
BRANCH  21  25
HETATM   25  N           1     -24.827  -7.090 -18.681  0.00  0.00    -0.066 N 
HETATM   26  H           1     -24.301  -7.875 -19.127  0.00  0.00     0.275 HD
HETATM   27  H           1     -25.318  -7.441 -17.828  0.00  0.00     0.275 HD
HETATM   28  H           1     -24.161  -6.332 -18.412  0.00  0.00     0.275 HD
ENDBRANCH  21  25
ENDBRANCH  19  21
ENDBRANCH   1  17
TORSDOF 10
ENDMDL
MODEL 3
REMARK VINA RESULT:      -6.0      3.269      4.587
REMARK  10 active torsions:
REMARK  status: ('A' for Active; 'I' for Inactive)
REMARK    1  A    between atoms: S_5  and  C_6 
REMARK    2  A    between atoms: C_6  and  C_28 
REMARK    3  A    between atoms: C_7  and  C_8 
REMARK    4  A    between atoms: C_7  and  C_19 
REMARK    5  A    between atoms: C_7  and  N_15 
REMARK    6  A    between atoms: C_8  and  C_9 
REMARK    7  A    between atoms: C_9  and  C_10 
REMARK    8  A    between atoms: C_10  and  N_11 
REMARK       I    between atoms: N_11  and  C_13 
REMARK       I    between atoms: N_12  and  C_13 
REMARK       I    between atoms: C_14  and  N_15 
REMARK    9  A    between atoms: C_14  and  C_28 
REMARK   10  A    between atoms: N_21  and  C_28 
ROOT
HETATM    1  C           1     -21.370  -5.382  -6.778  0.00  0.00     0.185 C 
ENDROOT
BRANCH   1   2
HETATM    2  C           1     -21.866  -4.025  -7.261  0.00  0.00     0.038 C 
BRANCH   2   3
HETATM    3  C           1     -23.202  -4.195  -7.973  0.00  0.00     0.023 C 
BRANCH   3   4
HETATM    4  C           1     -22.957  -4.524  -9.439  0.00  0.00     0.138 C 
BRANCH   4   5
HETATM    5  N           1     -21.837  -3.716  -9.943  0.00  0.00    -0.227 N 
HETATM    6  C           1     -21.524  -3.762 -11.168  0.00  0.00     0.665 C 
HETATM    7  N           1     -22.176  -4.504 -11.961  0.00  0.00    -0.235 N 
HETATM    8  N           1     -20.533  -3.049 -11.613  0.00  0.00    -0.235 N 
HETATM    9  H           1     -22.977  -5.080 -11.601  0.00  0.00     0.174 HD
HETATM   10  H           1     -21.917  -4.542 -12.977  0.00  0.00     0.174 HD
HETATM   11  H           1     -19.994  -2.436 -10.960  0.00  0.00     0.174 HD
HETATM   12  H           1     -20.274  -3.086 -12.625  0.00  0.00     0.174 HD
HETATM   13  H           1     -21.296  -3.102  -9.286  0.00  0.00     0.177 HD
ENDBRANCH   4   5
ENDBRANCH   3   4
ENDBRANCH   2   3
ENDBRANCH   1   2
BRANCH   1  14
HETATM   14  C           1     -20.095  -5.738  -7.500  0.00  0.00     0.196 C 
HETATM   15  O           1     -19.461  -6.767  -7.180  0.00  0.00    -0.646 OA
HETATM   16  O           1     -19.673  -5.006  -8.421  0.00  0.00    -0.646 OA
ENDBRANCH   1  14
BRANCH   1  17
HETATM   17  N           1     -21.118  -5.323  -5.352  0.00  0.00    -0.345 N 
HETATM   18  H           1     -20.601  -4.546  -4.960  0.00  0.00     0.163 HD
HETATM   19  C           1     -21.577  -6.321  -4.534  0.00  0.00     0.249 C 
HETATM   20  O           1     -22.193  -7.249  -5.001  0.00  0.00    -0.271 OA
BRANCH  19  21
HETATM   21  C           1     -21.314  -6.260  -3.049  0.00  0.00     0.283 C 
BRANCH  21  22
HETATM   22  C           1     -20.858  -7.628  -2.557  0.00  0.00     0.113 C 
BRANCH  22  23
HETATM   23  S           1     -21.694  -8.019  -0.994  0.00  0.00    -0.180 SA
HETATM   24  H           1     -22.418  -9.045  -1.475  0.00  0.00     0.101 HD
ENDBRANCH  22  23
ENDBRANCH  21  22
BRANCH  21  25
HETATM   25  N           1     -22.573  -5.867  -2.334  0.00  0.00    -0.066 N 
HETATM   26  H           1     -22.936  -4.973  -2.737  0.00  0.00     0.275 HD
HETATM   27  H           1     -22.370  -5.733  -1.318  0.00  0.00     0.275 HD
HETATM   28  H           1     -23.288  -6.619  -2.450  0.00  0.00     0.275 HD
ENDBRANCH  21  25
ENDBRANCH  19  21
ENDBRANCH   1  17
TORSDOF 10
ENDMDL
MODEL 4
REMARK VINA RESULT:      -5.8      3.776      8.028
REMARK  10 active torsions:
REMARK  status: ('A' for Active; 'I' for Inactive)
REMARK    1  A    between atoms: S_5  and  C_6 
REMARK    2  A    between atoms: C_6  and  C_28 
REMARK    3  A    between atoms: C_7  and  C_8 
REMARK    4  A    between atoms: C_7  and  C_19 
REMARK    5  A    between atoms: C_7  and  N_15 
REMARK    6  A    between atoms: C_8  and  C_9 
REMARK    7  A    between atoms: C_9  and  C_10 
REMARK    8  A    between atoms: C_10  and  N_11 
REMARK       I    between atoms: N_11  and  C_13 
REMARK       I    between atoms: N_12  and  C_13 
REMARK       I    between atoms: C_14  and  N_15 
REMARK    9  A    between atoms: C_14  and  C_28 
REMARK   10  A    between atoms: N_21  and  C_28 
ROOT
HETATM    1  C           1     -21.110  -4.340  -7.511  0.00  0.00     0.185 C 
ENDROOT
BRANCH   1   2
HETATM    2  C           1     -21.073  -5.036  -6.157  0.00  0.00     0.038 C 
BRANCH   2   3
HETATM    3  C           1     -21.231  -6.538  -6.353  0.00  0.00     0.023 C 
BRANCH   3   4
HETATM    4  C           1     -21.273  -7.225  -4.995  0.00  0.00     0.138 C 
BRANCH   4   5
HETATM    5  N           1     -21.922  -6.340  -4.017  0.00  0.00    -0.227 N 
HETATM    6  C           1     -21.737  -6.521  -2.778  0.00  0.00     0.665 C 
HETATM    7  N           1     -20.991  -7.465  -2.381  0.00  0.00    -0.235 N 
HETATM    8  N           1     -22.310  -5.738  -1.914  0.00  0.00    -0.235 N 
HETATM    9  H           1     -20.528  -8.097  -3.079  0.00  0.00     0.174 HD
HETATM   10  H           1     -20.838  -7.615  -1.353  0.00  0.00     0.174 HD
HETATM   11  H           1     -22.925  -4.959  -2.241  0.00  0.00     0.174 HD
HETATM   12  H           1     -22.157  -5.887  -0.890  0.00  0.00     0.174 HD
HETATM   13  H           1     -22.540  -5.558  -4.346  0.00  0.00     0.177 HD
ENDBRANCH   4   5
ENDBRANCH   3   4
ENDBRANCH   2   3
ENDBRANCH   1   2
BRANCH   1  14
HETATM   14  C           1     -19.780  -4.511  -8.202  0.00  0.00     0.196 C 
HETATM   15  O           1     -19.739  -4.814  -9.414  0.00  0.00    -0.646 OA
HETATM   16  O           1     -18.718  -4.349  -7.563  0.00  0.00    -0.646 OA
ENDBRANCH   1  14
BRANCH   1  17
HETATM   17  N           1     -22.156  -4.924  -8.326  0.00  0.00    -0.345 N 
HETATM   18  H           1     -22.275  -5.929  -8.354  0.00  0.00     0.163 HD
HETATM   19  C           1     -22.984  -4.117  -9.060  0.00  0.00     0.249 C 
HETATM   20  O           1     -22.842  -2.918  -9.027  0.00  0.00    -0.271 OA
BRANCH  19  21
HETATM   21  C           1     -24.073  -4.725  -9.909  0.00  0.00     0.283 C 
BRANCH  21  22
HETATM   22  C           1     -23.637  -4.732 -11.368  0.00  0.00     0.113 C 
BRANCH  22  23
HETATM   23  S           1     -24.266  -3.243 -12.195  0.00  0.00    -0.180 SA
HETATM   24  H           1     -25.335  -3.835 -12.756  0.00  0.00     0.101 HD
ENDBRANCH  22  23
ENDBRANCH  21  22
BRANCH  21  25
HETATM   25  N           1     -25.328  -3.915  -9.766  0.00  0.00    -0.066 N 
HETATM   26  H           1     -25.111  -2.906  -9.933  0.00  0.00     0.275 HD
HETATM   27  H           1     -25.712  -4.033  -8.801  0.00  0.00     0.275 HD
HETATM   28  H           1     -26.034  -4.241 -10.464  0.00  0.00     0.275 HD
ENDBRANCH  21  25
ENDBRANCH  19  21
ENDBRANCH   1  17
TORSDOF 10
ENDMDL
MODEL 5
REMARK VINA RESULT:      -5.7      2.172      3.089
REMARK  10 active torsions:
REMARK  status: ('A' for Active; 'I' for Inactive)
REMARK    1  A    between atoms: S_5  and  C_6 
REMARK    2  A    between atoms: C_6  and  C_28 
REMARK    3  A    between atoms: C_7  and  C_8 
REMARK    4  A    between atoms: C_7  and  C_19 
REMARK    5  A    between atoms: C_7  and  N_15 
REMARK    6  A    between atoms: C_8  and  C_9 
REMARK    7  A    between atoms: C_9  and  C_10 
REMARK    8  A    between atoms: C_10  and  N_11 
REMARK       I    between atoms: N_11  and  C_13 
REMARK       I    between atoms: N_12  and  C_13 
REMARK       I    between atoms: C_14  and  N_15 
REMARK    9  A    between atoms: C_14  and  C_28 
REMARK   10  A    between atoms: N_21  and  C_28 
ROOT
HETATM    1  C           1     -21.244  -5.117  -8.150  0.00  0.00     0.185 C 
ENDROOT
BRANCH   1   2
HETATM    2  C           1     -22.302  -4.752  -9.183  0.00  0.00     0.038 C 
BRANCH   2   3
HETATM    3  C           1     -21.628  -4.418 -10.507  0.00  0.00     0.023 C 
BRANCH   3   4
HETATM    4  C           1     -22.496  -3.440 -11.286  0.00  0.00     0.138 C 
BRANCH   4   5
HETATM    5  N           1     -22.144  -3.500 -12.712  0.00  0.00    -0.227 N 
HETATM    6  C           1     -22.853  -2.890 -13.565  0.00  0.00     0.665 C 
HETATM    7  N           1     -23.865  -2.227 -13.190  0.00  0.00    -0.235 N 
HETATM    8  N           1     -22.541  -2.943 -14.826  0.00  0.00    -0.235 N 
HETATM    9  H           1     -24.116  -2.184 -12.172  0.00  0.00     0.174 HD
HETATM   10  H           1     -24.452  -1.721 -13.898  0.00  0.00     0.174 HD
HETATM   11  H           1     -21.706  -3.490 -15.136  0.00  0.00     0.174 HD
HETATM   12  H           1     -23.126  -2.440 -15.531  0.00  0.00     0.174 HD
HETATM   13  H           1     -21.305  -4.049 -13.023  0.00  0.00     0.177 HD
ENDBRANCH   4   5
ENDBRANCH   3   4
ENDBRANCH   2   3
ENDBRANCH   1   2
BRANCH   1  14
HETATM   14  C           1     -20.532  -3.867  -7.696  0.00  0.00     0.196 C 
HETATM   15  O           1     -21.142  -3.009  -7.022  0.00  0.00    -0.646 OA
HETATM   16  O           1     -19.330  -3.689  -7.992  0.00  0.00    -0.646 OA
ENDBRANCH   1  14
BRANCH   1  17
HETATM   17  N           1     -21.879  -5.751  -7.012  0.00  0.00    -0.345 N 
HETATM   18  H           1     -22.847  -5.550  -6.794  0.00  0.00     0.163 HD
HETATM   19  C           1     -21.169  -6.622  -6.229  0.00  0.00     0.249 C 
HETATM   20  O           1     -20.013  -6.862  -6.488  0.00  0.00    -0.271 OA
BRANCH  19  21
HETATM   21  C           1     -21.830  -7.283  -5.044  0.00  0.00     0.283 C 
BRANCH  21  22
HETATM   22  C           1     -21.587  -6.446  -3.795  0.00  0.00     0.113 C 
BRANCH  22  23
HETATM   23  S           1     -21.303  -7.544  -2.377  0.00  0.00    -0.180 SA
HETATM   24  H           1     -21.603  -6.634  -1.433  0.00  0.00     0.101 HD
ENDBRANCH  22  23
ENDBRANCH  21  22
BRANCH  21  25
HETATM   25  N           1     -21.249  -8.652  -4.848  0.00  0.00    -0.066 N 
HETATM   26  H           1     -21.107  -9.106  -5.779  0.00  0.00     0.275 HD
HETATM   27  H           1     -21.905  -9.231  -4.276  0.00  0.00     0.275 HD
HETATM   28  H           1     -20.332  -8.575  -4.354  0.00  0.00     0.275 HD
ENDBRANCH  21  25
ENDBRANCH  19  21
ENDBRANCH   1  17
TORSDOF 10
ENDMDL
MODEL 6
REMARK VINA RESULT:      -5.7      4.330      6.119
REMARK  10 active torsions:
REMARK  status: ('A' for Active; 'I' for Inactive)
REMARK    1  A    between atoms: S_5  and  C_6 
REMARK    2  A    between atoms: C_6  and  C_28 
REMARK    3  A    between atoms: C_7  and  C_8 
REMARK    4  A    between atoms: C_7  and  C_19 
REMARK    5  A    between atoms: C_7  and  N_15 
REMARK    6  A    between atoms: C_8  and  C_9 
REMARK    7  A    between atoms: C_9  and  C_10 
REMARK    8  A    between atoms: C_10  and  N_11 
REMARK       I    between atoms: N_11  and  C_13 
REMARK       I    between atoms: N_12  and  C_13 
REMARK       I    between atoms: C_14  and  N_15 
REMARK    9  A    between atoms: C_14  and  C_28 
REMARK   10  A    between atoms: N_21  and  C_28 
ROOT
HETATM    1  C           1     -20.604  -6.821  -5.421  0.00  0.00     0.185 C 
ENDROOT
BRANCH   1   2
HETATM    2  C           1     -20.407  -6.139  -6.769  0.00  0.00     0.038 C 
BRANCH   2   3
HETATM    3  C           1     -19.960  -4.700  -6.551  0.00  0.00     0.023 C 
BRANCH   3   4
HETATM    4  C           1     -20.566  -3.811  -7.628  0.00  0.00     0.138 C 
BRANCH   4   5
HETATM    5  N           1     -22.024  -3.751  -7.452  0.00  0.00    -0.227 N 
HETATM    6  C           1     -22.791  -4.042  -8.416  0.00  0.00     0.665 C 
HETATM    7  N           1     -22.302  -4.386  -9.532  0.00  0.00    -0.235 N 
HETATM    8  N           1     -24.080  -3.989  -8.260  0.00  0.00    -0.235 N 
HETATM    9  H           1     -21.260  -4.429  -9.659  0.00  0.00     0.174 HD
HETATM   10  H           1     -22.938  -4.627 -10.332  0.00  0.00     0.174 HD
HETATM   11  H           1     -24.484  -3.705  -7.338  0.00  0.00     0.174 HD
HETATM   12  H           1     -24.714  -4.230  -9.055  0.00  0.00     0.174 HD
HETATM   13  H           1     -22.429  -3.466  -6.526  0.00  0.00     0.177 HD
ENDBRANCH   4   5
ENDBRANCH   3   4
ENDBRANCH   2   3
ENDBRANCH   1   2
BRANCH   1  14
HETATM   14  C           1     -21.803  -6.226  -4.726  0.00  0.00     0.196 C 
HETATM   15  O           1     -22.842  -5.975  -5.375  0.00  0.00    -0.646 OA
HETATM   16  O           1     -21.759  -5.985  -3.501  0.00  0.00    -0.646 OA
ENDBRANCH   1  14
BRANCH   1  17
HETATM   17  N           1     -20.819  -8.240  -5.626  0.00  0.00    -0.345 N 
HETATM   18  H           1     -21.414  -8.559  -6.380  0.00  0.00     0.163 HD
HETATM   19  C           1     -20.217  -9.149  -4.798  0.00  0.00     0.249 C 
HETATM   20  O           1     -19.507  -8.769  -3.897  0.00  0.00    -0.271 OA
BRANCH  19  21
HETATM   21  C           1     -20.440 -10.627  -5.010  0.00  0.00     0.283 C 
BRANCH  21  22
HETATM   22  C           1     -19.121 -11.369  -4.846  0.00  0.00     0.113 C 
BRANCH  22  23
HETATM   23  S           1     -18.202 -11.323  -6.411  0.00  0.00    -0.180 SA
HETATM   24  H           1     -18.167 -12.655  -6.593  0.00  0.00     0.101 HD
ENDBRANCH  22  23
ENDBRANCH  21  22
BRANCH  21  25
HETATM   25  N           1     -20.975 -10.857  -6.393  0.00  0.00    -0.066 N 
HETATM   26  H           1     -20.941 -11.878  -6.613  0.00  0.00     0.275 HD
HETATM   27  H           1     -20.392 -10.333  -7.084  0.00  0.00     0.275 HD
HETATM   28  H           1     -21.962 -10.521  -6.445  0.00  0.00     0.275 HD
ENDBRANCH  21  25
ENDBRANCH  19  21
ENDBRANCH   1  17
TORSDOF 10
ENDMDL
MODEL 7
REMARK VINA RESULT:      -5.5      4.804      9.733
REMARK  10 active torsions:
REMARK  status: ('A' for Active; 'I' for Inactive)
REMARK    1  A    between atoms: S_5  and  C_6 
REMARK    2  A    between atoms: C_6  and  C_28 
REMARK    3  A    between atoms: C_7  and  C_8 
REMARK    4  A    between atoms: C_7  and  C_19 
REMARK    5  A    between atoms: C_7  and  N_15 
REMARK    6  A    between atoms: C_8  and  C_9 
REMARK    7  A    between atoms: C_9  and  C_10 
REMARK    8  A    between atoms: C_10  and  N_11 
REMARK       I    between atoms: N_11  and  C_13 
REMARK       I    between atoms: N_12  and  C_13 
REMARK       I    between atoms: C_14  and  N_15 
REMARK    9  A    between atoms: C_14  and  C_28 
REMARK   10  A    between atoms: N_21  and  C_28 
ROOT
HETATM    1  C           1     -20.769  -6.803  -4.837  0.00  0.00     0.185 C 
ENDROOT
BRANCH   1   2
HETATM    2  C           1     -21.936  -6.724  -3.862  0.00  0.00     0.038 C 
BRANCH   2   3
HETATM    3  C           1     -21.488  -6.022  -2.587  0.00  0.00     0.023 C 
BRANCH   3   4
HETATM    4  C           1     -22.290  -6.554  -1.406  0.00  0.00     0.138 C 
BRANCH   4   5
HETATM    5  N           1     -22.021  -7.989  -1.238  0.00  0.00    -0.227 N 
HETATM    6  C           1     -22.590  -8.635  -0.310  0.00  0.00     0.665 C 
HETATM    7  N           1     -23.391  -8.045   0.474  0.00  0.00    -0.235 N 
HETATM    8  N           1     -22.352  -9.904  -0.161  0.00  0.00    -0.235 N 
HETATM    9  H           1     -23.583  -7.019   0.353  0.00  0.00     0.174 HD
HETATM   10  H           1     -23.863  -8.580   1.243  0.00  0.00     0.174 HD
HETATM   11  H           1     -21.691 -10.392  -0.807  0.00  0.00     0.174 HD
HETATM   12  H           1     -22.822 -10.438   0.605  0.00  0.00     0.174 HD
HETATM   13  H           1     -21.357  -8.478  -1.887  0.00  0.00     0.177 HD
ENDBRANCH   4   5
ENDBRANCH   3   4
ENDBRANCH   2   3
ENDBRANCH   1   2
BRANCH   1  14
HETATM   14  C           1     -20.220  -8.209  -4.853  0.00  0.00     0.196 C 
HETATM   15  O           1     -19.425  -8.560  -5.751  0.00  0.00    -0.646 OA
HETATM   16  O           1     -20.560  -9.022  -3.967  0.00  0.00    -0.646 OA
ENDBRANCH   1  14
BRANCH   1  17
HETATM   17  N           1     -21.225  -6.448  -6.166  0.00  0.00    -0.345 N 
HETATM   18  H           1     -21.730  -7.123  -6.726  0.00  0.00     0.163 HD
HETATM   19  C           1     -20.971  -5.198  -6.665  0.00  0.00     0.249 C 
HETATM   20  O           1     -20.367  -4.392  -5.998  0.00  0.00    -0.271 OA
BRANCH  19  21
HETATM   21  C           1     -21.445  -4.828  -8.049  0.00  0.00     0.283 C 
BRANCH  21  22
HETATM   22  C           1     -20.245  -4.508  -8.930  0.00  0.00     0.113 C 
BRANCH  22  23
HETATM   23  S           1     -20.811  -4.135 -10.614  0.00  0.00    -0.180 SA
HETATM   24  H           1     -20.187  -5.169 -11.205  0.00  0.00     0.101 HD
ENDBRANCH  22  23
ENDBRANCH  21  22
BRANCH  21  25
HETATM   25  N           1     -22.337  -3.624  -7.965  0.00  0.00    -0.066 N 
HETATM   26  H           1     -22.094  -2.957  -8.733  0.00  0.00     0.275 HD
HETATM   27  H           1     -22.202  -3.154  -7.042  0.00  0.00     0.275 HD
HETATM   28  H           1     -23.334  -3.921  -8.062  0.00  0.00     0.275 HD
ENDBRANCH  21  25
ENDBRANCH  19  21
ENDBRANCH   1  17
TORSDOF 10
ENDMDL
MODEL 8
REMARK VINA RESULT:      -5.3     18.574     19.744
REMARK  10 active torsions:
REMARK  status: ('A' for Active; 'I' for Inactive)
REMARK    1  A    between atoms: S_5  and  C_6 
REMARK    2  A    between atoms: C_6  and  C_28 
REMARK    3  A    between atoms: C_7  and  C_8 
REMARK    4  A    between atoms: C_7  and  C_19 
REMARK    5  A    between atoms: C_7  and  N_15 
REMARK    6  A    between atoms: C_8  and  C_9 
REMARK    7  A    between atoms: C_9  and  C_10 
REMARK    8  A    between atoms: C_10  and  N_11 
REMARK       I    between atoms: N_11  and  C_13 
REMARK       I    between atoms: N_12  and  C_13 
REMARK       I    between atoms: C_14  and  N_15 
REMARK    9  A    between atoms: C_14  and  C_28 
REMARK   10  A    between atoms: N_21  and  C_28 
ROOT
HETATM    1  C           1     -12.021   8.959 -19.813  0.00  0.00     0.185 C 
ENDROOT
BRANCH   1   2
HETATM    2  C           1     -12.081   8.431 -21.241  0.00  0.00     0.038 C 
BRANCH   2   3
HETATM    3  C           1     -12.601   7.000 -21.233  0.00  0.00     0.023 C 
BRANCH   3   4
HETATM    4  C           1     -11.443   6.038 -21.460  0.00  0.00     0.138 C 
BRANCH   4   5
HETATM    5  N           1     -10.941   5.560 -20.164  0.00  0.00    -0.227 N 
HETATM    6  C           1      -9.743   5.789 -19.826  0.00  0.00     0.665 C 
HETATM    7  N           1      -8.977   6.430 -20.605  0.00  0.00    -0.235 N 
HETATM    8  N           1      -9.298   5.367 -18.679  0.00  0.00    -0.235 N 
HETATM    9  H           1      -9.335   6.771 -21.530  0.00  0.00     0.174 HD
HETATM   10  H           1      -7.983   6.620 -20.324  0.00  0.00     0.174 HD
HETATM   11  H           1      -9.930   4.838 -18.036  0.00  0.00     0.174 HD
HETATM   12  H           1      -8.309   5.556 -18.400  0.00  0.00     0.174 HD
HETATM   13  H           1     -11.575   5.029 -19.518  0.00  0.00     0.177 HD
ENDBRANCH   4   5
ENDBRANCH   3   4
ENDBRANCH   2   3
ENDBRANCH   1   2
BRANCH   1  14
HETATM   14  C           1     -10.582   9.174 -19.416  0.00  0.00     0.196 C 
HETATM   15  O           1      -9.751   9.568 -20.263  0.00  0.00    -0.646 OA
HETATM   16  O           1     -10.220   8.960 -18.239  0.00  0.00    -0.646 OA
ENDBRANCH   1  14
BRANCH   1  17
HETATM   17  N           1     -12.737  10.217 -19.734  0.00  0.00    -0.345 N 
HETATM   18  H           1     -12.509  10.971 -20.370  0.00  0.00     0.163 HD
HETATM   19  C           1     -13.721  10.387 -18.797  0.00  0.00     0.249 C 
HETATM   20  O           1     -13.993   9.487 -18.037  0.00  0.00    -0.271 OA
BRANCH  19  21
HETATM   21  C           1     -14.466  11.696 -18.713  0.00  0.00     0.283 C 
BRANCH  21  22
HETATM   22  C           1     -15.224  11.767 -17.394  0.00  0.00     0.113 C 
BRANCH  22  23
HETATM   23  S           1     -16.931  12.303 -17.704  0.00  0.00    -0.180 SA
HETATM   24  H           1     -16.841  12.288 -19.046  0.00  0.00     0.101 HD
ENDBRANCH  22  23
ENDBRANCH  21  22
BRANCH  21  25
HETATM   25  N           1     -15.438  11.791 -19.853  0.00  0.00    -0.066 N 
HETATM   26  H           1     -16.412  11.688 -19.488  0.00  0.00     0.275 HD
HETATM   27  H           1     -15.243  11.029 -20.542  0.00  0.00     0.275 HD
HETATM   28  H           1     -15.336  12.718 -20.322  0.00  0.00     0.275 HD
ENDBRANCH  21  25
ENDBRANCH  19  21
ENDBRANCH   1  17
TORSDOF 10
ENDMDL
MODEL 9
REMARK VINA RESULT:      -5.3      9.563     11.477
REMARK  10 active torsions:
REMARK  status: ('A' for Active; 'I' for Inactive)
REMARK    1  A    between atoms: S_5  and  C_6 
REMARK    2  A    between atoms: C_6  and  C_28 
REMARK    3  A    between atoms: C_7  and  C_8 
REMARK    4  A    between atoms: C_7  and  C_19 
REMARK    5  A    between atoms: C_7  and  N_15 
REMARK    6  A    between atoms: C_8  and  C_9 
REMARK    7  A    between atoms: C_9  and  C_10 
REMARK    8  A    between atoms: C_10  and  N_11 
REMARK       I    between atoms: N_11  and  C_13 
REMARK       I    between atoms: N_12  and  C_13 
REMARK       I    between atoms: C_14  and  N_15 
REMARK    9  A    between atoms: C_14  and  C_28 
REMARK   10  A    between atoms: N_21  and  C_28 
ROOT
HETATM    1  C           1     -28.328  -6.818 -17.252  0.00  0.00     0.185 C 
ENDROOT
BRANCH   1   2
HETATM    2  C           1     -27.451  -6.150 -18.302  0.00  0.00     0.038 C 
BRANCH   2   3
HETATM    3  C           1     -27.631  -6.855 -19.640  0.00  0.00     0.023 C 
BRANCH   3   4
HETATM    4  C           1     -26.305  -6.873 -20.388  0.00  0.00     0.138 C 
BRANCH   4   5
HETATM    5  N           1     -25.197  -6.786 -19.424  0.00  0.00    -0.227 N 
HETATM    6  C           1     -24.154  -7.481 -19.596  0.00  0.00     0.665 C 
HETATM    7  N           1     -24.063  -8.251 -20.597  0.00  0.00    -0.235 N 
HETATM    8  N           1     -23.175  -7.405 -18.744  0.00  0.00    -0.235 N 
HETATM    9  H           1     -24.854  -8.313 -21.285  0.00  0.00     0.174 HD
HETATM   10  H           1     -23.197  -8.828 -20.739  0.00  0.00     0.174 HD
HETATM   11  H           1     -23.249  -6.770 -17.917  0.00  0.00     0.174 HD
HETATM   12  H           1     -22.313  -7.979 -18.885  0.00  0.00     0.174 HD
HETATM   13  H           1     -25.272  -6.148 -18.594  0.00  0.00     0.177 HD
ENDBRANCH   4   5
ENDBRANCH   3   4
ENDBRANCH   2   3
ENDBRANCH   1   2
BRANCH   1  14
HETATM   14  C           1     -27.610  -6.824 -15.925  0.00  0.00     0.196 C 
HETATM   15  O           1     -28.016  -7.557 -14.998  0.00  0.00    -0.646 OA
HETATM   16  O           1     -26.607  -6.097 -15.754  0.00  0.00    -0.646 OA
ENDBRANCH   1  14
BRANCH   1  17
HETATM   17  N           1     -29.572  -6.084 -17.124  0.00  0.00    -0.345 N 
HETATM   18  H           1     -29.585  -5.188 -16.652  0.00  0.00     0.163 HD
HETATM   19  C           1     -30.729  -6.602 -17.641  0.00  0.00     0.249 C 
HETATM   20  O           1     -30.713  -7.671 -18.204  0.00  0.00    -0.271 OA
BRANCH  19  21
HETATM   21  C           1     -32.023  -5.838 -17.508  0.00  0.00     0.283 C 
BRANCH  21  22
HETATM   22  C           1     -31.876  -4.770 -16.433  0.00  0.00     0.113 C 
BRANCH  22  23
HETATM   23  S           1     -33.514  -4.130 -15.986  0.00  0.00    -0.180 SA
HETATM   24  H           1     -33.112  -3.469 -14.886  0.00  0.00     0.101 HD
ENDBRANCH  22  23
ENDBRANCH  21  22
BRANCH  21  25
HETATM   25  N           1     -33.124  -6.784 -17.125  0.00  0.00    -0.066 N 
HETATM   26  H           1     -33.858  -6.783 -17.869  0.00  0.00     0.275 HD
HETATM   27  H           1     -33.547  -6.478 -16.220  0.00  0.00     0.275 HD
HETATM   28  H           1     -32.734  -7.747 -17.019  0.00  0.00     0.275 HD
ENDBRANCH  21  25
ENDBRANCH  19  21
ENDBRANCH   1  17
TORSDOF 10
ENDMDL
