MODEL 1
REMARK VINA RESULT:      -5.9      0.000      0.000
REMARK  8 active torsions:
REMARK  status: ('A' for Active; 'I' for Inactive)
REMARK    1  A    between atoms: C_1  and  C_14 
REMARK    2  A    between atoms: C_1  and  C_12 
REMARK    3  A    between atoms: C_1  and  N_5 
REMARK       I    between atoms: N_5  and  C_15 
REMARK    4  A    between atoms: N_6  and  C_19 
REMARK    5  A    between atoms: C_14  and  C_18 
REMARK    6  A    between atoms: C_15  and  C_19 
REMARK    7  A    between atoms: C_19  and  C_20 
REMARK    8  A    between atoms: C_20  and  O_21 
ROOT
HETATM    1  O           1     -33.423  -2.221 -11.099  0.00  0.00    -0.271 OA
HETATM    2  N           1     -35.001  -1.829 -12.629  0.00  0.00    -0.345 N 
HETATM    3  C           1     -34.089  -2.644 -12.013  0.00  0.00     0.251 C 
HETATM    4  H           1     -35.559  -2.183 -13.395  0.00  0.00     0.163 HD
ENDROOT
BRANCH   3   5
HETATM    5  C           1     -33.916  -4.069 -12.478  0.00  0.00     0.302 C 
BRANCH   5   6
HETATM    6  N           1     -32.506  -4.510 -12.221  0.00  0.00    -0.064 N 
HETATM    7  H           1     -32.513  -5.432 -11.728  0.00  0.00     0.275 HD
HETATM    8  H           1     -32.000  -4.607 -13.131  0.00  0.00     0.275 HD
HETATM    9  H           1     -32.022  -3.801 -11.626  0.00  0.00     0.275 HD
ENDBRANCH   5   6
BRANCH   5  10
HETATM   10  C           1     -34.876  -4.972 -11.715  0.00  0.00     0.153 C 
HETATM   11  C           1     -34.095  -5.802 -10.704  0.00  0.00     0.042 C 
BRANCH  10  12
HETATM   12  O           1     -35.824  -4.188 -11.043  0.00  0.00    -0.393 OA
HETATM   13  H           1     -35.376  -3.770 -10.327  0.00  0.00     0.210 HD
ENDBRANCH  10  12
ENDBRANCH   5  10
ENDBRANCH   3   5
BRANCH   2  14
HETATM   14  C           1     -35.168  -0.460 -12.183  0.00  0.00     0.185 C 
BRANCH  14  15
HETATM   15  C           1     -35.530   0.421 -13.371  0.00  0.00     0.040 C 
BRANCH  15  16
HETATM   16  C           1     -36.260  -0.411 -14.418  0.00  0.00    -0.020 C 
HETATM   17  C           1     -35.643  -0.158 -15.787  0.00  0.00     0.009 C 
HETATM   18  C           1     -37.731  -0.019 -14.443  0.00  0.00     0.009 C 
ENDBRANCH  15  16
ENDBRANCH  14  15
BRANCH  14  19
HETATM   19  C           1     -36.272  -0.398 -11.155  0.00  0.00     0.196 C 
HETATM   20  O           1     -36.366   0.591 -10.397  0.00  0.00    -0.646 OA
HETATM   21  O           1     -37.093  -1.336 -11.063  0.00  0.00    -0.646 OA
ENDBRANCH  14  19
ENDBRANCH   2  14
TORSDOF 8
ENDMDL
MODEL 2
REMARK VINA RESULT:      -5.8      1.908      5.080
REMARK  8 active torsions:
REMARK  status: ('A' for Active; 'I' for Inactive)
REMARK    1  A    between atoms: C_1  and  C_14 
REMARK    2  A    between atoms: C_1  and  C_12 
REMARK    3  A    between atoms: C_1  and  N_5 
REMARK       I    between atoms: N_5  and  C_15 
REMARK    4  A    between atoms: N_6  and  C_19 
REMARK    5  A    between atoms: C_14  and  C_18 
REMARK    6  A    between atoms: C_15  and  C_19 
REMARK    7  A    between atoms: C_19  and  C_20 
REMARK    8  A    between atoms: C_20  and  O_21 
ROOT
HETATM    1  O           1     -36.951  -1.065 -13.789  0.00  0.00    -0.271 OA
HETATM    2  N           1     -34.820  -1.234 -13.144  0.00  0.00    -0.345 N 
HETATM    3  C           1     -35.786  -0.882 -14.048  0.00  0.00     0.251 C 
HETATM    4  H           1     -33.844  -1.081 -13.362  0.00  0.00     0.163 HD
ENDROOT
BRANCH   3   5
HETATM    5  C           1     -35.394  -0.265 -15.369  0.00  0.00     0.302 C 
BRANCH   5   6
HETATM    6  N           1     -36.536  -0.384 -16.334  0.00  0.00    -0.064 N 
HETATM    7  H           1     -36.338  -1.151 -17.015  0.00  0.00     0.275 HD
HETATM    8  H           1     -37.413  -0.604 -15.809  0.00  0.00     0.275 HD
HETATM    9  H           1     -36.653   0.517 -16.849  0.00  0.00     0.275 HD
ENDBRANCH   5   6
BRANCH   5  10
HETATM   10  C           1     -35.057   1.206 -15.162  0.00  0.00     0.153 C 
HETATM   11  C           1     -36.051   2.066 -15.931  0.00  0.00     0.042 C 
BRANCH  10  12
HETATM   12  O           1     -35.129   1.516 -13.797  0.00  0.00    -0.393 OA
HETATM   13  H           1     -34.407   1.079 -13.378  0.00  0.00     0.210 HD
ENDBRANCH  10  12
ENDBRANCH   5  10
ENDBRANCH   3   5
BRANCH   2  14
HETATM   14  C           1     -35.196  -1.826 -11.876  0.00  0.00     0.185 C 
BRANCH  14  15
HETATM   15  C           1     -33.944  -2.094 -11.050  0.00  0.00     0.040 C 
BRANCH  15  16
HETATM   16  C           1     -33.772  -3.595 -10.859  0.00  0.00    -0.020 C 
HETATM   17  C           1     -32.779  -4.126 -11.885  0.00  0.00     0.009 C 
HETATM   18  C           1     -35.116  -4.288 -11.047  0.00  0.00     0.009 C 
ENDBRANCH  15  16
ENDBRANCH  14  15
BRANCH  14  19
HETATM   19  C           1     -36.099  -0.877 -11.126  0.00  0.00     0.196 C 
HETATM   20  O           1     -35.775   0.323 -10.995  0.00  0.00    -0.646 OA
HETATM   21  O           1     -37.171  -1.292 -10.635  0.00  0.00    -0.646 OA
ENDBRANCH  14  19
ENDBRANCH   2  14
TORSDOF 8
ENDMDL
MODEL 3
REMARK VINA RESULT:      -5.8     12.293     14.142
REMARK  8 active torsions:
REMARK  status: ('A' for Active; 'I' for Inactive)
REMARK    1  A    between atoms: C_1  and  C_14 
REMARK    2  A    between atoms: C_1  and  C_12 
REMARK    3  A    between atoms: C_1  and  N_5 
REMARK       I    between atoms: N_5  and  C_15 
REMARK    4  A    between atoms: N_6  and  C_19 
REMARK    5  A    between atoms: C_14  and  C_18 
REMARK    6  A    between atoms: C_15  and  C_19 
REMARK    7  A    between atoms: C_19  and  C_20 
REMARK    8  A    between atoms: C_20  and  O_21 
ROOT
HETATM    1  O           1     -20.845  -3.536  -7.400  0.00  0.00    -0.271 OA
HETATM    2  N           1     -22.761  -4.587  -7.855  0.00  0.00    -0.345 N 
HETATM    3  C           1     -21.655  -4.372  -7.079  0.00  0.00     0.251 C 
HETATM    4  H           1     -23.439  -5.288  -7.587  0.00  0.00     0.163 HD
ENDROOT
BRANCH   3   5
HETATM    5  C           1     -21.447  -5.181  -5.822  0.00  0.00     0.302 C 
BRANCH   5   6
HETATM    6  N           1     -22.724  -5.881  -5.462  0.00  0.00    -0.064 N 
HETATM    7  H           1     -23.052  -5.548  -4.526  0.00  0.00     0.275 HD
HETATM    8  H           1     -23.452  -5.667  -6.180  0.00  0.00     0.275 HD
HETATM    9  H           1     -22.560  -6.911  -5.426  0.00  0.00     0.275 HD
ENDBRANCH   5   6
BRANCH   5  10
HETATM   10  C           1     -20.353  -6.215  -6.060  0.00  0.00     0.153 C 
HETATM   11  C           1     -20.808  -7.566  -5.522  0.00  0.00     0.042 C 
BRANCH  10  12
HETATM   12  O           1     -20.098  -6.321  -7.434  0.00  0.00    -0.393 OA
HETATM   13  H           1     -19.876  -7.221  -7.603  0.00  0.00     0.210 HD
ENDBRANCH  10  12
ENDBRANCH   5  10
ENDBRANCH   3   5
BRANCH   2  14
HETATM   14  C           1     -22.961  -3.810  -9.063  0.00  0.00     0.185 C 
BRANCH  14  15
HETATM   15  C           1     -22.164  -4.430 -10.203  0.00  0.00     0.040 C 
BRANCH  15  16
HETATM   16  C           1     -21.594  -3.326 -11.084  0.00  0.00    -0.020 C 
HETATM   17  C           1     -22.307  -3.332 -12.430  0.00  0.00     0.009 C 
HETATM   18  C           1     -20.105  -3.566 -11.298  0.00  0.00     0.009 C 
ENDBRANCH  15  16
ENDBRANCH  14  15
BRANCH  14  19
HETATM   19  C           1     -24.428  -3.806  -9.420  0.00  0.00     0.196 C 
HETATM   20  O           1     -25.078  -2.739  -9.384  0.00  0.00    -0.646 OA
HETATM   21  O           1     -24.994  -4.871  -9.750  0.00  0.00    -0.646 OA
ENDBRANCH  14  19
ENDBRANCH   2  14
TORSDOF 8
ENDMDL
MODEL 4
REMARK VINA RESULT:      -5.7      1.817      5.037
REMARK  8 active torsions:
REMARK  status: ('A' for Active; 'I' for Inactive)
REMARK    1  A    between atoms: C_1  and  C_14 
REMARK    2  A    between atoms: C_1  and  C_12 
REMARK    3  A    between atoms: C_1  and  N_5 
REMARK       I    between atoms: N_5  and  C_15 
REMARK    4  A    between atoms: N_6  and  C_19 
REMARK    5  A    between atoms: C_14  and  C_18 
REMARK    6  A    between atoms: C_15  and  C_19 
REMARK    7  A    between atoms: C_19  and  C_20 
REMARK    8  A    between atoms: C_20  and  O_21 
ROOT
HETATM    1  O           1     -36.990  -0.975 -13.028  0.00  0.00    -0.271 OA
HETATM    2  N           1     -34.804  -1.402 -13.189  0.00  0.00    -0.345 N 
HETATM    3  C           1     -35.941  -0.748 -13.582  0.00  0.00     0.251 C 
HETATM    4  H           1     -33.926  -1.212 -13.654  0.00  0.00     0.163 HD
ENDROOT
BRANCH   3   5
HETATM    5  C           1     -35.883   0.256 -14.707  0.00  0.00     0.302 C 
BRANCH   5   6
HETATM    6  N           1     -34.455   0.634 -14.966  0.00  0.00    -0.064 N 
HETATM    7  H           1     -34.039  -0.031 -15.657  0.00  0.00     0.275 HD
HETATM    8  H           1     -34.417   1.604 -15.351  0.00  0.00     0.275 HD
HETATM    9  H           1     -33.915   0.590 -14.073  0.00  0.00     0.275 HD
ENDBRANCH   5   6
BRANCH   5  10
HETATM   10  C           1     -36.482  -0.357 -15.966  0.00  0.00     0.153 C 
HETATM   11  C           1     -35.489  -1.342 -16.570  0.00  0.00     0.042 C 
BRANCH  10  12
HETATM   12  O           1     -37.668  -1.030 -15.642  0.00  0.00    -0.393 OA
HETATM   13  H           1     -37.450  -1.670 -14.986  0.00  0.00     0.210 HD
ENDBRANCH  10  12
ENDBRANCH   5  10
ENDBRANCH   3   5
BRANCH   2  14
HETATM   14  C           1     -34.859  -2.367 -12.109  0.00  0.00     0.185 C 
BRANCH  14  15
HETATM   15  C           1     -33.924  -3.529 -12.419  0.00  0.00     0.040 C 
BRANCH  15  16
HETATM   16  C           1     -34.520  -4.821 -11.876  0.00  0.00    -0.020 C 
HETATM   17  C           1     -35.634  -4.490 -10.891  0.00  0.00     0.009 C 
HETATM   18  C           1     -33.436  -5.620 -11.165  0.00  0.00     0.009 C 
ENDBRANCH  15  16
ENDBRANCH  14  15
BRANCH  14  19
HETATM   19  C           1     -34.431  -1.705 -10.822  0.00  0.00     0.196 C 
HETATM   20  O           1     -35.275  -1.131 -10.102  0.00  0.00    -0.646 OA
HETATM   21  O           1     -33.229  -1.730 -10.477  0.00  0.00    -0.646 OA
ENDBRANCH  14  19
ENDBRANCH   2  14
TORSDOF 8
ENDMDL
MODEL 5
REMARK VINA RESULT:      -5.4     12.300     14.957
REMARK  8 active torsions:
REMARK  status: ('A' for Active; 'I' for Inactive)
REMARK    1  A    between atoms: C_1  and  C_14 
REMARK    2  A    between atoms: C_1  and  C_12 
REMARK    3  A    between atoms: C_1  and  N_5 
REMARK       I    between atoms: N_5  and  C_15 
REMARK    4  A    between atoms: N_6  and  C_19 
REMARK    5  A    between atoms: C_14  and  C_18 
REMARK    6  A    between atoms: C_15  and  C_19 
REMARK    7  A    between atoms: C_19  and  C_20 
REMARK    8  A    between atoms: C_20  and  O_21 
ROOT
HETATM    1  O           1     -23.014  -3.147  -8.714  0.00  0.00    -0.271 OA
HETATM    2  N           1     -22.275  -5.253  -8.781  0.00  0.00    -0.345 N 
HETATM    3  C           1     -23.137  -4.261  -9.164  0.00  0.00     0.251 C 
HETATM    4  H           1     -22.379  -6.186  -9.157  0.00  0.00     0.163 HD
ENDROOT
BRANCH   3   5
HETATM    5  C           1     -24.242  -4.561 -10.147  0.00  0.00     0.302 C 
BRANCH   5   6
HETATM    6  N           1     -25.394  -3.632  -9.901  0.00  0.00    -0.064 N 
HETATM    7  H           1     -25.067  -2.811  -9.344  0.00  0.00     0.275 HD
HETATM    8  H           1     -25.775  -3.301 -10.817  0.00  0.00     0.275 HD
HETATM    9  H           1     -26.141  -4.135  -9.373  0.00  0.00     0.275 HD
ENDBRANCH   5   6
BRANCH   5  10
HETATM   10  C           1     -23.726  -4.363 -11.566  0.00  0.00     0.153 C 
HETATM   11  C           1     -24.299  -3.073 -12.139  0.00  0.00     0.042 C 
BRANCH  10  12
HETATM   12  O           1     -22.326  -4.285 -11.550  0.00  0.00    -0.393 OA
HETATM   13  H           1     -22.041  -4.286 -12.447  0.00  0.00     0.210 HD
ENDBRANCH  10  12
ENDBRANCH   5  10
ENDBRANCH   3   5
BRANCH   2  14
HETATM   14  C           1     -21.214  -4.966  -7.836  0.00  0.00     0.185 C 
BRANCH  14  15
HETATM   15  C           1     -20.971  -6.187  -6.958  0.00  0.00     0.040 C 
BRANCH  15  16
HETATM   16  C           1     -21.449  -5.900  -5.542  0.00  0.00    -0.020 C 
HETATM   17  C           1     -20.405  -5.063  -4.814  0.00  0.00     0.009 C 
HETATM   18  C           1     -21.656  -7.213  -4.799  0.00  0.00     0.009 C 
ENDBRANCH  15  16
ENDBRANCH  14  15
BRANCH  14  19
HETATM   19  C           1     -19.950  -4.628  -8.588  0.00  0.00     0.196 C 
HETATM   20  O           1     -19.897  -4.787  -9.826  0.00  0.00    -0.646 OA
HETATM   21  O           1     -18.954  -4.191  -7.972  0.00  0.00    -0.646 OA
ENDBRANCH  14  19
ENDBRANCH   2  14
TORSDOF 8
ENDMDL
MODEL 6
REMARK VINA RESULT:      -5.3      2.460      4.695
REMARK  8 active torsions:
REMARK  status: ('A' for Active; 'I' for Inactive)
REMARK    1  A    between atoms: C_1  and  C_14 
REMARK    2  A    between atoms: C_1  and  C_12 
REMARK    3  A    between atoms: C_1  and  N_5 
REMARK       I    between atoms: N_5  and  C_15 
REMARK    4  A    between atoms: N_6  and  C_19 
REMARK    5  A    between atoms: C_14  and  C_18 
REMARK    6  A    between atoms: C_15  and  C_19 
REMARK    7  A    between atoms: C_19  and  C_20 
REMARK    8  A    between atoms: C_20  and  O_21 
ROOT
HETATM    1  O           1     -37.928  -0.581 -13.997  0.00  0.00    -0.271 OA
HETATM    2  N           1     -36.042  -0.550 -12.801  0.00  0.00    -0.345 N 
HETATM    3  C           1     -36.758  -0.285 -13.937  0.00  0.00     0.251 C 
HETATM    4  H           1     -35.063  -0.303 -12.752  0.00  0.00     0.163 HD
ENDROOT
BRANCH   3   5
HETATM    5  C           1     -36.086   0.376 -15.115  0.00  0.00     0.302 C 
BRANCH   5   6
HETATM    6  N           1     -34.626   0.557 -14.820  0.00  0.00    -0.064 N 
HETATM    7  H           1     -34.389   0.074 -13.924  0.00  0.00     0.275 HD
HETATM    8  H           1     -34.061   0.146 -15.597  0.00  0.00     0.275 HD
HETATM    9  H           1     -34.412   1.576 -14.733  0.00  0.00     0.275 HD
ENDBRANCH   5   6
BRANCH   5  10
HETATM   10  C           1     -36.248  -0.501 -16.350  0.00  0.00     0.153 C 
HETATM   11  C           1     -35.214  -1.619 -16.316  0.00  0.00     0.042 C 
BRANCH  10  12
HETATM   12  O           1     -37.535  -1.056 -16.366  0.00  0.00    -0.393 OA
HETATM   13  H           1     -38.130  -0.377 -16.097  0.00  0.00     0.210 HD
ENDBRANCH  10  12
ENDBRANCH   5  10
ENDBRANCH   3   5
BRANCH   2  14
HETATM   14  C           1     -36.687  -1.186 -11.670  0.00  0.00     0.185 C 
BRANCH  14  15
HETATM   15  C           1     -35.776  -2.271 -11.109  0.00  0.00     0.040 C 
BRANCH  15  16
HETATM   16  C           1     -34.412  -2.188 -11.781  0.00  0.00    -0.020 C 
HETATM   17  C           1     -34.226  -3.389 -12.700  0.00  0.00     0.009 C 
HETATM   18  C           1     -33.322  -2.187 -10.718  0.00  0.00     0.009 C 
ENDBRANCH  15  16
ENDBRANCH  14  15
BRANCH  14  19
HETATM   19  C           1     -36.957  -0.155 -10.601  0.00  0.00     0.196 C 
HETATM   20  O           1     -38.003  -0.218  -9.920  0.00  0.00    -0.646 OA
HETATM   21  O           1     -36.135   0.765 -10.398  0.00  0.00    -0.646 OA
ENDBRANCH  14  19
ENDBRANCH   2  14
TORSDOF 8
ENDMDL
MODEL 7
REMARK VINA RESULT:      -5.1     15.304     17.425
REMARK  8 active torsions:
REMARK  status: ('A' for Active; 'I' for Inactive)
REMARK    1  A    between atoms: C_1  and  C_14 
REMARK    2  A    between atoms: C_1  and  C_12 
REMARK    3  A    between atoms: C_1  and  N_5 
REMARK       I    between atoms: N_5  and  C_15 
REMARK    4  A    between atoms: N_6  and  C_19 
REMARK    5  A    between atoms: C_14  and  C_18 
REMARK    6  A    between atoms: C_15  and  C_19 
REMARK    7  A    between atoms: C_19  and  C_20 
REMARK    8  A    between atoms: C_20  and  O_21 
ROOT
HETATM    1  O           1     -20.359  -4.824  -5.654  0.00  0.00    -0.271 OA
HETATM    2  N           1     -20.975  -6.903  -6.184  0.00  0.00    -0.345 N 
HETATM    3  C           1     -20.879  -5.565  -6.453  0.00  0.00     0.251 C 
HETATM    4  H           1     -21.411  -7.524  -6.853  0.00  0.00     0.163 HD
ENDROOT
BRANCH   3   5
HETATM    5  C           1     -21.425  -5.015  -7.749  0.00  0.00     0.302 C 
BRANCH   5   6
HETATM    6  N           1     -22.140  -3.724  -7.481  0.00  0.00    -0.064 N 
HETATM    7  H           1     -22.270  -3.205  -8.379  0.00  0.00     0.275 HD
HETATM    8  H           1     -23.074  -3.925  -7.058  0.00  0.00     0.275 HD
HETATM    9  H           1     -21.575  -3.143  -6.823  0.00  0.00     0.275 HD
ENDBRANCH   5   6
BRANCH   5  10
HETATM   10  C           1     -20.277  -4.767  -8.718  0.00  0.00     0.153 C 
HETATM   11  C           1     -20.823  -4.168 -10.007  0.00  0.00     0.042 C 
BRANCH  10  12
HETATM   12  O           1     -19.360  -3.877  -8.142  0.00  0.00    -0.393 OA
HETATM   13  H           1     -18.525  -4.045  -8.544  0.00  0.00     0.210 HD
ENDBRANCH  10  12
ENDBRANCH   5  10
ENDBRANCH   3   5
BRANCH   2  14
HETATM   14  C           1     -20.451  -7.432  -4.940  0.00  0.00     0.185 C 
BRANCH  14  15
HETATM   15  C           1     -21.574  -7.524  -3.915  0.00  0.00     0.040 C 
BRANCH  15  16
HETATM   16  C           1     -21.089  -6.979  -2.578  0.00  0.00    -0.020 C 
HETATM   17  C           1     -20.721  -8.138  -1.661  0.00  0.00     0.009 C 
HETATM   18  C           1     -22.197  -6.154  -1.935  0.00  0.00     0.009 C 
ENDBRANCH  15  16
ENDBRANCH  14  15
BRANCH  14  19
HETATM   19  C           1     -19.877  -8.807  -5.181  0.00  0.00     0.196 C 
HETATM   20  O           1     -18.694  -9.055  -4.861  0.00  0.00    -0.646 OA
HETATM   21  O           1     -20.583  -9.697  -5.701  0.00  0.00    -0.646 OA
ENDBRANCH  14  19
ENDBRANCH   2  14
TORSDOF 8
ENDMDL
MODEL 8
REMARK VINA RESULT:      -5.0     13.083     15.840
REMARK  8 active torsions:
REMARK  status: ('A' for Active; 'I' for Inactive)
REMARK    1  A    between atoms: C_1  and  C_14 
REMARK    2  A    between atoms: C_1  and  C_12 
REMARK    3  A    between atoms: C_1  and  N_5 
REMARK       I    between atoms: N_5  and  C_15 
REMARK    4  A    between atoms: N_6  and  C_19 
REMARK    5  A    between atoms: C_14  and  C_18 
REMARK    6  A    between atoms: C_15  and  C_19 
REMARK    7  A    between atoms: C_19  and  C_20 
REMARK    8  A    between atoms: C_20  and  O_21 
ROOT
HETATM    1  O           1     -22.000  -3.382  -7.396  0.00  0.00    -0.271 OA
HETATM    2  N           1     -22.453  -5.520  -6.937  0.00  0.00    -0.345 N 
HETATM    3  C           1     -22.585  -4.393  -7.703  0.00  0.00     0.251 C 
HETATM    4  H           1     -22.944  -6.366  -7.194  0.00  0.00     0.163 HD
ENDROOT
BRANCH   3   5
HETATM    5  C           1     -23.463  -4.415  -8.931  0.00  0.00     0.302 C 
BRANCH   5   6
HETATM    6  N           1     -24.305  -3.174  -8.964  0.00  0.00    -0.064 N 
HETATM    7  H           1     -24.597  -2.925  -7.992  0.00  0.00     0.275 HD
HETATM    8  H           1     -23.749  -2.388  -9.372  0.00  0.00     0.275 HD
HETATM    9  H           1     -25.152  -3.343  -9.550  0.00  0.00     0.275 HD
ENDBRANCH   5   6
BRANCH   5  10
HETATM   10  C           1     -22.589  -4.468 -10.178  0.00  0.00     0.153 C 
HETATM   11  C           1     -22.814  -3.211 -11.007  0.00  0.00     0.042 C 
BRANCH  10  12
HETATM   12  O           1     -21.241  -4.546  -9.803  0.00  0.00    -0.393 OA
HETATM   13  H           1     -20.977  -3.678  -9.546  0.00  0.00     0.210 HD
ENDBRANCH  10  12
ENDBRANCH   5  10
ENDBRANCH   3   5
BRANCH   2  14
HETATM   14  C           1     -21.611  -5.499  -5.757  0.00  0.00     0.185 C 
BRANCH  14  15
HETATM   15  C           1     -22.045  -6.606  -4.805  0.00  0.00     0.040 C 
BRANCH  15  16
HETATM   16  C           1     -21.203  -6.546  -3.537  0.00  0.00    -0.020 C 
HETATM   17  C           1     -20.613  -7.921  -3.253  0.00  0.00     0.009 C 
HETATM   18  C           1     -22.079  -6.117  -2.367  0.00  0.00     0.009 C 
ENDBRANCH  15  16
ENDBRANCH  14  15
BRANCH  14  19
HETATM   19  C           1     -20.174  -5.720  -6.163  0.00  0.00     0.196 C 
HETATM   20  O           1     -19.337  -4.801  -6.026  0.00  0.00    -0.646 OA
HETATM   21  O           1     -19.820  -6.821  -6.636  0.00  0.00    -0.646 OA
ENDBRANCH  14  19
ENDBRANCH   2  14
TORSDOF 8
ENDMDL
MODEL 9
REMARK VINA RESULT:      -4.9     15.279     17.311
REMARK  8 active torsions:
REMARK  status: ('A' for Active; 'I' for Inactive)
REMARK    1  A    between atoms: C_1  and  C_14 
REMARK    2  A    between atoms: C_1  and  C_12 
REMARK    3  A    between atoms: C_1  and  N_5 
REMARK       I    between atoms: N_5  and  C_15 
REMARK    4  A    between atoms: N_6  and  C_19 
REMARK    5  A    between atoms: C_14  and  C_18 
REMARK    6  A    between atoms: C_15  and  C_19 
REMARK    7  A    between atoms: C_19  and  C_20 
REMARK    8  A    between atoms: C_20  and  O_21 
ROOT
HETATM    1  O           1     -19.359  -8.516  -4.114  0.00  0.00    -0.271 OA
HETATM    2  N           1     -20.787  -8.131  -5.787  0.00  0.00    -0.345 N 
HETATM    3  C           1     -20.043  -8.968  -5.000  0.00  0.00     0.251 C 
HETATM    4  H           1     -21.360  -8.510  -6.529  0.00  0.00     0.163 HD
ENDROOT
BRANCH   3   5
HETATM    5  C           1     -20.078 -10.458  -5.241  0.00  0.00     0.302 C 
BRANCH   5   6
HETATM    6  N           1     -21.193 -10.784  -6.190  0.00  0.00    -0.064 N 
HETATM    7  H           1     -21.269 -10.032  -6.911  0.00  0.00     0.275 HD
HETATM    8  H           1     -20.995 -11.697  -6.659  0.00  0.00     0.275 HD
HETATM    9  H           1     -22.092 -10.851  -5.661  0.00  0.00     0.275 HD
ENDBRANCH   5   6
BRANCH   5  10
HETATM   10  C           1     -18.753 -10.905  -5.846  0.00  0.00     0.153 C 
HETATM   11  C           1     -19.012 -11.973  -6.900  0.00  0.00     0.042 C 
BRANCH  10  12
HETATM   12  O           1     -18.114  -9.807  -6.439  0.00  0.00    -0.393 OA
HETATM   13  H           1     -17.265 -10.103  -6.720  0.00  0.00     0.210 HD
ENDBRANCH  10  12
ENDBRANCH   5  10
ENDBRANCH   3   5
BRANCH   2  14
HETATM   14  C           1     -20.754  -6.700  -5.556  0.00  0.00     0.185 C 
BRANCH  14  15
HETATM   15  C           1     -20.865  -5.968  -6.887  0.00  0.00     0.040 C 
BRANCH  15  16
HETATM   16  C           1     -20.320  -4.554  -6.738  0.00  0.00    -0.020 C 
HETATM   17  C           1     -21.362  -3.555  -7.222  0.00  0.00     0.009 C 
HETATM   18  C           1     -19.052  -4.409  -7.569  0.00  0.00     0.009 C 
ENDBRANCH  15  16
ENDBRANCH  14  15
BRANCH  14  19
HETATM   19  C           1     -21.911  -6.308  -4.669  0.00  0.00     0.196 C 
HETATM   20  O           1     -21.715  -6.055  -3.461  0.00  0.00    -0.646 OA
HETATM   21  O           1     -23.065  -6.237  -5.142  0.00  0.00    -0.646 OA
ENDBRANCH  14  19
ENDBRANCH   2  14
TORSDOF 8
ENDMDL
