MODEL 1
REMARK VINA RESULT:      -5.5      0.000      0.000
REMARK  9 active torsions:
REMARK  status: ('A' for Active; 'I' for Inactive)
REMARK    1  A    between atoms: N_1  and  C_4 
REMARK    2  A    between atoms: Se_2  and  C_3 
REMARK    3  A    between atoms: C_3  and  C_4 
REMARK    4  A    between atoms: C_4  and  C_5 
REMARK       I    between atoms: C_5  and  N_6 
REMARK    5  A    between atoms: N_6  and  C_10 
REMARK    6  A    between atoms: C_9  and  C_10 
REMARK    7  A    between atoms: C_10  and  C_19 
REMARK    8  A    between atoms: Se_17  and  C_20 
REMARK    9  A    between atoms: C_19  and  C_20 
ROOT
HETATM    1  C           1     -21.634  -4.585  -7.617  0.00  0.00     0.249 C 
HETATM    2  N           1     -22.168  -4.869  -8.845  0.00  0.00    -0.345 N 
HETATM    3  H           1     -22.197  -5.825  -9.176  0.00  0.00     0.163 HD
HETATM    4  O           1     -21.600  -3.443  -7.223  0.00  0.00    -0.271 OA
ENDROOT
BRANCH   1   5
HETATM    5  C           1     -21.090  -5.697  -6.754  0.00  0.00     0.274 C 
BRANCH   5   6
HETATM    6  N           1     -19.899  -6.313  -7.428  0.00  0.00    -0.067 N 
HETATM    7  H           1     -19.867  -6.007  -8.427  0.00  0.00     0.275 HD
HETATM    8  H           1     -19.027  -6.006  -6.942  0.00  0.00     0.275 HD
HETATM    9  H           1     -19.975  -7.354  -7.384  0.00  0.00     0.275 HD
ENDBRANCH   5   6
BRANCH   5  10
HETATM   10  C           1     -20.674  -5.135  -5.402  0.00  0.00     0.045 C 
BRANCH  10  11
HETATM   11 Se           1     -21.408  -6.248  -3.980  0.00  0.00     0.000 Se
HETATM   12  H           1     -22.683  -5.516  -3.908  0.00  0.00     0.000 HD
ENDBRANCH  10  11
ENDBRANCH   5  10
ENDBRANCH   1   5
BRANCH   2  13
HETATM   13  C           1     -22.691  -3.800  -9.674  0.00  0.00     0.185 C 
BRANCH  13  14
HETATM   14  C           1     -24.200  -3.845  -9.657  0.00  0.00     0.196 C 
HETATM   15  O           1     -24.853  -2.808  -9.411  0.00  0.00    -0.646 OA
HETATM   16  O           1     -24.795  -4.919  -9.889  0.00  0.00    -0.646 OA
ENDBRANCH  13  14
BRANCH  13  17
HETATM   17  C           1     -22.194  -3.976 -11.102  0.00  0.00     0.036 C 
BRANCH  17  18
HETATM   18  C           1     -22.392  -2.679 -11.874  0.00  0.00     0.003 C 
BRANCH  18  19
HETATM   19 Se           1     -23.913  -2.863 -13.078  0.00  0.00     0.000 Se
HETATM   20  C           1     -22.859  -2.663 -14.705  0.00  0.00     0.000 C 
ENDBRANCH  18  19
ENDBRANCH  17  18
ENDBRANCH  13  17
ENDBRANCH   2  13
TORSDOF 9
ENDMDL
MODEL 2
REMARK VINA RESULT:      -4.8      2.202      7.024
REMARK  9 active torsions:
REMARK  status: ('A' for Active; 'I' for Inactive)
REMARK    1  A    between atoms: N_1  and  C_4 
REMARK    2  A    between atoms: Se_2  and  C_3 
REMARK    3  A    between atoms: C_3  and  C_4 
REMARK    4  A    between atoms: C_4  and  C_5 
REMARK       I    between atoms: C_5  and  N_6 
REMARK    5  A    between atoms: N_6  and  C_10 
REMARK    6  A    between atoms: C_9  and  C_10 
REMARK    7  A    between atoms: C_10  and  C_19 
REMARK    8  A    between atoms: Se_17  and  C_20 
REMARK    9  A    between atoms: C_19  and  C_20 
ROOT
HETATM    1  C           1     -22.406  -4.153  -8.111  0.00  0.00     0.249 C 
HETATM    2  N           1     -22.200  -5.320  -7.424  0.00  0.00    -0.345 N 
HETATM    3  H           1     -22.674  -6.167  -7.711  0.00  0.00     0.163 HD
HETATM    4  O           1     -21.841  -3.142  -7.768  0.00  0.00    -0.271 OA
ENDROOT
BRANCH   1   5
HETATM    5  C           1     -23.339  -4.130  -9.297  0.00  0.00     0.274 C 
BRANCH   5   6
HETATM    6  N           1     -24.560  -3.328  -8.955  0.00  0.00    -0.067 N 
HETATM    7  H           1     -24.296  -2.549  -8.310  0.00  0.00     0.275 HD
HETATM    8  H           1     -24.973  -2.933  -9.828  0.00  0.00     0.275 HD
HETATM    9  H           1     -25.261  -3.945  -8.486  0.00  0.00     0.275 HD
ENDBRANCH   5   6
BRANCH   5  10
HETATM   10  C           1     -22.632  -3.496 -10.487  0.00  0.00     0.045 C 
BRANCH  10  11
HETATM   11 Se           1     -23.919  -3.186 -11.918  0.00  0.00     0.000 Se
HETATM   12  H           1     -24.951  -4.058 -11.335  0.00  0.00     0.000 HD
ENDBRANCH  10  11
ENDBRANCH   5  10
ENDBRANCH   1   5
BRANCH   2  13
HETATM   13  C           1     -21.303  -5.342  -6.284  0.00  0.00     0.185 C 
BRANCH  13  14
HETATM   14  C           1     -19.927  -5.763  -6.737  0.00  0.00     0.196 C 
HETATM   15  O           1     -19.088  -4.900  -7.073  0.00  0.00    -0.646 OA
HETATM   16  O           1     -19.627  -6.976  -6.777  0.00  0.00    -0.646 OA
ENDBRANCH  13  14
BRANCH  13  17
HETATM   17  C           1     -21.823  -6.331  -5.250  0.00  0.00     0.036 C 
BRANCH  17  18
HETATM   18  C           1     -21.242  -5.991  -3.884  0.00  0.00     0.003 C 
BRANCH  18  19
HETATM   19 Se           1     -21.273  -7.576  -2.750  0.00  0.00     0.000 Se
HETATM   20  C           1     -22.263  -6.723  -1.304  0.00  0.00     0.000 C 
ENDBRANCH  18  19
ENDBRANCH  17  18
ENDBRANCH  13  17
ENDBRANCH   2  13
TORSDOF 9
ENDMDL
MODEL 3
REMARK VINA RESULT:      -4.7      2.464      6.653
REMARK  9 active torsions:
REMARK  status: ('A' for Active; 'I' for Inactive)
REMARK    1  A    between atoms: N_1  and  C_4 
REMARK    2  A    between atoms: Se_2  and  C_3 
REMARK    3  A    between atoms: C_3  and  C_4 
REMARK    4  A    between atoms: C_4  and  C_5 
REMARK       I    between atoms: C_5  and  N_6 
REMARK    5  A    between atoms: N_6  and  C_10 
REMARK    6  A    between atoms: C_9  and  C_10 
REMARK    7  A    between atoms: C_10  and  C_19 
REMARK    8  A    between atoms: Se_17  and  C_20 
REMARK    9  A    between atoms: C_19  and  C_20 
ROOT
HETATM    1  C           1     -23.218  -3.320 -12.559  0.00  0.00     0.249 C 
HETATM    2  N           1     -22.732  -3.058 -11.306  0.00  0.00    -0.345 N 
HETATM    3  H           1     -22.200  -2.214 -11.135  0.00  0.00     0.163 HD
HETATM    4  O           1     -23.853  -4.327 -12.762  0.00  0.00    -0.271 OA
ENDROOT
BRANCH   1   5
HETATM    5  C           1     -22.963  -2.349 -13.686  0.00  0.00     0.274 C 
BRANCH   5   6
HETATM    6  N           1     -22.393  -3.088 -14.861  0.00  0.00    -0.067 N 
HETATM    7  H           1     -21.553  -3.631 -14.557  0.00  0.00     0.275 HD
HETATM    8  H           1     -23.111  -3.743 -15.241  0.00  0.00     0.275 HD
HETATM    9  H           1     -22.117  -2.404 -15.601  0.00  0.00     0.275 HD
ENDBRANCH   5   6
BRANCH   5  10
HETATM   10  C           1     -24.271  -1.684 -14.090  0.00  0.00     0.045 C 
BRANCH  10  11
HETATM   11 Se           1     -23.925  -0.351 -15.469  0.00  0.00     0.000 Se
HETATM   12  H           1     -24.590   0.742 -14.741  0.00  0.00     0.000 HD
ENDBRANCH  10  11
ENDBRANCH   5  10
ENDBRANCH   1   5
BRANCH   2  13
HETATM   13  C           1     -22.977  -3.991 -10.223  0.00  0.00     0.185 C 
BRANCH  13  14
HETATM   14  C           1     -24.415  -3.877  -9.779  0.00  0.00     0.196 C 
HETATM   15  O           1     -25.124  -4.902  -9.687  0.00  0.00    -0.646 OA
HETATM   16  O           1     -24.897  -2.757  -9.504  0.00  0.00    -0.646 OA
ENDBRANCH  13  14
BRANCH  13  17
HETATM   17  C           1     -22.058  -3.665  -9.054  0.00  0.00     0.036 C 
BRANCH  17  18
HETATM   18  C           1     -21.725  -4.943  -8.296  0.00  0.00     0.003 C 
BRANCH  18  19
HETATM   19 Se           1     -20.828  -4.494  -6.626  0.00  0.00     0.000 Se
HETATM   20  C           1     -21.691  -5.904  -5.593  0.00  0.00     0.000 C 
ENDBRANCH  18  19
ENDBRANCH  17  18
ENDBRANCH  13  17
ENDBRANCH   2  13
TORSDOF 9
ENDMDL
MODEL 4
REMARK VINA RESULT:      -4.6      2.432      3.172
REMARK  9 active torsions:
REMARK  status: ('A' for Active; 'I' for Inactive)
REMARK    1  A    between atoms: N_1  and  C_4 
REMARK    2  A    between atoms: Se_2  and  C_3 
REMARK    3  A    between atoms: C_3  and  C_4 
REMARK    4  A    between atoms: C_4  and  C_5 
REMARK       I    between atoms: C_5  and  N_6 
REMARK    5  A    between atoms: N_6  and  C_10 
REMARK    6  A    between atoms: C_9  and  C_10 
REMARK    7  A    between atoms: C_10  and  C_19 
REMARK    8  A    between atoms: Se_17  and  C_20 
REMARK    9  A    between atoms: C_19  and  C_20 
ROOT
HETATM    1  C           1     -21.326  -5.944  -6.476  0.00  0.00     0.249 C 
HETATM    2  N           1     -21.762  -4.830  -7.143  0.00  0.00    -0.345 N 
HETATM    3  H           1     -22.105  -4.032  -6.625  0.00  0.00     0.163 HD
HETATM    4  O           1     -20.917  -6.897  -7.096  0.00  0.00    -0.271 OA
ENDROOT
BRANCH   1   5
HETATM    5  C           1     -21.355  -5.981  -4.968  0.00  0.00     0.274 C 
BRANCH   5   6
HETATM    6  N           1     -22.759  -6.236  -4.503  0.00  0.00    -0.067 N 
HETATM    7  H           1     -22.797  -7.150  -3.997  0.00  0.00     0.275 HD
HETATM    8  H           1     -23.056  -5.470  -3.859  0.00  0.00     0.275 HD
HETATM    9  H           1     -23.398  -6.267  -5.328  0.00  0.00     0.275 HD
ENDBRANCH   5   6
BRANCH   5  10
HETATM   10  C           1     -20.444  -7.094  -4.469  0.00  0.00     0.045 C 
BRANCH  10  11
HETATM   11 Se           1     -21.519  -8.649  -3.991  0.00  0.00     0.000 Se
HETATM   12  H           1     -21.285  -8.509  -2.545  0.00  0.00     0.000 HD
ENDBRANCH  10  11
ENDBRANCH   5  10
ENDBRANCH   1   5
BRANCH   2  13
HETATM   13  C           1     -21.734  -4.795  -8.593  0.00  0.00     0.185 C 
BRANCH  13  14
HETATM   14  C           1     -20.360  -4.380  -9.058  0.00  0.00     0.196 C 
HETATM   15  O           1     -19.934  -4.764 -10.169  0.00  0.00    -0.646 OA
HETATM   16  O           1     -19.649  -3.653  -8.332  0.00  0.00    -0.646 OA
ENDBRANCH  13  14
BRANCH  13  17
HETATM   17  C           1     -22.765  -3.794  -9.096  0.00  0.00     0.036 C 
BRANCH  17  18
HETATM   18  C           1     -23.745  -4.496 -10.026  0.00  0.00     0.003 C 
BRANCH  18  19
HETATM   19 Se           1     -24.182  -3.321 -11.518  0.00  0.00     0.000 Se
HETATM   20  C           1     -22.335  -2.804 -11.864  0.00  0.00     0.000 C 
ENDBRANCH  18  19
ENDBRANCH  17  18
ENDBRANCH  13  17
ENDBRANCH   2  13
TORSDOF 9
ENDMDL
MODEL 5
REMARK VINA RESULT:      -4.6      9.080     11.490
REMARK  9 active torsions:
REMARK  status: ('A' for Active; 'I' for Inactive)
REMARK    1  A    between atoms: N_1  and  C_4 
REMARK    2  A    between atoms: Se_2  and  C_3 
REMARK    3  A    between atoms: C_3  and  C_4 
REMARK    4  A    between atoms: C_4  and  C_5 
REMARK       I    between atoms: C_5  and  N_6 
REMARK    5  A    between atoms: N_6  and  C_10 
REMARK    6  A    between atoms: C_9  and  C_10 
REMARK    7  A    between atoms: C_10  and  C_19 
REMARK    8  A    between atoms: Se_17  and  C_20 
REMARK    9  A    between atoms: C_19  and  C_20 
ROOT
HETATM    1  C           1     -26.481  -6.429 -19.344  0.00  0.00     0.249 C 
HETATM    2  N           1     -25.890  -6.750 -18.151  0.00  0.00    -0.345 N 
HETATM    3  H           1     -25.036  -7.294 -18.140  0.00  0.00     0.163 HD
HETATM    4  O           1     -27.500  -5.781 -19.357  0.00  0.00    -0.271 OA
ENDROOT
BRANCH   1   5
HETATM    5  C           1     -25.859  -6.882 -20.642  0.00  0.00     0.274 C 
BRANCH   5   6
HETATM    6  N           1     -25.401  -5.684 -21.420  0.00  0.00    -0.067 N 
HETATM    7  H           1     -25.439  -4.836 -20.810  0.00  0.00     0.275 HD
HETATM    8  H           1     -24.420  -5.834 -21.746  0.00  0.00     0.275 HD
HETATM    9  H           1     -26.026  -5.547 -22.246  0.00  0.00     0.275 HD
ENDBRANCH   5   6
BRANCH   5  10
HETATM   10  C           1     -24.666  -7.782 -20.347  0.00  0.00     0.045 C 
BRANCH  10  11
HETATM   11 Se           1     -23.716  -8.167 -22.004  0.00  0.00     0.000 Se
HETATM   12  H           1     -23.150  -6.814 -22.129  0.00  0.00     0.000 HD
ENDBRANCH  10  11
ENDBRANCH   5  10
ENDBRANCH   1   5
BRANCH   2  13
HETATM   13  C           1     -26.488  -6.314 -16.904  0.00  0.00     0.185 C 
BRANCH  13  14
HETATM   14  C           1     -25.476  -6.439 -15.792  0.00  0.00     0.196 C 
HETATM   15  O           1     -25.108  -7.570 -15.405  0.00  0.00    -0.646 OA
HETATM   16  O           1     -25.007  -5.412 -15.256  0.00  0.00    -0.646 OA
ENDBRANCH  13  14
BRANCH  13  17
HETATM   17  C           1     -27.697  -7.184 -16.590  0.00  0.00     0.036 C 
BRANCH  17  18
HETATM   18  C           1     -28.732  -6.363 -15.833  0.00  0.00     0.003 C 
BRANCH  18  19
HETATM   19 Se           1     -30.328  -6.153 -16.931  0.00  0.00     0.000 Se
HETATM   20  C           1     -29.969  -7.715 -18.041  0.00  0.00     0.000 C 
ENDBRANCH  18  19
ENDBRANCH  17  18
ENDBRANCH  13  17
ENDBRANCH   2  13
TORSDOF 9
ENDMDL
MODEL 6
REMARK VINA RESULT:      -4.5     18.116     19.411
REMARK  9 active torsions:
REMARK  status: ('A' for Active; 'I' for Inactive)
REMARK    1  A    between atoms: N_1  and  C_4 
REMARK    2  A    between atoms: Se_2  and  C_3 
REMARK    3  A    between atoms: C_3  and  C_4 
REMARK    4  A    between atoms: C_4  and  C_5 
REMARK       I    between atoms: C_5  and  N_6 
REMARK    5  A    between atoms: N_6  and  C_10 
REMARK    6  A    between atoms: C_9  and  C_10 
REMARK    7  A    between atoms: C_10  and  C_19 
REMARK    8  A    between atoms: Se_17  and  C_20 
REMARK    9  A    between atoms: C_19  and  C_20 
ROOT
HETATM    1  C           1     -11.603   3.965 -21.858  0.00  0.00     0.249 C 
HETATM    2  N           1     -11.221   5.219 -21.465  0.00  0.00    -0.345 N 
HETATM    3  H           1     -11.735   6.029 -21.788  0.00  0.00     0.163 HD
HETATM    4  O           1     -10.989   2.998 -21.473  0.00  0.00    -0.271 OA
ENDROOT
BRANCH   1   5
HETATM    5  C           1     -12.791   3.789 -22.772  0.00  0.00     0.274 C 
BRANCH   5   6
HETATM    6  N           1     -13.711   2.750 -22.199  0.00  0.00    -0.067 N 
HETATM    7  H           1     -14.414   2.472 -22.920  0.00  0.00     0.275 HD
HETATM    8  H           1     -13.156   1.914 -21.913  0.00  0.00     0.275 HD
HETATM    9  H           1     -14.203   3.144 -21.366  0.00  0.00     0.275 HD
ENDBRANCH   5   6
BRANCH   5  10
HETATM   10  C           1     -13.535   5.111 -22.898  0.00  0.00     0.045 C 
BRANCH  10  11
HETATM   11 Se           1     -15.000   5.159 -21.614  0.00  0.00     0.000 Se
HETATM   12  H           1     -15.995   4.618 -22.554  0.00  0.00     0.000 HD
ENDBRANCH  10  11
ENDBRANCH   5  10
ENDBRANCH   1   5
BRANCH   2  13
HETATM   13  C           1     -10.079   5.388 -20.587  0.00  0.00     0.185 C 
BRANCH  13  14
HETATM   14  C           1     -10.557   5.519 -19.162  0.00  0.00     0.196 C 
HETATM   15  O           1      -9.748   5.814 -18.256  0.00  0.00    -0.646 OA
HETATM   16  O           1     -11.761   5.330 -18.888  0.00  0.00    -0.646 OA
ENDBRANCH  13  14
BRANCH  13  17
HETATM   17  C           1      -9.316   6.645 -20.984  0.00  0.00     0.036 C 
BRANCH  17  18
HETATM   18  C           1     -10.302   7.735 -21.381  0.00  0.00     0.003 C 
BRANCH  18  19
HETATM   19 Se           1     -10.241   9.177 -20.071  0.00  0.00     0.000 Se
HETATM   20  C           1     -12.086   8.946 -19.489  0.00  0.00     0.000 C 
ENDBRANCH  18  19
ENDBRANCH  17  18
ENDBRANCH  13  17
ENDBRANCH   2  13
TORSDOF 9
ENDMDL
MODEL 7
REMARK VINA RESULT:      -4.5      3.619      7.666
REMARK  9 active torsions:
REMARK  status: ('A' for Active; 'I' for Inactive)
REMARK    1  A    between atoms: N_1  and  C_4 
REMARK    2  A    between atoms: Se_2  and  C_3 
REMARK    3  A    between atoms: C_3  and  C_4 
REMARK    4  A    between atoms: C_4  and  C_5 
REMARK       I    between atoms: C_5  and  N_6 
REMARK    5  A    between atoms: N_6  and  C_10 
REMARK    6  A    between atoms: C_9  and  C_10 
REMARK    7  A    between atoms: C_10  and  C_19 
REMARK    8  A    between atoms: Se_17  and  C_20 
REMARK    9  A    between atoms: C_19  and  C_20 
ROOT
HETATM    1  C           1     -20.988  -5.271  -6.612  0.00  0.00     0.249 C 
HETATM    2  N           1     -21.213  -6.552  -6.184  0.00  0.00    -0.345 N 
HETATM    3  H           1     -21.693  -7.209  -6.786  0.00  0.00     0.163 HD
HETATM    4  O           1     -20.416  -4.486  -5.894  0.00  0.00    -0.271 OA
ENDROOT
BRANCH   1   5
HETATM    5  C           1     -21.455  -4.839  -7.980  0.00  0.00     0.274 C 
BRANCH   5   6
HETATM    6  N           1     -22.326  -3.624  -7.850  0.00  0.00    -0.067 N 
HETATM    7  H           1     -21.784  -2.853  -7.398  0.00  0.00     0.275 HD
HETATM    8  H           1     -22.642  -3.318  -8.797  0.00  0.00     0.275 HD
HETATM    9  H           1     -23.159  -3.855  -7.262  0.00  0.00     0.275 HD
ENDBRANCH   5   6
BRANCH   5  10
HETATM   10  C           1     -20.248  -4.507  -8.847  0.00  0.00     0.045 C 
BRANCH  10  11
HETATM   11 Se           1     -20.844  -4.065 -10.650  0.00  0.00     0.000 Se
HETATM   12  H           1     -21.309  -5.427 -10.954  0.00  0.00     0.000 HD
ENDBRANCH  10  11
ENDBRANCH   5  10
ENDBRANCH   1   5
BRANCH   2  13
HETATM   13  C           1     -20.765  -6.967  -4.869  0.00  0.00     0.185 C 
BRANCH  13  14
HETATM   14  C           1     -20.235  -8.378  -4.942  0.00  0.00     0.196 C 
HETATM   15  O           1     -20.782  -9.214  -5.694  0.00  0.00    -0.646 OA
HETATM   16  O           1     -19.250  -8.712  -4.249  0.00  0.00    -0.646 OA
ENDBRANCH  13  14
BRANCH  13  17
HETATM   17  C           1     -21.934  -6.913  -3.895  0.00  0.00     0.036 C 
BRANCH  17  18
HETATM   18  C           1     -21.536  -6.105  -2.667  0.00  0.00     0.003 C 
BRANCH  18  19
HETATM   19 Se           1     -22.245  -6.960  -1.066  0.00  0.00     0.000 Se
HETATM   20  C           1     -21.007  -8.464  -1.124  0.00  0.00     0.000 C 
ENDBRANCH  18  19
ENDBRANCH  17  18
ENDBRANCH  13  17
ENDBRANCH   2  13
TORSDOF 9
ENDMDL
MODEL 8
REMARK VINA RESULT:      -4.4      2.979      3.956
REMARK  9 active torsions:
REMARK  status: ('A' for Active; 'I' for Inactive)
REMARK    1  A    between atoms: N_1  and  C_4 
REMARK    2  A    between atoms: Se_2  and  C_3 
REMARK    3  A    between atoms: C_3  and  C_4 
REMARK    4  A    between atoms: C_4  and  C_5 
REMARK       I    between atoms: C_5  and  N_6 
REMARK    5  A    between atoms: N_6  and  C_10 
REMARK    6  A    between atoms: C_9  and  C_10 
REMARK    7  A    between atoms: C_10  and  C_19 
REMARK    8  A    between atoms: Se_17  and  C_20 
REMARK    9  A    between atoms: C_19  and  C_20 
ROOT
HETATM    1  C           1     -21.545  -6.939  -5.554  0.00  0.00     0.249 C 
HETATM    2  N           1     -21.777  -5.650  -5.954  0.00  0.00    -0.345 N 
HETATM    3  H           1     -22.185  -4.986  -5.310  0.00  0.00     0.163 HD
HETATM    4  O           1     -21.058  -7.732  -6.324  0.00  0.00    -0.271 OA
ENDROOT
BRANCH   1   5
HETATM    5  C           1     -21.897  -7.369  -4.151  0.00  0.00     0.274 C 
BRANCH   5   6
HETATM    6  N           1     -21.186  -8.651  -3.829  0.00  0.00    -0.067 N 
HETATM    7  H           1     -21.587  -9.061  -2.955  0.00  0.00     0.275 HD
HETATM    8  H           1     -21.308  -9.324  -4.618  0.00  0.00     0.275 HD
HETATM    9  H           1     -20.169  -8.458  -3.689  0.00  0.00     0.275 HD
ENDBRANCH   5   6
BRANCH   5  10
HETATM   10  C           1     -21.469  -6.290  -3.166  0.00  0.00     0.045 C 
BRANCH  10  11
HETATM   11 Se           1     -22.195  -6.692  -1.403  0.00  0.00     0.000 Se
HETATM   12  H           1     -20.903  -6.553  -0.712  0.00  0.00     0.000 HD
ENDBRANCH  10  11
ENDBRANCH   5  10
ENDBRANCH   1   5
BRANCH   2  13
HETATM   13  C           1     -21.439  -5.238  -7.303  0.00  0.00     0.185 C 
BRANCH  13  14
HETATM   14  C           1     -20.028  -4.703  -7.325  0.00  0.00     0.196 C 
HETATM   15  O           1     -19.416  -4.509  -6.252  0.00  0.00    -0.646 OA
HETATM   16  O           1     -19.472  -4.453  -8.416  0.00  0.00    -0.646 OA
ENDBRANCH  13  14
BRANCH  13  17
HETATM   17  C           1     -22.401  -4.149  -7.756  0.00  0.00     0.036 C 
BRANCH  17  18
HETATM   18  C           1     -22.741  -4.350  -9.227  0.00  0.00     0.003 C 
BRANCH  18  19
HETATM   19 Se           1     -24.420  -3.448  -9.636  0.00  0.00     0.000 Se
HETATM   20  C           1     -24.101  -3.376 -11.558  0.00  0.00     0.000 C 
ENDBRANCH  18  19
ENDBRANCH  17  18
ENDBRANCH  13  17
ENDBRANCH   2  13
TORSDOF 9
ENDMDL
MODEL 9
REMARK VINA RESULT:      -4.4     10.049     11.570
REMARK  9 active torsions:
REMARK  status: ('A' for Active; 'I' for Inactive)
REMARK    1  A    between atoms: N_1  and  C_4 
REMARK    2  A    between atoms: Se_2  and  C_3 
REMARK    3  A    between atoms: C_3  and  C_4 
REMARK    4  A    between atoms: C_4  and  C_5 
REMARK       I    between atoms: C_5  and  N_6 
REMARK    5  A    between atoms: N_6  and  C_10 
REMARK    6  A    between atoms: C_9  and  C_10 
REMARK    7  A    between atoms: C_10  and  C_19 
REMARK    8  A    between atoms: Se_17  and  C_20 
REMARK    9  A    between atoms: C_19  and  C_20 
ROOT
HETATM    1  C           1     -26.818  -6.365 -18.928  0.00  0.00     0.249 C 
HETATM    2  N           1     -27.084  -6.713 -17.631  0.00  0.00    -0.345 N 
HETATM    3  H           1     -26.369  -7.159 -17.070  0.00  0.00     0.163 HD
HETATM    4  O           1     -27.670  -5.833 -19.597  0.00  0.00    -0.271 OA
ENDROOT
BRANCH   1   5
HETATM    5  C           1     -25.458  -6.645 -19.521  0.00  0.00     0.274 C 
BRANCH   5   6
HETATM    6  N           1     -24.604  -7.341 -18.503  0.00  0.00    -0.067 N 
HETATM    7  H           1     -23.737  -6.782 -18.334  0.00  0.00     0.275 HD
HETATM    8  H           1     -25.136  -7.437 -17.609  0.00  0.00     0.275 HD
HETATM    9  H           1     -24.343  -8.289 -18.858  0.00  0.00     0.275 HD
ENDBRANCH   5   6
BRANCH   5  10
HETATM   10  C           1     -25.612  -7.534 -20.748  0.00  0.00     0.045 C 
BRANCH  10  11
HETATM   11 Se           1     -23.855  -8.132 -21.343  0.00  0.00     0.000 Se
HETATM   12  H           1     -23.973  -9.463 -20.727  0.00  0.00     0.000 HD
ENDBRANCH  10  11
ENDBRANCH   5  10
ENDBRANCH   1   5
BRANCH   2  13
HETATM   13  C           1     -28.390  -6.444 -17.061  0.00  0.00     0.185 C 
BRANCH  13  14
HETATM   14  C           1     -28.299  -6.488 -15.555  0.00  0.00     0.196 C 
HETATM   15  O           1     -28.656  -5.499 -14.878  0.00  0.00    -0.646 OA
HETATM   16  O           1     -27.865  -7.512 -14.985  0.00  0.00    -0.646 OA
ENDBRANCH  13  14
BRANCH  13  17
HETATM   17  C           1     -29.379  -7.497 -17.540  0.00  0.00     0.036 C 
BRANCH  17  18
HETATM   18  C           1     -30.796  -6.953 -17.428  0.00  0.00     0.003 C 
BRANCH  18  19
HETATM   19 Se           1     -30.783  -5.031 -17.749  0.00  0.00     0.000 Se
HETATM   20  C           1     -32.384  -4.678 -16.695  0.00  0.00     0.000 C 
ENDBRANCH  18  19
ENDBRANCH  17  18
ENDBRANCH  13  17
ENDBRANCH   2  13
TORSDOF 9
ENDMDL
