MODEL 1
REMARK VINA RESULT:      -6.0      0.000      0.000
REMARK  9 active torsions:
REMARK  status: ('A' for Active; 'I' for Inactive)
REMARK    1  A    between atoms: C_2  and  C_15 
REMARK    2  A    between atoms: C_2  and  C_4 
REMARK    3  A    between atoms: C_6  and  C_14 
REMARK    4  A    between atoms: C_6  and  C_7 
REMARK    5  A    between atoms: C_7  and  C_8 
REMARK    6  A    between atoms: C_7  and  N_17 
REMARK    7  A    between atoms: N_10  and  C_15 
REMARK    8  A    between atoms: C_14  and  S_19 
REMARK    9  A    between atoms: C_15  and  C_16 
REMARK       I    between atoms: C_16  and  N_17 
ROOT
HETATM    1  O           1     -33.274  -1.993 -10.781  0.00  0.00    -0.271 OA
HETATM    2  C           1     -33.933  -2.533 -11.638  0.00  0.00     0.249 C 
HETATM    3  N           1     -34.835  -1.807 -12.368  0.00  0.00    -0.345 N 
HETATM    4  H           1     -35.387  -2.259 -13.086  0.00  0.00     0.163 HD
ENDROOT
BRANCH   2   5
HETATM    5  C           1     -33.761  -4.008 -11.905  0.00  0.00     0.278 C 
BRANCH   5   6
HETATM    6  C           1     -34.225  -4.803 -10.691  0.00  0.00     0.021 C 
HETATM    7  C           1     -35.743  -4.740 -10.593  0.00  0.00     0.012 C 
BRANCH   6   8
HETATM    8  C           1     -33.786  -6.254 -10.838  0.00  0.00     0.002 C 
HETATM    9  C           1     -34.755  -7.156 -10.085  0.00  0.00     0.005 C 
ENDBRANCH   6   8
ENDBRANCH   5   6
BRANCH   5  10
HETATM   10  N           1     -32.313  -4.302 -12.171  0.00  0.00    -0.066 N 
HETATM   11  H           1     -31.773  -4.227 -11.280  0.00  0.00     0.275 HD
HETATM   12  H           1     -32.220  -5.270 -12.554  0.00  0.00     0.275 HD
HETATM   13  H           1     -31.940  -3.614 -12.863  0.00  0.00     0.275 HD
ENDBRANCH   5  10
ENDBRANCH   2   5
BRANCH   3  14
HETATM   14  C           1     -35.000  -0.389 -12.111  0.00  0.00     0.186 C 
BRANCH  14  15
HETATM   15  C           1     -35.088   0.359 -13.435  0.00  0.00     0.046 C 
BRANCH  15  16
HETATM   16  C           1     -35.456  -0.616 -14.545  0.00  0.00     0.076 C 
BRANCH  16  17
HETATM   17  S           1     -36.534   0.214 -15.747  0.00  0.00    -0.173 SA
HETATM   18  C           1     -38.072   0.022 -14.803  0.00  0.00     0.089 C 
ENDBRANCH  16  17
ENDBRANCH  15  16
ENDBRANCH  14  15
BRANCH  14  19
HETATM   19  C           1     -36.266  -0.165 -11.321  0.00  0.00     0.196 C 
HETATM   20  O           1     -36.300   0.708 -10.428  0.00  0.00    -0.646 OA
HETATM   21  O           1     -37.282  -0.855 -11.559  0.00  0.00    -0.646 OA
ENDBRANCH  14  19
ENDBRANCH   3  14
TORSDOF 9
ENDMDL
MODEL 2
REMARK VINA RESULT:      -5.9      2.508      3.336
REMARK  9 active torsions:
REMARK  status: ('A' for Active; 'I' for Inactive)
REMARK    1  A    between atoms: C_2  and  C_15 
REMARK    2  A    between atoms: C_2  and  C_4 
REMARK    3  A    between atoms: C_6  and  C_14 
REMARK    4  A    between atoms: C_6  and  C_7 
REMARK    5  A    between atoms: C_7  and  C_8 
REMARK    6  A    between atoms: C_7  and  N_17 
REMARK    7  A    between atoms: N_10  and  C_15 
REMARK    8  A    between atoms: C_14  and  S_19 
REMARK    9  A    between atoms: C_15  and  C_16 
REMARK       I    between atoms: C_16  and  N_17 
ROOT
HETATM    1  O           1     -34.749  -2.703 -13.684  0.00  0.00    -0.271 OA
HETATM    2  C           1     -34.605  -2.217 -12.588  0.00  0.00     0.249 C 
HETATM    3  N           1     -35.370  -1.147 -12.207  0.00  0.00    -0.345 N 
HETATM    4  H           1     -35.249  -0.739 -11.289  0.00  0.00     0.163 HD
ENDROOT
BRANCH   2   5
HETATM    5  C           1     -33.583  -2.789 -11.636  0.00  0.00     0.278 C 
BRANCH   5   6
HETATM    6  C           1     -33.572  -4.308 -11.754  0.00  0.00     0.021 C 
HETATM    7  C           1     -32.157  -4.783 -12.059  0.00  0.00     0.012 C 
BRANCH   6   8
HETATM    8  C           1     -34.041  -4.921 -10.442  0.00  0.00     0.002 C 
HETATM    9  C           1     -34.271  -6.415 -10.632  0.00  0.00     0.005 C 
ENDBRANCH   6   8
ENDBRANCH   5   6
BRANCH   5  10
HETATM   10  N           1     -33.935  -2.400 -10.231  0.00  0.00    -0.066 N 
HETATM   11  H           1     -33.454  -3.041  -9.560  0.00  0.00     0.275 HD
HETATM   12  H           1     -33.628  -1.417 -10.055  0.00  0.00     0.275 HD
HETATM   13  H           1     -34.969  -2.472 -10.099  0.00  0.00     0.275 HD
ENDBRANCH   5  10
ENDBRANCH   2   5
BRANCH   3  14
HETATM   14  C           1     -36.352  -0.598 -13.122  0.00  0.00     0.186 C 
BRANCH  14  15
HETATM   15  C           1     -37.520  -0.029 -12.328  0.00  0.00     0.046 C 
BRANCH  15  16
HETATM   16  C           1     -37.486  -0.578 -10.908  0.00  0.00     0.076 C 
BRANCH  16  17
HETATM   17  S           1     -37.410   0.798  -9.728  0.00  0.00    -0.173 SA
HETATM   18  C           1     -37.355  -0.226  -8.230  0.00  0.00     0.089 C 
ENDBRANCH  16  17
ENDBRANCH  15  16
ENDBRANCH  14  15
BRANCH  14  19
HETATM   19  C           1     -35.718   0.499 -13.941  0.00  0.00     0.196 C 
HETATM   20  O           1     -34.752   1.145 -13.480  0.00  0.00    -0.646 OA
HETATM   21  O           1     -36.160   0.764 -15.080  0.00  0.00    -0.646 OA
ENDBRANCH  14  19
ENDBRANCH   3  14
TORSDOF 9
ENDMDL
MODEL 3
REMARK VINA RESULT:      -5.5      2.967      6.374
REMARK  9 active torsions:
REMARK  status: ('A' for Active; 'I' for Inactive)
REMARK    1  A    between atoms: C_2  and  C_15 
REMARK    2  A    between atoms: C_2  and  C_4 
REMARK    3  A    between atoms: C_6  and  C_14 
REMARK    4  A    between atoms: C_6  and  C_7 
REMARK    5  A    between atoms: C_7  and  C_8 
REMARK    6  A    between atoms: C_7  and  N_17 
REMARK    7  A    between atoms: N_10  and  C_15 
REMARK    8  A    between atoms: C_14  and  S_19 
REMARK    9  A    between atoms: C_15  and  C_16 
REMARK       I    between atoms: C_16  and  N_17 
ROOT
HETATM    1  O           1     -34.573  -1.544 -10.242  0.00  0.00    -0.271 OA
HETATM    2  C           1     -35.364  -1.791 -11.121  0.00  0.00     0.249 C 
HETATM    3  N           1     -35.331  -3.005 -11.752  0.00  0.00    -0.345 N 
HETATM    4  H           1     -35.993  -3.211 -12.489  0.00  0.00     0.163 HD
ENDROOT
BRANCH   2   5
HETATM    5  C           1     -36.390  -0.760 -11.524  0.00  0.00     0.278 C 
BRANCH   5   6
HETATM    6  C           1     -36.260  -0.466 -13.013  0.00  0.00     0.021 C 
HETATM    7  C           1     -37.612  -0.035 -13.566  0.00  0.00     0.012 C 
BRANCH   6   8
HETATM    8  C           1     -35.248   0.653 -13.221  0.00  0.00     0.002 C 
HETATM    9  C           1     -35.021   0.862 -14.713  0.00  0.00     0.005 C 
ENDBRANCH   6   8
ENDBRANCH   5   6
BRANCH   5  10
HETATM   10  N           1     -36.163   0.502 -10.744  0.00  0.00    -0.066 N 
HETATM   11  H           1     -35.137   0.653 -10.616  0.00  0.00     0.275 HD
HETATM   12  H           1     -36.573   1.310 -11.264  0.00  0.00     0.275 HD
HETATM   13  H           1     -36.622   0.420  -9.809  0.00  0.00     0.275 HD
ENDBRANCH   5  10
ENDBRANCH   2   5
BRANCH   3  14
HETATM   14  C           1     -34.344  -3.995 -11.365  0.00  0.00     0.186 C 
BRANCH  14  15
HETATM   15  C           1     -35.009  -5.362 -11.271  0.00  0.00     0.046 C 
BRANCH  15  16
HETATM   16  C           1     -34.037  -6.358 -10.653  0.00  0.00     0.076 C 
BRANCH  16  17
HETATM   17  S           1     -34.958  -7.568  -9.662  0.00  0.00    -0.173 SA
HETATM   18  C           1     -33.809  -8.950  -9.914  0.00  0.00     0.089 C 
ENDBRANCH  16  17
ENDBRANCH  15  16
ENDBRANCH  14  15
BRANCH  14  19
HETATM   19  C           1     -33.245  -4.040 -12.397  0.00  0.00     0.196 C 
HETATM   20  O           1     -32.060  -4.219 -12.041  0.00  0.00    -0.646 OA
HETATM   21  O           1     -33.518  -3.896 -13.609  0.00  0.00    -0.646 OA
ENDBRANCH  14  19
ENDBRANCH   3  14
TORSDOF 9
ENDMDL
MODEL 4
REMARK VINA RESULT:      -5.5     14.225     16.072
REMARK  9 active torsions:
REMARK  status: ('A' for Active; 'I' for Inactive)
REMARK    1  A    between atoms: C_2  and  C_15 
REMARK    2  A    between atoms: C_2  and  C_4 
REMARK    3  A    between atoms: C_6  and  C_14 
REMARK    4  A    between atoms: C_6  and  C_7 
REMARK    5  A    between atoms: C_7  and  C_8 
REMARK    6  A    between atoms: C_7  and  N_17 
REMARK    7  A    between atoms: N_10  and  C_15 
REMARK    8  A    between atoms: C_14  and  S_19 
REMARK    9  A    between atoms: C_15  and  C_16 
REMARK       I    between atoms: C_16  and  N_17 
ROOT
HETATM    1  O           1     -22.096  -7.472  -4.723  0.00  0.00    -0.271 OA
HETATM    2  C           1     -21.498  -6.556  -4.208  0.00  0.00     0.249 C 
HETATM    3  N           1     -21.035  -5.523  -4.976  0.00  0.00    -0.345 N 
HETATM    4  H           1     -20.534  -4.756  -4.545  0.00  0.00     0.163 HD
ENDROOT
BRANCH   2   5
HETATM    5  C           1     -21.264  -6.552  -2.717  0.00  0.00     0.278 C 
BRANCH   5   6
HETATM    6  C           1     -21.296  -7.982  -2.193  0.00  0.00     0.021 C 
HETATM    7  C           1     -19.902  -8.589  -2.291  0.00  0.00     0.012 C 
BRANCH   6   8
HETATM    8  C           1     -21.746  -7.978  -0.738  0.00  0.00     0.002 C 
HETATM    9  C           1     -22.646  -9.180  -0.482  0.00  0.00     0.005 C 
ENDBRANCH   6   8
ENDBRANCH   5   6
BRANCH   5  10
HETATM   10  N           1     -22.340  -5.750  -2.044  0.00  0.00    -0.066 N 
HETATM   11  H           1     -21.903  -5.017  -1.441  0.00  0.00     0.275 HD
HETATM   12  H           1     -22.938  -5.294  -2.770  0.00  0.00     0.275 HD
HETATM   13  H           1     -22.926  -6.382  -1.454  0.00  0.00     0.275 HD
ENDBRANCH   5  10
ENDBRANCH   2   5
BRANCH   3  14
HETATM   14  C           1     -21.260  -5.527  -6.409  0.00  0.00     0.186 C 
BRANCH  14  15
HETATM   15  C           1     -21.786  -4.166  -6.843  0.00  0.00     0.046 C 
BRANCH  15  16
HETATM   16  C           1     -23.067  -4.349  -7.646  0.00  0.00     0.076 C 
BRANCH  16  17
HETATM   17  S           1     -22.793  -3.804  -9.355  0.00  0.00    -0.173 SA
HETATM   18  C           1     -24.531  -3.440  -9.730  0.00  0.00     0.089 C 
ENDBRANCH  16  17
ENDBRANCH  15  16
ENDBRANCH  14  15
BRANCH  14  19
HETATM   19  C           1     -19.961  -5.815  -7.121  0.00  0.00     0.196 C 
HETATM   20  O           1     -19.449  -4.949  -7.862  0.00  0.00    -0.646 OA
HETATM   21  O           1     -19.398  -6.922  -6.971  0.00  0.00    -0.646 OA
ENDBRANCH  14  19
ENDBRANCH   3  14
TORSDOF 9
ENDMDL
MODEL 5
REMARK VINA RESULT:      -5.3      2.537      5.901
REMARK  9 active torsions:
REMARK  status: ('A' for Active; 'I' for Inactive)
REMARK    1  A    between atoms: C_2  and  C_15 
REMARK    2  A    between atoms: C_2  and  C_4 
REMARK    3  A    between atoms: C_6  and  C_14 
REMARK    4  A    between atoms: C_6  and  C_7 
REMARK    5  A    between atoms: C_7  and  C_8 
REMARK    6  A    between atoms: C_7  and  N_17 
REMARK    7  A    between atoms: N_10  and  C_15 
REMARK    8  A    between atoms: C_14  and  S_19 
REMARK    9  A    between atoms: C_15  and  C_16 
REMARK       I    between atoms: C_16  and  N_17 
ROOT
HETATM    1  O           1     -36.730  -1.132 -11.591  0.00  0.00    -0.271 OA
HETATM    2  C           1     -36.034  -0.967 -12.564  0.00  0.00     0.249 C 
HETATM    3  N           1     -34.988  -1.816 -12.811  0.00  0.00    -0.345 N 
HETATM    4  H           1     -34.405  -1.677 -13.626  0.00  0.00     0.163 HD
ENDROOT
BRANCH   2   5
HETATM    5  C           1     -36.318   0.174 -13.510  0.00  0.00     0.278 C 
BRANCH   5   6
HETATM    6  C           1     -36.789  -0.379 -14.849  0.00  0.00     0.021 C 
HETATM    7  C           1     -38.071   0.328 -15.267  0.00  0.00     0.012 C 
BRANCH   6   8
HETATM    8  C           1     -35.714  -0.144 -15.901  0.00  0.00     0.002 C 
HETATM    9  C           1     -35.463  -1.435 -16.669  0.00  0.00     0.005 C 
ENDBRANCH   6   8
ENDBRANCH   5   6
BRANCH   5  10
HETATM   10  N           1     -35.066   0.977 -13.715  0.00  0.00    -0.066 N 
HETATM   11  H           1     -35.309   1.899 -14.142  0.00  0.00     0.275 HD
HETATM   12  H           1     -34.599   1.132 -12.793  0.00  0.00     0.275 HD
HETATM   13  H           1     -34.421   0.457 -14.351  0.00  0.00     0.275 HD
ENDBRANCH   5  10
ENDBRANCH   2   5
BRANCH   3  14
HETATM   14  C           1     -34.716  -2.912 -11.901  0.00  0.00     0.186 C 
BRANCH  14  15
HETATM   15  C           1     -34.345  -4.153 -12.702  0.00  0.00     0.046 C 
BRANCH  15  16
HETATM   16  C           1     -34.963  -5.382 -12.047  0.00  0.00     0.076 C 
BRANCH  16  17
HETATM   17  S           1     -33.755  -6.143 -10.927  0.00  0.00    -0.173 SA
HETATM   18  C           1     -34.950  -7.131  -9.984  0.00  0.00     0.089 C 
ENDBRANCH  16  17
ENDBRANCH  15  16
ENDBRANCH  14  15
BRANCH  14  19
HETATM   19  C           1     -33.571  -2.539 -10.993  0.00  0.00     0.196 C 
HETATM   20  O           1     -33.764  -1.768 -10.028  0.00  0.00    -0.646 OA
HETATM   21  O           1     -32.428  -3.000 -11.205  0.00  0.00    -0.646 OA
ENDBRANCH  14  19
ENDBRANCH   3  14
TORSDOF 9
ENDMDL
MODEL 6
REMARK VINA RESULT:      -5.2     14.857     17.204
REMARK  9 active torsions:
REMARK  status: ('A' for Active; 'I' for Inactive)
REMARK    1  A    between atoms: C_2  and  C_15 
REMARK    2  A    between atoms: C_2  and  C_4 
REMARK    3  A    between atoms: C_6  and  C_14 
REMARK    4  A    between atoms: C_6  and  C_7 
REMARK    5  A    between atoms: C_7  and  C_8 
REMARK    6  A    between atoms: C_7  and  N_17 
REMARK    7  A    between atoms: N_10  and  C_15 
REMARK    8  A    between atoms: C_14  and  S_19 
REMARK    9  A    between atoms: C_15  and  C_16 
REMARK       I    between atoms: C_16  and  N_17 
ROOT
HETATM    1  O           1     -22.895  -5.568  -5.845  0.00  0.00    -0.271 OA
HETATM    2  C           1     -21.687  -5.528  -5.864  0.00  0.00     0.249 C 
HETATM    3  N           1     -20.961  -6.382  -5.078  0.00  0.00    -0.345 N 
HETATM    4  H           1     -19.950  -6.348  -5.094  0.00  0.00     0.163 HD
ENDROOT
BRANCH   2   5
HETATM    5  C           1     -20.980  -4.537  -6.755  0.00  0.00     0.278 C 
BRANCH   5   6
HETATM    6  C           1     -21.349  -4.804  -8.209  0.00  0.00     0.021 C 
HETATM    7  C           1     -22.374  -3.776  -8.670  0.00  0.00     0.012 C 
BRANCH   6   8
HETATM    8  C           1     -20.101  -4.700  -9.075  0.00  0.00     0.002 C 
HETATM    9  C           1     -20.503  -4.367 -10.507  0.00  0.00     0.005 C 
ENDBRANCH   6   8
ENDBRANCH   5   6
BRANCH   5  10
HETATM   10  N           1     -19.496  -4.680  -6.583  0.00  0.00    -0.066 N 
HETATM   11  H           1     -19.099  -5.201  -7.397  0.00  0.00     0.275 HD
HETATM   12  H           1     -19.059  -3.732  -6.528  0.00  0.00     0.275 HD
HETATM   13  H           1     -19.298  -5.207  -5.702  0.00  0.00     0.275 HD
ENDBRANCH   5  10
ENDBRANCH   2   5
BRANCH   3  14
HETATM   14  C           1     -21.642  -7.334  -4.222  0.00  0.00     0.186 C 
BRANCH  14  15
HETATM   15  C           1     -20.937  -8.681  -4.302  0.00  0.00     0.046 C 
BRANCH  15  16
HETATM   16  C           1     -19.574  -8.503  -4.958  0.00  0.00     0.076 C 
BRANCH  16  17
HETATM   17  S           1     -18.550  -9.966  -4.634  0.00  0.00    -0.173 SA
HETATM   18  C           1     -17.939  -9.426  -3.012  0.00  0.00     0.089 C 
ENDBRANCH  16  17
ENDBRANCH  15  16
ENDBRANCH  14  15
BRANCH  14  19
HETATM   19  C           1     -21.618  -6.836  -2.798  0.00  0.00     0.196 C 
HETATM   20  O           1     -20.822  -7.337  -1.975  0.00  0.00    -0.646 OA
HETATM   21  O           1     -22.395  -5.924  -2.441  0.00  0.00    -0.646 OA
ENDBRANCH  14  19
ENDBRANCH   3  14
TORSDOF 9
ENDMDL
MODEL 7
REMARK VINA RESULT:      -5.1      2.798      3.906
REMARK  9 active torsions:
REMARK  status: ('A' for Active; 'I' for Inactive)
REMARK    1  A    between atoms: C_2  and  C_15 
REMARK    2  A    between atoms: C_2  and  C_4 
REMARK    3  A    between atoms: C_6  and  C_14 
REMARK    4  A    between atoms: C_6  and  C_7 
REMARK    5  A    between atoms: C_7  and  C_8 
REMARK    6  A    between atoms: C_7  and  N_17 
REMARK    7  A    between atoms: N_10  and  C_15 
REMARK    8  A    between atoms: C_14  and  S_19 
REMARK    9  A    between atoms: C_15  and  C_16 
REMARK       I    between atoms: C_16  and  N_17 
ROOT
HETATM    1  O           1     -36.400  -3.447 -10.665  0.00  0.00    -0.271 OA
HETATM    2  C           1     -35.361  -2.911 -10.969  0.00  0.00     0.249 C 
HETATM    3  N           1     -35.365  -1.621 -11.427  0.00  0.00    -0.345 N 
HETATM    4  H           1     -34.495  -1.172 -11.682  0.00  0.00     0.163 HD
ENDROOT
BRANCH   2   5
HETATM    5  C           1     -34.059  -3.663 -10.842  0.00  0.00     0.278 C 
BRANCH   5   6
HETATM    6  C           1     -33.400  -3.773 -12.212  0.00  0.00     0.021 C 
HETATM    7  C           1     -32.115  -4.583 -12.092  0.00  0.00     0.012 C 
BRANCH   6   8
HETATM    8  C           1     -34.350  -4.470 -13.176  0.00  0.00     0.002 C 
HETATM    9  C           1     -34.137  -3.924 -14.582  0.00  0.00     0.005 C 
ENDBRANCH   6   8
ENDBRANCH   5   6
BRANCH   5  10
HETATM   10  N           1     -34.326  -5.038 -10.305  0.00  0.00    -0.066 N 
HETATM   11  H           1     -33.464  -5.406  -9.843  0.00  0.00     0.275 HD
HETATM   12  H           1     -35.103  -4.993  -9.607  0.00  0.00     0.275 HD
HETATM   13  H           1     -34.598  -5.671 -11.090  0.00  0.00     0.275 HD
ENDBRANCH   5  10
ENDBRANCH   2   5
BRANCH   3  14
HETATM   14  C           1     -36.617  -0.899 -11.549  0.00  0.00     0.186 C 
BRANCH  14  15
HETATM   15  C           1     -36.647   0.236 -10.534  0.00  0.00     0.046 C 
BRANCH  15  16
HETATM   16  C           1     -38.048   0.359  -9.951  0.00  0.00     0.076 C 
BRANCH  16  17
HETATM   17  S           1     -38.069   1.671  -8.697  0.00  0.00    -0.173 SA
HETATM   18  C           1     -36.713   1.006  -7.690  0.00  0.00     0.089 C 
ENDBRANCH  16  17
ENDBRANCH  15  16
ENDBRANCH  14  15
BRANCH  14  19
HETATM   19  C           1     -36.738  -0.333 -12.942  0.00  0.00     0.196 C 
HETATM   20  O           1     -37.673  -0.700 -13.686  0.00  0.00    -0.646 OA
HETATM   21  O           1     -35.902   0.501 -13.353  0.00  0.00    -0.646 OA
ENDBRANCH  14  19
ENDBRANCH   3  14
TORSDOF 9
ENDMDL
MODEL 8
REMARK VINA RESULT:      -5.0      2.635      5.412
REMARK  9 active torsions:
REMARK  status: ('A' for Active; 'I' for Inactive)
REMARK    1  A    between atoms: C_2  and  C_15 
REMARK    2  A    between atoms: C_2  and  C_4 
REMARK    3  A    between atoms: C_6  and  C_14 
REMARK    4  A    between atoms: C_6  and  C_7 
REMARK    5  A    between atoms: C_7  and  C_8 
REMARK    6  A    between atoms: C_7  and  N_17 
REMARK    7  A    between atoms: N_10  and  C_15 
REMARK    8  A    between atoms: C_14  and  S_19 
REMARK    9  A    between atoms: C_15  and  C_16 
REMARK       I    between atoms: C_16  and  N_17 
ROOT
HETATM    1  O           1     -37.844  -0.709 -12.779  0.00  0.00    -0.271 OA
HETATM    2  C           1     -36.695  -0.362 -12.912  0.00  0.00     0.249 C 
HETATM    3  N           1     -35.783  -0.620 -11.924  0.00  0.00    -0.345 N 
HETATM    4  H           1     -34.820  -0.328 -12.035  0.00  0.00     0.163 HD
ENDROOT
BRANCH   2   5
HETATM    5  C           1     -36.264   0.357 -14.167  0.00  0.00     0.278 C 
BRANCH   5   6
HETATM    6  C           1     -36.742  -0.419 -15.388  0.00  0.00     0.021 C 
HETATM    7  C           1     -37.979   0.255 -15.966  0.00  0.00     0.012 C 
BRANCH   6   8
HETATM    8  C           1     -35.639  -0.440 -16.437  0.00  0.00     0.002 C 
HETATM    9  C           1     -35.258  -1.882 -16.746  0.00  0.00     0.005 C 
ENDBRANCH   6   8
ENDBRANCH   5   6
BRANCH   5  10
HETATM   10  N           1     -34.768   0.460 -14.195  0.00  0.00    -0.066 N 
HETATM   11  H           1     -34.351  -0.496 -14.142  0.00  0.00     0.275 HD
HETATM   12  H           1     -34.468   0.922 -15.083  0.00  0.00     0.275 HD
HETATM   13  H           1     -34.443   1.027 -13.380  0.00  0.00     0.275 HD
ENDBRANCH   5  10
ENDBRANCH   2   5
BRANCH   3  14
HETATM   14  C           1     -36.197  -1.310 -10.718  0.00  0.00     0.186 C 
BRANCH  14  15
HETATM   15  C           1     -35.049  -2.170 -10.207  0.00  0.00     0.046 C 
BRANCH  15  16
HETATM   16  C           1     -33.844  -2.006 -11.124  0.00  0.00     0.076 C 
BRANCH  16  17
HETATM   17  S           1     -33.138  -3.637 -11.493  0.00  0.00    -0.173 SA
HETATM   18  C           1     -34.477  -4.608 -10.747  0.00  0.00     0.089 C 
ENDBRANCH  16  17
ENDBRANCH  15  16
ENDBRANCH  14  15
BRANCH  14  19
HETATM   19  C           1     -36.577  -0.299  -9.665  0.00  0.00     0.196 C 
HETATM   20  O           1     -36.256   0.901  -9.806  0.00  0.00    -0.646 OA
HETATM   21  O           1     -37.212  -0.661  -8.650  0.00  0.00    -0.646 OA
ENDBRANCH  14  19
ENDBRANCH   3  14
TORSDOF 9
ENDMDL
MODEL 9
REMARK VINA RESULT:      -5.0     14.621     16.996
REMARK  9 active torsions:
REMARK  status: ('A' for Active; 'I' for Inactive)
REMARK    1  A    between atoms: C_2  and  C_15 
REMARK    2  A    between atoms: C_2  and  C_4 
REMARK    3  A    between atoms: C_6  and  C_14 
REMARK    4  A    between atoms: C_6  and  C_7 
REMARK    5  A    between atoms: C_7  and  C_8 
REMARK    6  A    between atoms: C_7  and  N_17 
REMARK    7  A    between atoms: N_10  and  C_15 
REMARK    8  A    between atoms: C_14  and  S_19 
REMARK    9  A    between atoms: C_15  and  C_16 
REMARK       I    between atoms: C_16  and  N_17 
ROOT
HETATM    1  O           1     -22.866  -5.764  -5.665  0.00  0.00    -0.271 OA
HETATM    2  C           1     -21.664  -5.637  -5.669  0.00  0.00     0.249 C 
HETATM    3  N           1     -20.890  -6.423  -4.858  0.00  0.00    -0.345 N 
HETATM    4  H           1     -19.883  -6.316  -4.862  0.00  0.00     0.163 HD
ENDROOT
BRANCH   2   5
HETATM    5  C           1     -21.017  -4.613  -6.569  0.00  0.00     0.278 C 
BRANCH   5   6
HETATM    6  C           1     -21.389  -4.901  -8.018  0.00  0.00     0.021 C 
HETATM    7  C           1     -22.376  -3.849  -8.507  0.00  0.00     0.012 C 
BRANCH   6   8
HETATM    8  C           1     -20.134  -4.859  -8.880  0.00  0.00     0.002 C 
HETATM    9  C           1     -20.482  -4.307 -10.257  0.00  0.00     0.005 C 
ENDBRANCH   6   8
ENDBRANCH   5   6
BRANCH   5  10
HETATM   10  N           1     -19.526  -4.682  -6.413  0.00  0.00    -0.066 N 
HETATM   11  H           1     -19.203  -3.898  -5.801  0.00  0.00     0.275 HD
HETATM   12  H           1     -19.264  -5.595  -5.977  0.00  0.00     0.275 HD
HETATM   13  H           1     -19.075  -4.600  -7.351  0.00  0.00     0.275 HD
ENDBRANCH   5  10
ENDBRANCH   2   5
BRANCH   3  14
HETATM   14  C           1     -21.512  -7.407  -3.994  0.00  0.00     0.186 C 
BRANCH  14  15
HETATM   15  C           1     -20.685  -8.685  -4.005  0.00  0.00     0.046 C 
BRANCH  15  16
HETATM   16  C           1     -21.608  -9.885  -4.177  0.00  0.00     0.076 C 
BRANCH  16  17
HETATM   17  S           1     -21.028 -10.900  -5.566  0.00  0.00    -0.173 SA
HETATM   18  C           1     -19.286 -10.955  -5.060  0.00  0.00     0.089 C 
ENDBRANCH  16  17
ENDBRANCH  15  16
ENDBRANCH  14  15
BRANCH  14  19
HETATM   19  C           1     -21.584  -6.866  -2.587  0.00  0.00     0.196 C 
HETATM   20  O           1     -22.364  -5.927  -2.318  0.00  0.00    -0.646 OA
HETATM   21  O           1     -20.864  -7.356  -1.691  0.00  0.00    -0.646 OA
ENDBRANCH  14  19
ENDBRANCH   3  14
TORSDOF 9
ENDMDL
