MODEL 1
REMARK VINA RESULT:      -9.0      0.000      0.000
REMARK  12 active torsions:
REMARK  status: ('A' for Active; 'I' for Inactive)
REMARK    1  A    between atoms: C_1  and  C_19 
REMARK    2  A    between atoms: C_1  and  C_2 
REMARK    3  A    between atoms: C_1  and  N_14 
REMARK    4  A    between atoms: C_2  and  C_3 
REMARK    5  A    between atoms: C_6  and  O_7 
REMARK    6  A    between atoms: O_7  and  P_8 
REMARK    7  A    between atoms: P_8  and  O_9 
REMARK       I    between atoms: C_19  and  N_20 
REMARK    8  A    between atoms: N_20  and  C_24 
REMARK    9  A    between atoms: C_23  and  C_24 
REMARK   10  A    between atoms: C_24  and  C_25 
REMARK   11  A    between atoms: C_25  and  C_28 
REMARK   12  A    between atoms: C_31  and  O_32 
ROOT
HETATM    1  C           1     -20.309  -4.708  -7.239  0.00  0.00     0.278 C 
ENDROOT
BRANCH   1   2
HETATM    2  C           1     -20.277  -5.520  -5.967  0.00  0.00     0.249 C 
HETATM    3  O           1     -20.403  -4.973  -4.898  0.00  0.00    -0.271 OA
HETATM    4  N           1     -20.105  -6.877  -6.025  0.00  0.00    -0.344 N 
HETATM    5  H           1     -20.000  -7.336  -6.921  0.00  0.00     0.163 HD
BRANCH   4   6
HETATM    6  C           1     -20.075  -7.657  -4.804  0.00  0.00     0.189 C 
BRANCH   6   7
HETATM    7  C           1     -19.124  -8.817  -4.972  0.00  0.00     0.197 C 
HETATM    8  O           1     -18.588  -9.336  -3.968  0.00  0.00    -0.646 OA
HETATM    9  O           1     -18.873  -9.258  -6.113  0.00  0.00    -0.646 OA
ENDBRANCH   6   7
BRANCH   6  10
HETATM   10  C           1     -21.472  -8.185  -4.505  0.00  0.00     0.074 C 
BRANCH  10  11
HETATM   11  C           1     -21.735  -8.098  -3.033  0.00  0.00    -0.056 A 
HETATM   12  C           1     -21.981  -6.859  -2.441  0.00  0.00     0.010 A 
HETATM   13  C           1     -22.226  -6.777  -1.070  0.00  0.00     0.037 A 
HETATM   14  C           1     -22.224  -7.935  -0.292  0.00  0.00     0.065 A 
HETATM   15  C           1     -21.979  -9.174  -0.884  0.00  0.00     0.037 A 
HETATM   16  C           1     -21.734  -9.255  -2.255  0.00  0.00     0.010 A 
BRANCH  14  17
HETATM   17  O           1     -22.463  -7.856   1.040  0.00  0.00    -0.361 OA
HETATM   18  H           1     -21.855  -8.466   1.490  0.00  0.00     0.217 HD
ENDBRANCH  14  17
ENDBRANCH  10  11
ENDBRANCH   6  10
ENDBRANCH   4   6
ENDBRANCH   1   2
BRANCH   1  19
HETATM   19  C           1     -20.928  -5.538  -8.356  0.00  0.00     0.081 C 
BRANCH  19  20
HETATM   20  C           1     -21.472  -4.627  -9.411  0.00  0.00    -0.056 A 
HETATM   21  C           1     -20.661  -4.230 -10.474  0.00  0.00     0.010 A 
HETATM   22  C           1     -21.168  -3.381 -11.458  0.00  0.00     0.038 A 
HETATM   23  C           1     -22.485  -2.929 -11.379  0.00  0.00     0.081 A 
HETATM   24  C           1     -23.296  -3.326 -10.316  0.00  0.00     0.038 A 
HETATM   25  C           1     -22.789  -4.175  -9.332  0.00  0.00     0.010 A 
BRANCH  23  26
HETATM   26  O           1     -22.977  -2.104 -12.335  0.00  0.00    -0.247 OA
BRANCH  26  27
HETATM   27  P           1     -23.487  -2.765 -13.717  0.00  0.00     0.411 P 
HETATM   28  O           1     -24.294  -3.969 -13.417  0.00  0.00    -0.624 OA
HETATM   29  O           1     -24.316  -1.787 -14.456  0.00  0.00    -0.624 OA
BRANCH  27  30
HETATM   30  O           1     -22.214  -3.182 -14.619  0.00  0.00    -0.300 OA
HETATM   31  H           1     -21.484  -3.181 -14.025  0.00  0.00     0.223 HD
ENDBRANCH  27  30
ENDBRANCH  26  27
ENDBRANCH  23  26
ENDBRANCH  19  20
ENDBRANCH   1  19
BRANCH   1  32
HETATM   32  N           1     -18.910  -4.324  -7.620  0.00  0.00    -0.066 N 
HETATM   33  H           1     -18.474  -5.097  -8.173  0.00  0.00     0.275 HD
HETATM   34  H           1     -18.935  -3.455  -8.200  0.00  0.00     0.275 HD
HETATM   35  H           1     -18.347  -4.151  -6.757  0.00  0.00     0.275 HD
ENDBRANCH   1  32
TORSDOF 12
ENDMDL
MODEL 2
REMARK VINA RESULT:      -8.6      1.746      2.290
REMARK  12 active torsions:
REMARK  status: ('A' for Active; 'I' for Inactive)
REMARK    1  A    between atoms: C_1  and  C_19 
REMARK    2  A    between atoms: C_1  and  C_2 
REMARK    3  A    between atoms: C_1  and  N_14 
REMARK    4  A    between atoms: C_2  and  C_3 
REMARK    5  A    between atoms: C_6  and  O_7 
REMARK    6  A    between atoms: O_7  and  P_8 
REMARK    7  A    between atoms: P_8  and  O_9 
REMARK       I    between atoms: C_19  and  N_20 
REMARK    8  A    between atoms: N_20  and  C_24 
REMARK    9  A    between atoms: C_23  and  C_24 
REMARK   10  A    between atoms: C_24  and  C_25 
REMARK   11  A    between atoms: C_25  and  C_28 
REMARK   12  A    between atoms: C_31  and  O_32 
ROOT
HETATM    1  C           1     -21.392  -6.433  -6.002  0.00  0.00     0.278 C 
ENDROOT
BRANCH   1   2
HETATM    2  C           1     -20.499  -7.545  -5.508  0.00  0.00     0.249 C 
HETATM    3  O           1     -19.470  -7.796  -6.088  0.00  0.00    -0.271 OA
HETATM    4  N           1     -20.855  -8.269  -4.402  0.00  0.00    -0.344 N 
HETATM    5  H           1     -21.716  -8.058  -3.915  0.00  0.00     0.163 HD
BRANCH   4   6
HETATM    6  C           1     -19.997  -9.336  -3.928  0.00  0.00     0.189 C 
BRANCH   6   7
HETATM    7  C           1     -20.784 -10.622  -3.862  0.00  0.00     0.197 C 
HETATM    8  O           1     -21.992 -10.632  -4.186  0.00  0.00    -0.646 OA
HETATM    9  O           1     -20.230 -11.675  -3.484  0.00  0.00    -0.646 OA
ENDBRANCH   6   7
BRANCH   6  10
HETATM   10  C           1     -19.476  -8.988  -2.539  0.00  0.00     0.074 C 
BRANCH  10  11
HETATM   11  C           1     -20.625  -8.621  -1.652  0.00  0.00    -0.056 A 
HETATM   12  C           1     -21.195  -7.352  -1.741  0.00  0.00     0.010 A 
HETATM   13  C           1     -22.266  -7.008  -0.915  0.00  0.00     0.037 A 
HETATM   14  C           1     -22.765  -7.935  -0.000  0.00  0.00     0.065 A 
HETATM   15  C           1     -22.195  -9.205   0.088  0.00  0.00     0.037 A 
HETATM   16  C           1     -21.124  -9.548  -0.738  0.00  0.00     0.010 A 
BRANCH  14  17
HETATM   17  O           1     -23.806  -7.603   0.802  0.00  0.00    -0.361 OA
HETATM   18  H           1     -24.111  -8.410   1.248  0.00  0.00     0.217 HD
ENDBRANCH  14  17
ENDBRANCH  10  11
ENDBRANCH   6  10
ENDBRANCH   4   6
ENDBRANCH   1   2
BRANCH   1  19
HETATM   19  C           1     -20.540  -5.230  -6.387  0.00  0.00     0.081 C 
BRANCH  19  20
HETATM   20  C           1     -21.014  -4.681  -7.696  0.00  0.00    -0.056 A 
HETATM   21  C           1     -20.202  -4.776  -8.827  0.00  0.00     0.010 A 
HETATM   22  C           1     -20.645  -4.265 -10.047  0.00  0.00     0.038 A 
HETATM   23  C           1     -21.897  -3.659 -10.137  0.00  0.00     0.081 A 
HETATM   24  C           1     -22.709  -3.564  -9.007  0.00  0.00     0.038 A 
HETATM   25  C           1     -22.267  -4.075  -7.786  0.00  0.00     0.010 A 
BRANCH  23  26
HETATM   26  O           1     -22.327  -3.163 -11.323  0.00  0.00    -0.247 OA
BRANCH  26  27
HETATM   27  P           1     -23.634  -3.831 -11.995  0.00  0.00     0.411 P 
HETATM   28  O           1     -23.709  -5.259 -11.611  0.00  0.00    -0.624 OA
HETATM   29  O           1     -24.847  -3.127 -11.522  0.00  0.00    -0.624 OA
BRANCH  27  30
HETATM   30  O           1     -23.535  -3.712 -13.603  0.00  0.00    -0.300 OA
HETATM   31  H           1     -23.524  -2.788 -13.779  0.00  0.00     0.223 HD
ENDBRANCH  27  30
ENDBRANCH  26  27
ENDBRANCH  23  26
ENDBRANCH  19  20
ENDBRANCH   1  19
BRANCH   1  32
HETATM   32  N           1     -22.347  -6.040  -4.914  0.00  0.00    -0.066 N 
HETATM   33  H           1     -22.114  -6.563  -4.040  0.00  0.00     0.275 HD
HETATM   34  H           1     -22.266  -5.013  -4.735  0.00  0.00     0.275 HD
HETATM   35  H           1     -23.323  -6.267  -5.207  0.00  0.00     0.275 HD
ENDBRANCH   1  32
TORSDOF 12
ENDMDL
MODEL 3
REMARK VINA RESULT:      -8.5      2.252      3.491
REMARK  12 active torsions:
REMARK  status: ('A' for Active; 'I' for Inactive)
REMARK    1  A    between atoms: C_1  and  C_19 
REMARK    2  A    between atoms: C_1  and  C_2 
REMARK    3  A    between atoms: C_1  and  N_14 
REMARK    4  A    between atoms: C_2  and  C_3 
REMARK    5  A    between atoms: C_6  and  O_7 
REMARK    6  A    between atoms: O_7  and  P_8 
REMARK    7  A    between atoms: P_8  and  O_9 
REMARK       I    between atoms: C_19  and  N_20 
REMARK    8  A    between atoms: N_20  and  C_24 
REMARK    9  A    between atoms: C_23  and  C_24 
REMARK   10  A    between atoms: C_24  and  C_25 
REMARK   11  A    between atoms: C_25  and  C_28 
REMARK   12  A    between atoms: C_31  and  O_32 
ROOT
HETATM    1  C           1     -21.113  -5.038  -6.152  0.00  0.00     0.278 C 
ENDROOT
BRANCH   1   2
HETATM    2  C           1     -21.687  -6.073  -5.215  0.00  0.00     0.249 C 
HETATM    3  O           1     -22.876  -6.277  -5.195  0.00  0.00    -0.271 OA
HETATM    4  N           1     -20.857  -6.780  -4.386  0.00  0.00    -0.344 N 
HETATM    5  H           1     -19.860  -6.610  -4.402  0.00  0.00     0.163 HD
BRANCH   4   6
HETATM    6  C           1     -21.408  -7.774  -3.487  0.00  0.00     0.189 C 
BRANCH   6   7
HETATM    7  C           1     -21.541  -7.182  -2.105  0.00  0.00     0.197 C 
HETATM    8  O           1     -22.324  -6.227  -1.907  0.00  0.00    -0.646 OA
HETATM    9  O           1     -20.869  -7.646  -1.159  0.00  0.00    -0.646 OA
ENDBRANCH   6   7
BRANCH   6  10
HETATM   10  C           1     -20.479  -8.981  -3.435  0.00  0.00     0.074 C 
BRANCH  10  11
HETATM   11  C           1     -21.135 -10.145  -4.110  0.00  0.00    -0.056 A 
HETATM   12  C           1     -22.078 -10.908  -3.424  0.00  0.00     0.010 A 
HETATM   13  C           1     -22.690 -11.993  -4.053  0.00  0.00     0.037 A 
HETATM   14  C           1     -22.356 -12.314  -5.369  0.00  0.00     0.065 A 
HETATM   15  C           1     -21.413 -11.551  -6.055  0.00  0.00     0.037 A 
HETATM   16  C           1     -20.801 -10.466  -5.426  0.00  0.00     0.010 A 
BRANCH  14  17
HETATM   17  O           1     -22.950 -13.367  -5.980  0.00  0.00    -0.361 OA
HETATM   18  H           1     -22.288 -13.800  -6.544  0.00  0.00     0.217 HD
ENDBRANCH  14  17
ENDBRANCH  10  11
ENDBRANCH   6  10
ENDBRANCH   4   6
ENDBRANCH   1   2
BRANCH   1  19
HETATM   19  C           1     -20.724  -5.703  -7.466  0.00  0.00     0.081 C 
BRANCH  19  20
HETATM   20  C           1     -21.248  -4.891  -8.609  0.00  0.00    -0.056 A 
HETATM   21  C           1     -20.430  -4.628  -9.709  0.00  0.00     0.010 A 
HETATM   22  C           1     -20.917  -3.871 -10.774  0.00  0.00     0.038 A 
HETATM   23  C           1     -22.221  -3.378 -10.741  0.00  0.00     0.081 A 
HETATM   24  C           1     -23.039  -3.641  -9.642  0.00  0.00     0.038 A 
HETATM   25  C           1     -22.552  -4.398  -8.576  0.00  0.00     0.010 A 
BRANCH  23  26
HETATM   26  O           1     -22.695  -2.643 -11.777  0.00  0.00    -0.247 OA
BRANCH  26  27
HETATM   27  P           1     -23.820  -3.307 -12.725  0.00  0.00     0.411 P 
HETATM   28  O           1     -25.164  -2.946 -12.220  0.00  0.00    -0.624 OA
HETATM   29  O           1     -23.660  -2.804 -14.108  0.00  0.00    -0.624 OA
BRANCH  27  30
HETATM   30  O           1     -23.657  -4.914 -12.714  0.00  0.00    -0.300 OA
HETATM   31  H           1     -23.408  -5.128 -11.832  0.00  0.00     0.223 HD
ENDBRANCH  27  30
ENDBRANCH  26  27
ENDBRANCH  23  26
ENDBRANCH  19  20
ENDBRANCH   1  19
BRANCH   1  32
HETATM   32  N           1     -19.898  -4.418  -5.528  0.00  0.00    -0.066 N 
HETATM   33  H           1     -19.038  -4.848  -5.938  0.00  0.00     0.275 HD
HETATM   34  H           1     -19.897  -3.391  -5.717  0.00  0.00     0.275 HD
HETATM   35  H           1     -19.912  -4.584  -4.497  0.00  0.00     0.275 HD
ENDBRANCH   1  32
TORSDOF 12
ENDMDL
MODEL 4
REMARK VINA RESULT:      -8.2      2.340      4.227
REMARK  12 active torsions:
REMARK  status: ('A' for Active; 'I' for Inactive)
REMARK    1  A    between atoms: C_1  and  C_19 
REMARK    2  A    between atoms: C_1  and  C_2 
REMARK    3  A    between atoms: C_1  and  N_14 
REMARK    4  A    between atoms: C_2  and  C_3 
REMARK    5  A    between atoms: C_6  and  O_7 
REMARK    6  A    between atoms: O_7  and  P_8 
REMARK    7  A    between atoms: P_8  and  O_9 
REMARK       I    between atoms: C_19  and  N_20 
REMARK    8  A    between atoms: N_20  and  C_24 
REMARK    9  A    between atoms: C_23  and  C_24 
REMARK   10  A    between atoms: C_24  and  C_25 
REMARK   11  A    between atoms: C_25  and  C_28 
REMARK   12  A    between atoms: C_31  and  O_32 
ROOT
HETATM    1  C           1     -21.244  -6.203  -5.962  0.00  0.00     0.278 C 
ENDROOT
BRANCH   1   2
HETATM    2  C           1     -21.007  -7.593  -5.425  0.00  0.00     0.249 C 
HETATM    3  O           1     -21.198  -8.554  -6.130  0.00  0.00    -0.271 OA
HETATM    4  N           1     -20.575  -7.764  -4.136  0.00  0.00    -0.344 N 
HETATM    5  H           1     -20.414  -6.959  -3.545  0.00  0.00     0.163 HD
BRANCH   4   6
HETATM    6  C           1     -20.347  -9.099  -3.620  0.00  0.00     0.189 C 
BRANCH   6   7
HETATM    7  C           1     -21.577  -9.570  -2.884  0.00  0.00     0.197 C 
HETATM    8  O           1     -22.330 -10.422  -3.405  0.00  0.00    -0.646 OA
HETATM    9  O           1     -21.844  -9.108  -1.754  0.00  0.00    -0.646 OA
ENDBRANCH   6   7
BRANCH   6  10
HETATM   10  C           1     -19.161  -9.077  -2.665  0.00  0.00     0.074 C 
BRANCH  10  11
HETATM   11  C           1     -17.958  -9.651  -3.349  0.00  0.00    -0.056 A 
HETATM   12  C           1     -16.880 -10.111  -2.593  0.00  0.00     0.010 A 
HETATM   13  C           1     -15.760 -10.646  -3.229  0.00  0.00     0.037 A 
HETATM   14  C           1     -15.718 -10.719  -4.621  0.00  0.00     0.065 A 
HETATM   15  C           1     -16.796 -10.260  -5.377  0.00  0.00     0.037 A 
HETATM   16  C           1     -17.917  -9.725  -4.741  0.00  0.00     0.010 A 
BRANCH  14  17
HETATM   17  O           1     -14.630 -11.239  -5.240  0.00  0.00    -0.361 OA
HETATM   18  H           1     -14.177 -10.518  -5.706  0.00  0.00     0.217 HD
ENDBRANCH  14  17
ENDBRANCH  10  11
ENDBRANCH   6  10
ENDBRANCH   4   6
ENDBRANCH   1   2
BRANCH   1  19
HETATM   19  C           1     -20.185  -5.875  -7.007  0.00  0.00     0.081 C 
BRANCH  19  20
HETATM   20  C           1     -20.802  -5.068  -8.106  0.00  0.00    -0.056 A 
HETATM   21  C           1     -20.094  -4.843  -9.287  0.00  0.00     0.010 A 
HETATM   22  C           1     -20.669  -4.090 -10.311  0.00  0.00     0.038 A 
HETATM   23  C           1     -21.951  -3.562 -10.154  0.00  0.00     0.081 A 
HETATM   24  C           1     -22.658  -3.787  -8.974  0.00  0.00     0.038 A 
HETATM   25  C           1     -22.083  -4.540  -7.949  0.00  0.00     0.010 A 
BRANCH  23  26
HETATM   26  O           1     -22.509  -2.831 -11.150  0.00  0.00    -0.247 OA
BRANCH  26  27
HETATM   27  P           1     -23.791  -3.447 -11.915  0.00  0.00     0.411 P 
HETATM   28  O           1     -25.008  -3.206 -11.107  0.00  0.00    -0.624 OA
HETATM   29  O           1     -23.937  -2.796 -13.235  0.00  0.00    -0.624 OA
BRANCH  27  30
HETATM   30  O           1     -23.587  -5.036 -12.118  0.00  0.00    -0.300 OA
HETATM   31  H           1     -23.164  -5.123 -12.954  0.00  0.00     0.223 HD
ENDBRANCH  27  30
ENDBRANCH  26  27
ENDBRANCH  23  26
ENDBRANCH  19  20
ENDBRANCH   1  19
BRANCH   1  32
HETATM   32  N           1     -21.159  -5.212  -4.839  0.00  0.00    -0.066 N 
HETATM   33  H           1     -21.158  -5.720  -3.925  0.00  0.00     0.275 HD
HETATM   34  H           1     -20.276  -4.660  -4.930  0.00  0.00     0.275 HD
HETATM   35  H           1     -21.980  -4.568  -4.879  0.00  0.00     0.275 HD
ENDBRANCH   1  32
TORSDOF 12
ENDMDL
MODEL 5
REMARK VINA RESULT:      -8.2      1.470      1.969
REMARK  12 active torsions:
REMARK  status: ('A' for Active; 'I' for Inactive)
REMARK    1  A    between atoms: C_1  and  C_19 
REMARK    2  A    between atoms: C_1  and  C_2 
REMARK    3  A    between atoms: C_1  and  N_14 
REMARK    4  A    between atoms: C_2  and  C_3 
REMARK    5  A    between atoms: C_6  and  O_7 
REMARK    6  A    between atoms: O_7  and  P_8 
REMARK    7  A    between atoms: P_8  and  O_9 
REMARK       I    between atoms: C_19  and  N_20 
REMARK    8  A    between atoms: N_20  and  C_24 
REMARK    9  A    between atoms: C_23  and  C_24 
REMARK   10  A    between atoms: C_24  and  C_25 
REMARK   11  A    between atoms: C_25  and  C_28 
REMARK   12  A    between atoms: C_31  and  O_32 
ROOT
HETATM    1  C           1     -20.831  -5.301  -6.227  0.00  0.00     0.278 C 
ENDROOT
BRANCH   1   2
HETATM    2  C           1     -20.711  -6.459  -5.266  0.00  0.00     0.249 C 
HETATM    3  O           1     -21.110  -6.346  -4.132  0.00  0.00    -0.271 OA
HETATM    4  N           1     -20.149  -7.637  -5.680  0.00  0.00    -0.344 N 
HETATM    5  H           1     -19.814  -7.732  -6.630  0.00  0.00     0.163 HD
BRANCH   4   6
HETATM    6  C           1     -20.034  -8.748  -4.757  0.00  0.00     0.189 C 
BRANCH   6   7
HETATM    7  C           1     -18.742  -9.485  -5.016  0.00  0.00     0.197 C 
HETATM    8  O           1     -17.856  -9.521  -4.134  0.00  0.00    -0.646 OA
HETATM    9  O           1     -18.559 -10.058  -6.111  0.00  0.00    -0.646 OA
ENDBRANCH   6   7
BRANCH   6  10
HETATM   10  C           1     -21.209  -9.697  -4.957  0.00  0.00     0.074 C 
BRANCH  10  11
HETATM   11  C           1     -21.828 -10.013  -3.630  0.00  0.00    -0.056 A 
HETATM   12  C           1     -21.515  -9.239  -2.514  0.00  0.00     0.010 A 
HETATM   13  C           1     -22.091  -9.533  -1.277  0.00  0.00     0.037 A 
HETATM   14  C           1     -22.979 -10.601  -1.159  0.00  0.00     0.065 A 
HETATM   15  C           1     -23.293 -11.375  -2.276  0.00  0.00     0.037 A 
HETATM   16  C           1     -22.717 -11.081  -3.513  0.00  0.00     0.010 A 
BRANCH  14  17
HETATM   17  O           1     -23.540 -10.887   0.041  0.00  0.00    -0.361 OA
HETATM   18  H           1     -24.480 -10.643  -0.001  0.00  0.00     0.217 HD
ENDBRANCH  14  17
ENDBRANCH  10  11
ENDBRANCH   6  10
ENDBRANCH   4   6
ENDBRANCH   1   2
BRANCH   1  19
HETATM   19  C           1     -20.221  -5.690  -7.568  0.00  0.00     0.081 C 
BRANCH  19  20
HETATM   20  C           1     -20.863  -4.890  -8.658  0.00  0.00    -0.056 A 
HETATM   21  C           1     -20.146  -4.590  -9.817  0.00  0.00     0.010 A 
HETATM   22  C           1     -20.745  -3.845 -10.833  0.00  0.00     0.038 A 
HETATM   23  C           1     -22.058  -3.399 -10.690  0.00  0.00     0.081 A 
HETATM   24  C           1     -22.774  -3.698  -9.532  0.00  0.00     0.038 A 
HETATM   25  C           1     -22.176  -4.444  -8.515  0.00  0.00     0.010 A 
BRANCH  23  26
HETATM   26  O           1     -22.639  -2.675 -11.678  0.00  0.00    -0.247 OA
BRANCH  26  27
HETATM   27  P           1     -23.913  -3.314 -12.438  0.00  0.00     0.411 P 
HETATM   28  O           1     -24.033  -2.714 -13.785  0.00  0.00    -0.624 OA
HETATM   29  O           1     -23.729  -4.777 -12.563  0.00  0.00    -0.624 OA
BRANCH  27  30
HETATM   30  O           1     -25.255  -3.011 -11.593  0.00  0.00    -0.300 OA
HETATM   31  H           1     -25.734  -3.821 -11.595  0.00  0.00     0.223 HD
ENDBRANCH  27  30
ENDBRANCH  26  27
ENDBRANCH  23  26
ENDBRANCH  19  20
ENDBRANCH   1  19
BRANCH   1  32
HETATM   32  N           1     -20.101  -4.114  -5.672  0.00  0.00    -0.066 N 
HETATM   33  H           1     -19.347  -4.439  -5.026  0.00  0.00     0.275 HD
HETATM   34  H           1     -19.674  -3.571  -6.457  0.00  0.00     0.275 HD
HETATM   35  H           1     -20.770  -3.506  -5.150  0.00  0.00     0.275 HD
ENDBRANCH   1  32
TORSDOF 12
ENDMDL
MODEL 6
REMARK VINA RESULT:      -7.4      3.699     10.349
REMARK  12 active torsions:
REMARK  status: ('A' for Active; 'I' for Inactive)
REMARK    1  A    between atoms: C_1  and  C_19 
REMARK    2  A    between atoms: C_1  and  C_2 
REMARK    3  A    between atoms: C_1  and  N_14 
REMARK    4  A    between atoms: C_2  and  C_3 
REMARK    5  A    between atoms: C_6  and  O_7 
REMARK    6  A    between atoms: O_7  and  P_8 
REMARK    7  A    between atoms: P_8  and  O_9 
REMARK       I    between atoms: C_19  and  N_20 
REMARK    8  A    between atoms: N_20  and  C_24 
REMARK    9  A    between atoms: C_23  and  C_24 
REMARK   10  A    between atoms: C_24  and  C_25 
REMARK   11  A    between atoms: C_25  and  C_28 
REMARK   12  A    between atoms: C_31  and  O_32 
ROOT
HETATM    1  C           1     -20.439  -5.758  -5.325  0.00  0.00     0.278 C 
ENDROOT
BRANCH   1   2
HETATM    2  C           1     -20.649  -5.696  -6.818  0.00  0.00     0.249 C 
HETATM    3  O           1     -20.125  -6.512  -7.537  0.00  0.00    -0.271 OA
HETATM    4  N           1     -21.435  -4.713  -7.358  0.00  0.00    -0.344 N 
HETATM    5  H           1     -21.875  -4.029  -6.756  0.00  0.00     0.163 HD
BRANCH   4   6
HETATM    6  C           1     -21.637  -4.653  -8.792  0.00  0.00     0.189 C 
BRANCH   6   7
HETATM    7  C           1     -20.345  -4.261  -9.465  0.00  0.00     0.197 C 
HETATM    8  O           1     -19.629  -3.363  -8.970  0.00  0.00    -0.646 OA
HETATM    9  O           1     -19.990  -4.833 -10.518  0.00  0.00    -0.646 OA
ENDBRANCH   6   7
BRANCH   6  10
HETATM   10  C           1     -22.710  -3.619  -9.110  0.00  0.00     0.074 C 
BRANCH  10  11
HETATM   11  C           1     -23.033  -3.668 -10.571  0.00  0.00    -0.056 A 
HETATM   12  C           1     -22.747  -2.573 -11.385  0.00  0.00     0.010 A 
HETATM   13  C           1     -23.048  -2.618 -12.747  0.00  0.00     0.037 A 
HETATM   14  C           1     -23.635  -3.759 -13.293  0.00  0.00     0.065 A 
HETATM   15  C           1     -23.921  -4.855 -12.479  0.00  0.00     0.037 A 
HETATM   16  C           1     -23.620  -4.810 -11.117  0.00  0.00     0.010 A 
BRANCH  14  17
HETATM   17  O           1     -23.927  -3.804 -14.616  0.00  0.00    -0.361 OA
HETATM   18  H           1     -24.339  -4.664 -14.804  0.00  0.00     0.217 HD
ENDBRANCH  14  17
ENDBRANCH  10  11
ENDBRANCH   6  10
ENDBRANCH   4   6
ENDBRANCH   1   2
BRANCH   1  19
HETATM   19  C           1     -21.776  -5.996  -4.633  0.00  0.00     0.081 C 
BRANCH  19  20
HETATM   20  C           1     -21.573  -6.887  -3.448  0.00  0.00    -0.056 A 
HETATM   21  C           1     -22.179  -6.576  -2.231  0.00  0.00     0.010 A 
HETATM   22  C           1     -21.990  -7.406  -1.126  0.00  0.00     0.038 A 
HETATM   23  C           1     -21.195  -8.546  -1.238  0.00  0.00     0.081 A 
HETATM   24  C           1     -20.589  -8.857  -2.455  0.00  0.00     0.038 A 
HETATM   25  C           1     -20.778  -8.027  -3.560  0.00  0.00     0.010 A 
BRANCH  23  26
HETATM   26  O           1     -21.011  -9.353  -0.165  0.00  0.00    -0.247 OA
BRANCH  26  27
HETATM   27  P           1     -21.837 -10.740  -0.109  0.00  0.00     0.411 P 
HETATM   28  O           1     -23.271 -10.449   0.114  0.00  0.00    -0.624 OA
HETATM   29  O           1     -21.673 -11.464  -1.388  0.00  0.00    -0.624 OA
BRANCH  27  30
HETATM   30  O           1     -21.280 -11.652   1.102  0.00  0.00    -0.300 OA
HETATM   31  H           1     -20.878 -12.393   0.684  0.00  0.00     0.223 HD
ENDBRANCH  27  30
ENDBRANCH  26  27
ENDBRANCH  23  26
ENDBRANCH  19  20
ENDBRANCH   1  19
BRANCH   1  32
HETATM   32  N           1     -19.854  -4.462  -4.848  0.00  0.00    -0.066 N 
HETATM   33  H           1     -20.194  -3.682  -5.456  0.00  0.00     0.275 HD
HETATM   34  H           1     -20.153  -4.288  -3.862  0.00  0.00     0.275 HD
HETATM   35  H           1     -18.812  -4.511  -4.894  0.00  0.00     0.275 HD
ENDBRANCH   1  32
TORSDOF 12
ENDMDL
MODEL 7
REMARK VINA RESULT:      -7.3      3.268      4.305
REMARK  12 active torsions:
REMARK  status: ('A' for Active; 'I' for Inactive)
REMARK    1  A    between atoms: C_1  and  C_19 
REMARK    2  A    between atoms: C_1  and  C_2 
REMARK    3  A    between atoms: C_1  and  N_14 
REMARK    4  A    between atoms: C_2  and  C_3 
REMARK    5  A    between atoms: C_6  and  O_7 
REMARK    6  A    between atoms: O_7  and  P_8 
REMARK    7  A    between atoms: P_8  and  O_9 
REMARK       I    between atoms: C_19  and  N_20 
REMARK    8  A    between atoms: N_20  and  C_24 
REMARK    9  A    between atoms: C_23  and  C_24 
REMARK   10  A    between atoms: C_24  and  C_25 
REMARK   11  A    between atoms: C_25  and  C_28 
REMARK   12  A    between atoms: C_31  and  O_32 
ROOT
HETATM    1  C           1     -21.639  -6.743  -4.990  0.00  0.00     0.278 C 
ENDROOT
BRANCH   1   2
HETATM    2  C           1     -21.333  -8.192  -4.696  0.00  0.00     0.249 C 
HETATM    3  O           1     -21.603  -8.659  -3.616  0.00  0.00    -0.271 OA
HETATM    4  N           1     -20.750  -8.977  -5.654  0.00  0.00    -0.344 N 
HETATM    5  H           1     -20.524  -8.586  -6.560  0.00  0.00     0.163 HD
BRANCH   4   6
HETATM    6  C           1     -20.457 -10.368  -5.372  0.00  0.00     0.189 C 
BRANCH   6   7
HETATM    7  C           1     -19.000 -10.642  -5.655  0.00  0.00     0.197 C 
HETATM    8  O           1     -18.361  -9.892  -6.426  0.00  0.00    -0.646 OA
HETATM    9  O           1     -18.433 -11.618  -5.120  0.00  0.00    -0.646 OA
ENDBRANCH   6   7
BRANCH   6  10
HETATM   10  C           1     -21.322 -11.257  -6.256  0.00  0.00     0.074 C 
BRANCH  10  11
HETATM   11  C           1     -21.930 -12.347  -5.426  0.00  0.00    -0.056 A 
HETATM   12  C           1     -21.952 -12.234  -4.037  0.00  0.00     0.010 A 
HETATM   13  C           1     -22.517 -13.248  -3.263  0.00  0.00     0.037 A 
HETATM   14  C           1     -23.060 -14.374  -3.881  0.00  0.00     0.065 A 
HETATM   15  C           1     -23.039 -14.487  -5.271  0.00  0.00     0.037 A 
HETATM   16  C           1     -22.473 -13.473  -6.044  0.00  0.00     0.010 A 
BRANCH  14  17
HETATM   17  O           1     -23.610 -15.359  -3.130  0.00  0.00    -0.361 OA
HETATM   18  H           1     -23.114 -16.178  -3.298  0.00  0.00     0.217 HD
ENDBRANCH  14  17
ENDBRANCH  10  11
ENDBRANCH   6  10
ENDBRANCH   4   6
ENDBRANCH   1   2
BRANCH   1  19
HETATM   19  C           1     -20.479  -6.127  -5.762  0.00  0.00     0.081 C 
BRANCH  19  20
HETATM   20  C           1     -21.010  -5.376  -6.943  0.00  0.00    -0.056 A 
HETATM   21  C           1     -20.241  -5.266  -8.102  0.00  0.00     0.010 A 
HETATM   22  C           1     -20.736  -4.567  -9.203  0.00  0.00     0.038 A 
HETATM   23  C           1     -21.998  -3.977  -9.145  0.00  0.00     0.081 A 
HETATM   24  C           1     -22.767  -4.086  -7.987  0.00  0.00     0.038 A 
HETATM   25  C           1     -22.273  -4.786  -6.885  0.00  0.00     0.010 A 
BRANCH  23  26
HETATM   26  O           1     -22.479  -3.297 -10.215  0.00  0.00    -0.247 OA
BRANCH  26  27
HETATM   27  P           1     -23.820  -3.850 -10.924  0.00  0.00     0.411 P 
HETATM   28  O           1     -23.802  -3.490 -12.359  0.00  0.00    -0.624 OA
HETATM   29  O           1     -23.881  -5.322 -10.785  0.00  0.00    -0.624 OA
BRANCH  27  30
HETATM   30  O           1     -25.115  -3.189 -10.220  0.00  0.00    -0.300 OA
HETATM   31  H           1     -25.530  -3.897  -9.759  0.00  0.00     0.223 HD
ENDBRANCH  27  30
ENDBRANCH  26  27
ENDBRANCH  23  26
ENDBRANCH  19  20
ENDBRANCH   1  19
BRANCH   1  32
HETATM   32  N           1     -21.829  -6.002  -3.700  0.00  0.00    -0.066 N 
HETATM   33  H           1     -21.012  -6.177  -3.073  0.00  0.00     0.275 HD
HETATM   34  H           1     -21.902  -4.978  -3.896  0.00  0.00     0.275 HD
HETATM   35  H           1     -22.704  -6.331  -3.234  0.00  0.00     0.275 HD
ENDBRANCH   1  32
TORSDOF 12
ENDMDL
MODEL 8
REMARK VINA RESULT:      -7.3      7.172     10.683
REMARK  12 active torsions:
REMARK  status: ('A' for Active; 'I' for Inactive)
REMARK    1  A    between atoms: C_1  and  C_19 
REMARK    2  A    between atoms: C_1  and  C_2 
REMARK    3  A    between atoms: C_1  and  N_14 
REMARK    4  A    between atoms: C_2  and  C_3 
REMARK    5  A    between atoms: C_6  and  O_7 
REMARK    6  A    between atoms: O_7  and  P_8 
REMARK    7  A    between atoms: P_8  and  O_9 
REMARK       I    between atoms: C_19  and  N_20 
REMARK    8  A    between atoms: N_20  and  C_24 
REMARK    9  A    between atoms: C_23  and  C_24 
REMARK   10  A    between atoms: C_24  and  C_25 
REMARK   11  A    between atoms: C_25  and  C_28 
REMARK   12  A    between atoms: C_31  and  O_32 
ROOT
HETATM    1  C           1     -19.508  -9.803  -4.214  0.00  0.00     0.278 C 
ENDROOT
BRANCH   1   2
HETATM    2  C           1     -20.767  -9.295  -3.556  0.00  0.00     0.249 C 
HETATM    3  O           1     -21.840  -9.750  -3.872  0.00  0.00    -0.271 OA
HETATM    4  N           1     -20.694  -8.317  -2.600  0.00  0.00    -0.344 N 
HETATM    5  H           1     -19.795  -7.935  -2.335  0.00  0.00     0.163 HD
BRANCH   4   6
HETATM    6  C           1     -21.903  -7.829  -1.968  0.00  0.00     0.189 C 
BRANCH   6   7
HETATM    7  C           1     -22.069  -6.359  -2.268  0.00  0.00     0.197 C 
HETATM    8  O           1     -22.325  -5.558  -1.342  0.00  0.00    -0.646 OA
HETATM    9  O           1     -21.950  -5.944  -3.440  0.00  0.00    -0.646 OA
ENDBRANCH   6   7
BRANCH   6  10
HETATM   10  C           1     -21.804  -8.032  -0.461  0.00  0.00     0.074 C 
BRANCH  10  11
HETATM   11  C           1     -22.050  -9.473  -0.135  0.00  0.00    -0.056 A 
HETATM   12  C           1     -23.298 -10.042  -0.388  0.00  0.00     0.010 A 
HETATM   13  C           1     -23.528 -11.384  -0.084  0.00  0.00     0.037 A 
HETATM   14  C           1     -22.509 -12.156   0.474  0.00  0.00     0.065 A 
HETATM   15  C           1     -21.261 -11.588   0.726  0.00  0.00     0.037 A 
HETATM   16  C           1     -21.031 -10.245   0.422  0.00  0.00     0.010 A 
BRANCH  14  17
HETATM   17  O           1     -22.731 -13.460   0.768  0.00  0.00    -0.361 OA
HETATM   18  H           1     -21.880 -13.926   0.730  0.00  0.00     0.217 HD
ENDBRANCH  14  17
ENDBRANCH  10  11
ENDBRANCH   6  10
ENDBRANCH   4   6
ENDBRANCH   1   2
BRANCH   1  19
HETATM   19  C           1     -18.293  -9.214  -3.509  0.00  0.00     0.081 C 
BRANCH  19  20
HETATM   20  C           1     -17.607 -10.285  -2.720  0.00  0.00    -0.056 A 
HETATM   21  C           1     -18.362 -11.236  -2.032  0.00  0.00     0.010 A 
HETATM   22  C           1     -17.722 -12.233  -1.296  0.00  0.00     0.038 A 
HETATM   23  C           1     -16.329 -12.281  -1.248  0.00  0.00     0.081 A 
HETATM   24  C           1     -15.575 -11.331  -1.936  0.00  0.00     0.038 A 
HETATM   25  C           1     -16.214 -10.332  -2.671  0.00  0.00     0.010 A 
BRANCH  23  26
HETATM   26  O           1     -15.709 -13.251  -0.533  0.00  0.00    -0.247 OA
BRANCH  26  27
HETATM   27  P           1     -15.660 -13.095   1.073  0.00  0.00     0.411 P 
HETATM   28  O           1     -16.689 -13.967   1.683  0.00  0.00    -0.624 OA
HETATM   29  O           1     -14.322 -13.490   1.567  0.00  0.00    -0.624 OA
BRANCH  27  30
HETATM   30  O           1     -15.950 -11.558   1.476  0.00  0.00    -0.300 OA
HETATM   31  H           1     -15.301 -11.349   2.125  0.00  0.00     0.223 HD
ENDBRANCH  27  30
ENDBRANCH  26  27
ENDBRANCH  23  26
ENDBRANCH  19  20
ENDBRANCH   1  19
BRANCH   1  32
HETATM   32  N           1     -19.496  -9.389  -5.656  0.00  0.00    -0.066 N 
HETATM   33  H           1     -19.073  -8.438  -5.743  0.00  0.00     0.275 HD
HETATM   34  H           1     -18.930 -10.073  -6.209  0.00  0.00     0.275 HD
HETATM   35  H           1     -20.475  -9.370  -6.022  0.00  0.00     0.275 HD
ENDBRANCH   1  32
TORSDOF 12
ENDMDL
MODEL 9
REMARK VINA RESULT:      -7.2      3.606     10.624
REMARK  12 active torsions:
REMARK  status: ('A' for Active; 'I' for Inactive)
REMARK    1  A    between atoms: C_1  and  C_19 
REMARK    2  A    between atoms: C_1  and  C_2 
REMARK    3  A    between atoms: C_1  and  N_14 
REMARK    4  A    between atoms: C_2  and  C_3 
REMARK    5  A    between atoms: C_6  and  O_7 
REMARK    6  A    between atoms: O_7  and  P_8 
REMARK    7  A    between atoms: P_8  and  O_9 
REMARK       I    between atoms: C_19  and  N_20 
REMARK    8  A    between atoms: N_20  and  C_24 
REMARK    9  A    between atoms: C_23  and  C_24 
REMARK   10  A    between atoms: C_24  and  C_25 
REMARK   11  A    between atoms: C_25  and  C_28 
REMARK   12  A    between atoms: C_31  and  O_32 
ROOT
HETATM    1  C           1     -21.108  -5.404  -6.219  0.00  0.00     0.278 C 
ENDROOT
BRANCH   1   2
HETATM    2  C           1     -21.570  -4.488  -7.326  0.00  0.00     0.249 C 
HETATM    3  O           1     -21.392  -3.297  -7.239  0.00  0.00    -0.271 OA
HETATM    4  N           1     -22.190  -5.008  -8.431  0.00  0.00    -0.344 N 
HETATM    5  H           1     -22.339  -6.007  -8.505  0.00  0.00     0.163 HD
BRANCH   4   6
HETATM    6  C           1     -22.632  -4.129  -9.494  0.00  0.00     0.189 C 
BRANCH   6   7
HETATM    7  C           1     -24.140  -4.059  -9.494  0.00  0.00     0.197 C 
HETATM    8  O           1     -24.714  -2.958  -9.347  0.00  0.00    -0.646 OA
HETATM    9  O           1     -24.814  -5.101  -9.639  0.00  0.00    -0.646 OA
ENDBRANCH   6   7
BRANCH   6  10
HETATM   10  C           1     -22.150  -4.672 -10.834  0.00  0.00     0.074 C 
BRANCH  10  11
HETATM   11  C           1     -22.690  -3.820 -11.941  0.00  0.00    -0.056 A 
HETATM   12  C           1     -23.634  -4.343 -12.825  0.00  0.00     0.010 A 
HETATM   13  C           1     -24.138  -3.551 -13.857  0.00  0.00     0.037 A 
HETATM   14  C           1     -23.698  -2.236 -14.004  0.00  0.00     0.065 A 
HETATM   15  C           1     -22.755  -1.712 -13.119  0.00  0.00     0.037 A 
HETATM   16  C           1     -22.251  -2.505 -12.087  0.00  0.00     0.010 A 
BRANCH  14  17
HETATM   17  O           1     -24.188  -1.465 -15.005  0.00  0.00    -0.361 OA
HETATM   18  H           1     -24.895  -1.963 -15.448  0.00  0.00     0.217 HD
ENDBRANCH  14  17
ENDBRANCH  10  11
ENDBRANCH   6  10
ENDBRANCH   4   6
ENDBRANCH   1   2
BRANCH   1  19
HETATM   19  C           1     -22.315  -5.893  -5.429  0.00  0.00     0.081 C 
BRANCH  19  20
HETATM   20  C           1     -21.851  -6.709  -4.263  0.00  0.00    -0.056 A 
HETATM   21  C           1     -22.058  -6.248  -2.963  0.00  0.00     0.010 A 
HETATM   22  C           1     -21.625  -7.008  -1.876  0.00  0.00     0.038 A 
HETATM   23  C           1     -20.984  -8.229  -2.090  0.00  0.00     0.081 A 
HETATM   24  C           1     -20.777  -8.689  -3.389  0.00  0.00     0.038 A 
HETATM   25  C           1     -21.210  -7.929  -4.476  0.00  0.00     0.010 A 
BRANCH  23  26
HETATM   26  O           1     -20.564  -8.967  -1.034  0.00  0.00    -0.247 OA
BRANCH  26  27
HETATM   27  P           1     -21.595 -10.035  -0.397  0.00  0.00     0.411 P 
HETATM   28  O           1     -22.881  -9.362  -0.105  0.00  0.00    -0.624 OA
HETATM   29  O           1     -21.821 -11.136  -1.359  0.00  0.00    -0.624 OA
BRANCH  27  30
HETATM   30  O           1     -20.978 -10.633   0.970  0.00  0.00    -0.300 OA
HETATM   31  H           1     -21.423 -11.452   1.101  0.00  0.00     0.223 HD
ENDBRANCH  27  30
ENDBRANCH  26  27
ENDBRANCH  23  26
ENDBRANCH  19  20
ENDBRANCH   1  19
BRANCH   1  32
HETATM   32  N           1     -20.184  -4.655  -5.304  0.00  0.00    -0.066 N 
HETATM   33  H           1     -20.451  -4.840  -4.311  0.00  0.00     0.275 HD
HETATM   34  H           1     -19.202  -4.975  -5.466  0.00  0.00     0.275 HD
HETATM   35  H           1     -20.254  -3.631  -5.499  0.00  0.00     0.275 HD
ENDBRANCH   1  32
TORSDOF 12
ENDMDL
