MODEL 1
REMARK VINA RESULT:      -6.8      0.000      0.000
REMARK  8 active torsions:
REMARK  status: ('A' for Active; 'I' for Inactive)
REMARK    1  A    between atoms: N_1  and  C_6 
REMARK       I    between atoms: N_1  and  C_3 
REMARK    2  A    between atoms: C_3  and  C_9 
REMARK    3  A    between atoms: N_4  and  C_9 
REMARK    4  A    between atoms: C_5  and  C_8 
REMARK    5  A    between atoms: C_5  and  C_6 
REMARK    6  A    between atoms: C_6  and  C_17 
REMARK    7  A    between atoms: C_8  and  C_20 
REMARK    8  A    between atoms: C_9  and  C_18 
ROOT
HETATM    1  N           1     -22.267  -4.887  -9.328  0.00  0.00    -0.345 N 
HETATM    2  C           1     -21.843  -4.648  -8.048  0.00  0.00     0.249 C 
HETATM    3  H           1     -22.164  -5.809  -9.731  0.00  0.00     0.163 HD
HETATM    4  O           1     -21.966  -3.547  -7.567  0.00  0.00    -0.271 OA
ENDROOT
BRANCH   1   5
HETATM    5  C           1     -22.865  -3.819 -10.105  0.00  0.00     0.186 C 
BRANCH   5   6
HETATM    6  C           1     -22.578  -4.045 -11.583  0.00  0.00     0.046 C 
BRANCH   6   7
HETATM    7  C           1     -22.719  -2.729 -12.336  0.00  0.00     0.116 C 
BRANCH   7   8
HETATM    8  C           1     -23.771  -2.872 -13.408  0.00  0.00     0.172 C 
HETATM    9  O           1     -24.983  -2.805 -13.108  0.00  0.00    -0.648 OA
HETATM   10  O           1     -23.431  -3.058 -14.596  0.00  0.00    -0.648 OA
ENDBRANCH   7   8
ENDBRANCH   6   7
ENDBRANCH   5   6
BRANCH   5  11
HETATM   11  C           1     -24.356  -3.806  -9.877  0.00  0.00     0.196 C 
HETATM   12  O           1     -24.944  -2.727  -9.647  0.00  0.00    -0.646 OA
HETATM   13  O           1     -25.004  -4.875  -9.916  0.00  0.00    -0.646 OA
ENDBRANCH   5  11
ENDBRANCH   1   5
BRANCH   2  14
HETATM   14  C           1     -21.220  -5.760  -7.240  0.00  0.00     0.278 C 
BRANCH  14  15
HETATM   15  N           1     -19.774  -5.899  -7.611  0.00  0.00    -0.066 N 
HETATM   16  H           1     -19.484  -5.084  -8.197  0.00  0.00     0.275 HD
HETATM   17  H           1     -19.194  -5.928  -6.743  0.00  0.00     0.275 HD
HETATM   18  H           1     -19.638  -6.784  -8.151  0.00  0.00     0.275 HD
ENDBRANCH  14  15
BRANCH  14  19
HETATM   19  C           1     -21.334  -5.435  -5.756  0.00  0.00     0.017 C 
HETATM   20  C           1     -20.039  -4.794  -5.276  0.00  0.00     0.012 C 
HETATM   21  C           1     -21.587  -6.716  -4.974  0.00  0.00     0.012 C 
ENDBRANCH  14  19
ENDBRANCH   2  14
TORSDOF 8
ENDMDL
MODEL 2
REMARK VINA RESULT:      -6.1      9.969     11.706
REMARK  8 active torsions:
REMARK  status: ('A' for Active; 'I' for Inactive)
REMARK    1  A    between atoms: N_1  and  C_6 
REMARK       I    between atoms: N_1  and  C_3 
REMARK    2  A    between atoms: C_3  and  C_9 
REMARK    3  A    between atoms: N_4  and  C_9 
REMARK    4  A    between atoms: C_5  and  C_8 
REMARK    5  A    between atoms: C_5  and  C_6 
REMARK    6  A    between atoms: C_6  and  C_17 
REMARK    7  A    between atoms: C_8  and  C_20 
REMARK    8  A    between atoms: C_9  and  C_18 
ROOT
HETATM    1  N           1     -27.997  -6.925 -18.628  0.00  0.00    -0.345 N 
HETATM    2  C           1     -26.927  -6.446 -17.920  0.00  0.00     0.249 C 
HETATM    3  H           1     -27.872  -7.238 -19.582  0.00  0.00     0.163 HD
HETATM    4  O           1     -27.076  -6.073 -16.781  0.00  0.00    -0.271 OA
ENDROOT
BRANCH   1   5
HETATM    5  C           1     -29.307  -6.986 -18.010  0.00  0.00     0.186 C 
BRANCH   5   6
HETATM    6  C           1     -29.960  -5.611 -18.069  0.00  0.00     0.046 C 
BRANCH   6   7
HETATM    7  C           1     -30.844  -5.415 -16.845  0.00  0.00     0.116 C 
BRANCH   7   8
HETATM    8  C           1     -31.697  -4.185 -17.032  0.00  0.00     0.172 C 
HETATM    9  O           1     -32.835  -4.129 -16.517  0.00  0.00    -0.648 OA
HETATM   10  O           1     -31.266  -3.222 -17.702  0.00  0.00    -0.648 OA
ENDBRANCH   7   8
ENDBRANCH   6   7
ENDBRANCH   5   6
BRANCH   5  11
HETATM   11  C           1     -30.165  -7.984 -18.748  0.00  0.00     0.196 C 
HETATM   12  O           1     -31.406  -7.844 -18.771  0.00  0.00    -0.646 OA
HETATM   13  O           1     -29.633  -8.951 -19.335  0.00  0.00    -0.646 OA
ENDBRANCH   5  11
ENDBRANCH   1   5
BRANCH   2  14
HETATM   14  C           1     -25.564  -6.383 -18.563  0.00  0.00     0.278 C 
BRANCH  14  15
HETATM   15  N           1     -24.588  -7.177 -17.746  0.00  0.00    -0.066 N 
HETATM   16  H           1     -24.651  -6.882 -16.745  0.00  0.00     0.275 HD
HETATM   17  H           1     -24.816  -8.194 -17.824  0.00  0.00     0.275 HD
HETATM   18  H           1     -23.619  -7.008 -18.100  0.00  0.00     0.275 HD
ENDBRANCH  14  15
BRANCH  14  19
HETATM   19  C           1     -25.637  -6.963 -19.969  0.00  0.00     0.017 C 
HETATM   20  C           1     -24.400  -7.810 -20.235  0.00  0.00     0.012 C 
HETATM   21  C           1     -25.702  -5.829 -20.983  0.00  0.00     0.012 C 
ENDBRANCH  14  19
ENDBRANCH   2  14
TORSDOF 8
ENDMDL
MODEL 3
REMARK VINA RESULT:      -6.0      2.810      7.149
REMARK  8 active torsions:
REMARK  status: ('A' for Active; 'I' for Inactive)
REMARK    1  A    between atoms: N_1  and  C_6 
REMARK       I    between atoms: N_1  and  C_3 
REMARK    2  A    between atoms: C_3  and  C_9 
REMARK    3  A    between atoms: N_4  and  C_9 
REMARK    4  A    between atoms: C_5  and  C_8 
REMARK    5  A    between atoms: C_5  and  C_6 
REMARK    6  A    between atoms: C_6  and  C_17 
REMARK    7  A    between atoms: C_8  and  C_20 
REMARK    8  A    between atoms: C_9  and  C_18 
ROOT
HETATM    1  N           1     -22.052  -5.250  -7.678  0.00  0.00    -0.345 N 
HETATM    2  C           1     -22.394  -4.079  -8.299  0.00  0.00     0.249 C 
HETATM    3  H           1     -22.438  -6.127  -8.004  0.00  0.00     0.163 HD
HETATM    4  O           1     -21.933  -3.032  -7.910  0.00  0.00    -0.271 OA
ENDROOT
BRANCH   1   5
HETATM    5  C           1     -21.136  -5.234  -6.554  0.00  0.00     0.186 C 
BRANCH   5   6
HETATM    6  C           1     -21.617  -6.215  -5.493  0.00  0.00     0.046 C 
BRANCH   6   7
HETATM    7  C           1     -21.049  -5.818  -4.138  0.00  0.00     0.116 C 
BRANCH   7   8
HETATM    8  C           1     -21.760  -6.585  -3.049  0.00  0.00     0.172 C 
HETATM    9  O           1     -21.658  -7.830  -2.993  0.00  0.00    -0.648 OA
HETATM   10  O           1     -22.450  -5.975  -2.205  0.00  0.00    -0.648 OA
ENDBRANCH   7   8
ENDBRANCH   6   7
ENDBRANCH   5   6
BRANCH   5  11
HETATM   11  C           1     -19.758  -5.634  -7.022  0.00  0.00     0.196 C 
HETATM   12  O           1     -18.938  -4.758  -7.369  0.00  0.00    -0.646 OA
HETATM   13  O           1     -19.439  -6.842  -7.064  0.00  0.00    -0.646 OA
ENDBRANCH   5  11
ENDBRANCH   1   5
BRANCH   2  14
HETATM   14  C           1     -23.346  -4.096  -9.469  0.00  0.00     0.278 C 
BRANCH  14  15
HETATM   15  N           1     -24.592  -3.340  -9.111  0.00  0.00    -0.066 N 
HETATM   16  H           1     -24.409  -2.746  -8.271  0.00  0.00     0.275 HD
HETATM   17  H           1     -24.872  -2.733  -9.913  0.00  0.00     0.275 HD
HETATM   18  H           1     -25.360  -4.017  -8.900  0.00  0.00     0.275 HD
ENDBRANCH  14  15
BRANCH  14  19
HETATM   19  C           1     -22.684  -3.440 -10.674  0.00  0.00     0.017 C 
HETATM   20  C           1     -23.740  -3.125 -11.725  0.00  0.00     0.012 C 
HETATM   21  C           1     -21.650  -4.390 -11.263  0.00  0.00     0.012 C 
ENDBRANCH  14  19
ENDBRANCH   2  14
TORSDOF 8
ENDMDL
MODEL 4
REMARK VINA RESULT:      -5.8      5.756      8.491
REMARK  8 active torsions:
REMARK  status: ('A' for Active; 'I' for Inactive)
REMARK    1  A    between atoms: N_1  and  C_6 
REMARK       I    between atoms: N_1  and  C_3 
REMARK    2  A    between atoms: C_3  and  C_9 
REMARK    3  A    between atoms: N_4  and  C_9 
REMARK    4  A    between atoms: C_5  and  C_8 
REMARK    5  A    between atoms: C_5  and  C_6 
REMARK    6  A    between atoms: C_6  and  C_17 
REMARK    7  A    between atoms: C_8  and  C_20 
REMARK    8  A    between atoms: C_9  and  C_18 
ROOT
HETATM    1  N           1     -21.711  -8.333  -4.417  0.00  0.00    -0.345 N 
HETATM    2  C           1     -20.877  -7.815  -5.371  0.00  0.00     0.249 C 
HETATM    3  H           1     -22.635  -7.941  -4.286  0.00  0.00     0.163 HD
HETATM    4  O           1     -19.774  -8.283  -5.527  0.00  0.00    -0.271 OA
ENDROOT
BRANCH   1   5
HETATM    5  C           1     -21.272  -9.444  -3.595  0.00  0.00     0.186 C 
BRANCH   5   6
HETATM    6  C           1     -21.601  -9.156  -2.136  0.00  0.00     0.046 C 
BRANCH   6   7
HETATM    7  C           1     -21.020  -7.805  -1.740  0.00  0.00     0.116 C 
BRANCH   7   8
HETATM    8  C           1     -22.142  -6.818  -1.528  0.00  0.00     0.172 C 
HETATM    9  O           1     -22.833  -6.870  -0.488  0.00  0.00    -0.648 OA
HETATM   10  O           1     -22.378  -5.947  -2.393  0.00  0.00    -0.648 OA
ENDBRANCH   7   8
ENDBRANCH   6   7
ENDBRANCH   5   6
BRANCH   5  11
HETATM   11  C           1     -21.978 -10.703  -4.032  0.00  0.00     0.196 C 
HETATM   12  O           1     -21.606 -11.302  -5.063  0.00  0.00    -0.646 OA
HETATM   13  O           1     -22.937 -11.146  -3.363  0.00  0.00    -0.646 OA
ENDBRANCH   5  11
ENDBRANCH   1   5
BRANCH   2  14
HETATM   14  C           1     -21.334  -6.660  -6.227  0.00  0.00     0.278 C 
BRANCH  14  15
HETATM   15  N           1     -22.325  -5.833  -5.463  0.00  0.00    -0.066 N 
HETATM   16  H           1     -22.535  -4.959  -5.996  0.00  0.00     0.275 HD
HETATM   17  H           1     -23.205  -6.380  -5.330  0.00  0.00     0.275 HD
HETATM   18  H           1     -21.925  -5.585  -4.530  0.00  0.00     0.275 HD
ENDBRANCH  14  15
BRANCH  14  19
HETATM   19  C           1     -20.135  -5.799  -6.601  0.00  0.00     0.017 C 
HETATM   20  C           1     -20.019  -4.638  -5.622  0.00  0.00     0.012 C 
HETATM   21  C           1     -20.320  -5.256  -8.011  0.00  0.00     0.012 C 
ENDBRANCH  14  19
ENDBRANCH   2  14
TORSDOF 8
ENDMDL
MODEL 5
REMARK VINA RESULT:      -5.8      3.042      5.146
REMARK  8 active torsions:
REMARK  status: ('A' for Active; 'I' for Inactive)
REMARK    1  A    between atoms: N_1  and  C_6 
REMARK       I    between atoms: N_1  and  C_3 
REMARK    2  A    between atoms: C_3  and  C_9 
REMARK    3  A    between atoms: N_4  and  C_9 
REMARK    4  A    between atoms: C_5  and  C_8 
REMARK    5  A    between atoms: C_5  and  C_6 
REMARK    6  A    between atoms: C_6  and  C_17 
REMARK    7  A    between atoms: C_8  and  C_20 
REMARK    8  A    between atoms: C_9  and  C_18 
ROOT
HETATM    1  N           1     -20.943  -5.529  -4.949  0.00  0.00    -0.345 N 
HETATM    2  C           1     -21.492  -6.542  -4.210  0.00  0.00     0.249 C 
HETATM    3  H           1     -20.404  -4.805  -4.493  0.00  0.00     0.163 HD
HETATM    4  O           1     -22.136  -7.407  -4.755  0.00  0.00    -0.271 OA
ENDROOT
BRANCH   1   5
HETATM    5  C           1     -21.133  -5.495  -6.386  0.00  0.00     0.186 C 
BRANCH   5   6
HETATM    6  C           1     -21.728  -4.152  -6.787  0.00  0.00     0.046 C 
BRANCH   6   7
HETATM    7  C           1     -23.071  -4.374  -7.469  0.00  0.00     0.116 C 
BRANCH   7   8
HETATM    8  C           1     -23.009  -3.855  -8.885  0.00  0.00     0.172 C 
HETATM    9  O           1     -24.031  -3.374  -9.421  0.00  0.00    -0.648 OA
HETATM   10  O           1     -21.935  -3.907  -9.522  0.00  0.00    -0.648 OA
ENDBRANCH   7   8
ENDBRANCH   6   7
ENDBRANCH   5   6
BRANCH   5  11
HETATM   11  C           1     -19.803  -5.682  -7.074  0.00  0.00     0.196 C 
HETATM   12  O           1     -19.302  -6.823  -7.164  0.00  0.00    -0.646 OA
HETATM   13  O           1     -19.202  -4.695  -7.551  0.00  0.00    -0.646 OA
ENDBRANCH   5  11
ENDBRANCH   1   5
BRANCH   2  14
HETATM   14  C           1     -21.294  -6.578  -2.714  0.00  0.00     0.278 C 
BRANCH  14  15
HETATM   15  N           1     -22.388  -5.799  -2.046  0.00  0.00    -0.066 N 
HETATM   16  H           1     -22.011  -5.333  -1.190  0.00  0.00     0.275 HD
HETATM   17  H           1     -22.751  -5.075  -2.706  0.00  0.00     0.275 HD
HETATM   18  H           1     -23.163  -6.447  -1.778  0.00  0.00     0.275 HD
ENDBRANCH  14  15
BRANCH  14  19
HETATM   19  C           1     -21.331  -8.022  -2.231  0.00  0.00     0.017 C 
HETATM   20  C           1     -21.908  -8.071  -0.823  0.00  0.00     0.012 C 
HETATM   21  C           1     -19.919  -8.590  -2.221  0.00  0.00     0.012 C 
ENDBRANCH  14  19
ENDBRANCH   2  14
TORSDOF 8
ENDMDL
MODEL 6
REMARK VINA RESULT:      -5.8      8.813     11.617
REMARK  8 active torsions:
REMARK  status: ('A' for Active; 'I' for Inactive)
REMARK    1  A    between atoms: N_1  and  C_6 
REMARK       I    between atoms: N_1  and  C_3 
REMARK    2  A    between atoms: C_3  and  C_9 
REMARK    3  A    between atoms: N_4  and  C_9 
REMARK    4  A    between atoms: C_5  and  C_8 
REMARK    5  A    between atoms: C_5  and  C_6 
REMARK    6  A    between atoms: C_6  and  C_17 
REMARK    7  A    between atoms: C_8  and  C_20 
REMARK    8  A    between atoms: C_9  and  C_18 
ROOT
HETATM    1  N           1     -27.363  -7.291 -19.109  0.00  0.00    -0.345 N 
HETATM    2  C           1     -28.431  -6.468 -18.876  0.00  0.00     0.249 C 
HETATM    3  H           1     -27.431  -8.279 -18.902  0.00  0.00     0.163 HD
HETATM    4  O           1     -28.349  -5.288 -19.124  0.00  0.00    -0.271 OA
ENDROOT
BRANCH   1   5
HETATM    5  C           1     -26.134  -6.749 -19.655  0.00  0.00     0.186 C 
BRANCH   5   6
HETATM    6  C           1     -25.028  -6.850 -18.613  0.00  0.00     0.046 C 
BRANCH   6   7
HETATM    7  C           1     -25.558  -6.389 -17.262  0.00  0.00     0.116 C 
BRANCH   7   8
HETATM    8  C           1     -24.997  -7.271 -16.173  0.00  0.00     0.172 C 
HETATM    9  O           1     -24.217  -8.204 -16.464  0.00  0.00    -0.648 OA
HETATM   10  O           1     -25.312  -7.068 -14.981  0.00  0.00    -0.648 OA
ENDBRANCH   7   8
ENDBRANCH   6   7
ENDBRANCH   5   6
BRANCH   5  11
HETATM   11  C           1     -25.741  -7.530 -20.884  0.00  0.00     0.196 C 
HETATM   12  O           1     -24.688  -7.249 -21.494  0.00  0.00    -0.646 OA
HETATM   13  O           1     -26.472  -8.459 -21.293  0.00  0.00    -0.646 OA
ENDBRANCH   5  11
ENDBRANCH   1   5
BRANCH   2  14
HETATM   14  C           1     -29.710  -7.032 -18.309  0.00  0.00     0.278 C 
BRANCH  14  15
HETATM   15  N           1     -29.409  -8.294 -17.556  0.00  0.00    -0.066 N 
HETATM   16  H           1     -28.698  -8.852 -18.081  0.00  0.00     0.275 HD
HETATM   17  H           1     -29.035  -8.054 -16.611  0.00  0.00     0.275 HD
HETATM   18  H           1     -30.285  -8.855 -17.453  0.00  0.00     0.275 HD
ENDBRANCH  14  15
BRANCH  14  19
HETATM   19  C           1     -30.339  -6.016 -17.365  0.00  0.00     0.017 C 
HETATM   20  C           1     -29.671  -6.109 -16.000  0.00  0.00     0.012 C 
HETATM   21  C           1     -31.826  -6.310 -17.221  0.00  0.00     0.012 C 
ENDBRANCH  14  19
ENDBRANCH   2  14
TORSDOF 8
ENDMDL
MODEL 7
REMARK VINA RESULT:      -5.8      3.773      7.886
REMARK  8 active torsions:
REMARK  status: ('A' for Active; 'I' for Inactive)
REMARK    1  A    between atoms: N_1  and  C_6 
REMARK       I    between atoms: N_1  and  C_3 
REMARK    2  A    between atoms: C_3  and  C_9 
REMARK    3  A    between atoms: N_4  and  C_9 
REMARK    4  A    between atoms: C_5  and  C_8 
REMARK    5  A    between atoms: C_5  and  C_6 
REMARK    6  A    between atoms: C_6  and  C_17 
REMARK    7  A    between atoms: C_8  and  C_20 
REMARK    8  A    between atoms: C_9  and  C_18 
ROOT
HETATM    1  N           1     -21.554  -6.330  -6.369  0.00  0.00    -0.345 N 
HETATM    2  C           1     -21.564  -5.066  -6.894  0.00  0.00     0.249 C 
HETATM    3  H           1     -22.018  -7.084  -6.858  0.00  0.00     0.163 HD
HETATM    4  O           1     -21.010  -4.165  -6.309  0.00  0.00    -0.271 OA
ENDROOT
BRANCH   1   5
HETATM    5  C           1     -20.879  -6.589  -5.112  0.00  0.00     0.186 C 
BRANCH   5   6
HETATM    6  C           1     -21.906  -6.960  -4.051  0.00  0.00     0.046 C 
BRANCH   6   7
HETATM    7  C           1     -21.664  -6.130  -2.797  0.00  0.00     0.116 C 
BRANCH   7   8
HETATM    8  C           1     -21.825  -7.003  -1.576  0.00  0.00     0.172 C 
HETATM    9  O           1     -21.029  -7.945  -1.372  0.00  0.00    -0.648 OA
HETATM   10  O           1     -22.754  -6.783  -0.770  0.00  0.00    -0.648 OA
ENDBRANCH   7   8
ENDBRANCH   6   7
ENDBRANCH   5   6
BRANCH   5  11
HETATM   11  C           1     -19.904  -7.727  -5.290  0.00  0.00     0.196 C 
HETATM   12  O           1     -19.192  -7.784  -6.315  0.00  0.00    -0.646 OA
HETATM   13  O           1     -19.811  -8.612  -4.413  0.00  0.00    -0.646 OA
ENDBRANCH   5  11
ENDBRANCH   1   5
BRANCH   2  14
HETATM   14  C           1     -22.267  -4.796  -8.201  0.00  0.00     0.278 C 
BRANCH  14  15
HETATM   15  N           1     -23.555  -4.074  -7.937  0.00  0.00    -0.066 N 
HETATM   16  H           1     -23.659  -3.912  -6.911  0.00  0.00     0.275 HD
HETATM   17  H           1     -23.546  -3.157  -8.437  0.00  0.00     0.275 HD
HETATM   18  H           1     -24.354  -4.652  -8.283  0.00  0.00     0.275 HD
ENDBRANCH  14  15
BRANCH  14  19
HETATM   19  C           1     -21.376  -3.938  -9.090  0.00  0.00     0.017 C 
HETATM   20  C           1     -22.138  -3.552 -10.351  0.00  0.00     0.012 C 
HETATM   21  C           1     -20.130  -4.726  -9.471  0.00  0.00     0.012 C 
ENDBRANCH  14  19
ENDBRANCH   2  14
TORSDOF 8
ENDMDL
MODEL 8
REMARK VINA RESULT:      -5.6      1.923      3.095
REMARK  8 active torsions:
REMARK  status: ('A' for Active; 'I' for Inactive)
REMARK    1  A    between atoms: N_1  and  C_6 
REMARK       I    between atoms: N_1  and  C_3 
REMARK    2  A    between atoms: C_3  and  C_9 
REMARK    3  A    between atoms: N_4  and  C_9 
REMARK    4  A    between atoms: C_5  and  C_8 
REMARK    5  A    between atoms: C_5  and  C_6 
REMARK    6  A    between atoms: C_6  and  C_17 
REMARK    7  A    between atoms: C_8  and  C_20 
REMARK    8  A    between atoms: C_9  and  C_18 
ROOT
HETATM    1  N           1     -21.526  -4.958  -7.252  0.00  0.00    -0.345 N 
HETATM    2  C           1     -20.611  -5.830  -6.727  0.00  0.00     0.249 C 
HETATM    3  H           1     -22.055  -4.351  -6.639  0.00  0.00     0.163 HD
HETATM    4  O           1     -19.979  -6.554  -7.459  0.00  0.00    -0.271 OA
ENDROOT
BRANCH   1   5
HETATM    5  C           1     -21.737  -4.902  -8.685  0.00  0.00     0.186 C 
BRANCH   5   6
HETATM    6  C           1     -22.953  -4.037  -8.987  0.00  0.00     0.046 C 
BRANCH   6   7
HETATM    7  C           1     -23.379  -4.244 -10.434  0.00  0.00     0.116 C 
BRANCH   7   8
HETATM    8  C           1     -24.615  -3.425 -10.717  0.00  0.00     0.172 C 
HETATM    9  O           1     -25.394  -3.127  -9.787  0.00  0.00    -0.648 OA
HETATM   10  O           1     -24.859  -3.046 -11.883  0.00  0.00    -0.648 OA
ENDBRANCH   7   8
ENDBRANCH   6   7
ENDBRANCH   5   6
BRANCH   5  11
HETATM   11  C           1     -20.519  -4.309  -9.350  0.00  0.00     0.196 C 
HETATM   12  O           1     -19.939  -3.331  -8.833  0.00  0.00    -0.646 OA
HETATM   13  O           1     -20.092  -4.797 -10.420  0.00  0.00    -0.646 OA
ENDBRANCH   5  11
ENDBRANCH   1   5
BRANCH   2  14
HETATM   14  C           1     -20.391  -5.887  -5.236  0.00  0.00     0.278 C 
BRANCH  14  15
HETATM   15  N           1     -20.053  -4.517  -4.727  0.00  0.00    -0.066 N 
HETATM   16  H           1     -20.042  -3.842  -5.524  0.00  0.00     0.275 HD
HETATM   17  H           1     -20.771  -4.219  -4.028  0.00  0.00     0.275 HD
HETATM   18  H           1     -19.112  -4.537  -4.274  0.00  0.00     0.275 HD
ENDBRANCH  14  15
BRANCH  14  19
HETATM   19  C           1     -21.659  -6.383  -4.554  0.00  0.00     0.017 C 
HETATM   20  C           1     -21.560  -6.137  -3.054  0.00  0.00     0.012 C 
HETATM   21  C           1     -21.825  -7.874  -4.813  0.00  0.00     0.012 C 
ENDBRANCH  14  19
ENDBRANCH   2  14
TORSDOF 8
ENDMDL
MODEL 9
REMARK VINA RESULT:      -5.6      5.763      8.288
REMARK  8 active torsions:
REMARK  status: ('A' for Active; 'I' for Inactive)
REMARK    1  A    between atoms: N_1  and  C_6 
REMARK       I    between atoms: N_1  and  C_3 
REMARK    2  A    between atoms: C_3  and  C_9 
REMARK    3  A    between atoms: N_4  and  C_9 
REMARK    4  A    between atoms: C_5  and  C_8 
REMARK    5  A    between atoms: C_5  and  C_6 
REMARK    6  A    between atoms: C_6  and  C_17 
REMARK    7  A    between atoms: C_8  and  C_20 
REMARK    8  A    between atoms: C_9  and  C_18 
ROOT
HETATM    1  N           1     -20.498  -8.402  -3.135  0.00  0.00    -0.345 N 
HETATM    2  C           1     -21.352  -8.745  -2.121  0.00  0.00     0.249 C 
HETATM    3  H           1     -19.895  -7.596  -3.037  0.00  0.00     0.163 HD
HETATM    4  O           1     -22.072  -9.708  -2.237  0.00  0.00    -0.271 OA
ENDROOT
BRANCH   1   5
HETATM    5  C           1     -20.457  -9.196  -4.348  0.00  0.00     0.186 C 
BRANCH   5   6
HETATM    6  C           1     -21.218  -8.475  -5.452  0.00  0.00     0.046 C 
BRANCH   6   7
HETATM    7  C           1     -20.678  -7.059  -5.602  0.00  0.00     0.116 C 
BRANCH   7   8
HETATM    8  C           1     -21.714  -6.071  -5.125  0.00  0.00     0.172 C 
HETATM    9  O           1     -21.837  -5.834  -3.904  0.00  0.00    -0.648 OA
HETATM   10  O           1     -22.450  -5.490  -5.952  0.00  0.00    -0.648 OA
ENDBRANCH   7   8
ENDBRANCH   6   7
ENDBRANCH   5   6
BRANCH   5  11
HETATM   11  C           1     -19.022  -9.393  -4.771  0.00  0.00     0.196 C 
HETATM   12  O           1     -18.097  -9.187  -3.957  0.00  0.00    -0.646 OA
HETATM   13  O           1     -18.760  -9.761  -5.937  0.00  0.00    -0.646 OA
ENDBRANCH   5  11
ENDBRANCH   1   5
BRANCH   2  14
HETATM   14  C           1     -21.394  -7.919  -0.859  0.00  0.00     0.278 C 
BRANCH  14  15
HETATM   15  N           1     -22.250  -6.708  -1.082  0.00  0.00    -0.066 N 
HETATM   16  H           1     -22.093  -6.023  -0.309  0.00  0.00     0.275 HD
HETATM   17  H           1     -21.997  -6.268  -1.995  0.00  0.00     0.275 HD
HETATM   18  H           1     -23.256  -6.992  -1.099  0.00  0.00     0.275 HD
ENDBRANCH  14  15
BRANCH  14  19
HETATM   19  C           1     -21.979  -8.752   0.274  0.00  0.00     0.017 C 
HETATM   20  C           1     -23.305  -8.148   0.717  0.00  0.00     0.012 C 
HETATM   21  C           1     -21.011  -8.764   1.449  0.00  0.00     0.012 C 
ENDBRANCH  14  19
ENDBRANCH   2  14
TORSDOF 8
ENDMDL
