MODEL 1
REMARK VINA RESULT:      -9.2      0.000      0.000
REMARK  11 active torsions:
REMARK  status: ('A' for Active; 'I' for Inactive)
REMARK    1  A    between atoms: C_4  and  C_6 
REMARK    2  A    between atoms: C_6  and  C_7 
REMARK    3  A    between atoms: C_6  and  N_14 
REMARK    4  A    between atoms: C_7  and  C_8 
REMARK       I    between atoms: N_14  and  C_15 
REMARK    5  A    between atoms: C_15  and  C_16 
REMARK    6  A    between atoms: C_16  and  C_17 
REMARK    7  A    between atoms: C_16  and  N_27 
REMARK    8  A    between atoms: C_17  and  C_18 
REMARK    9  A    between atoms: C_21  and  O_22 
REMARK   10  A    between atoms: O_22  and  P_23 
REMARK   11  A    between atoms: P_23  and  O_24 
ROOT
HETATM    1  C           1     -20.854  -5.068  -6.352  0.00  0.00     0.278 C 
ENDROOT
BRANCH   1   2
HETATM    2  C           1     -20.249  -6.416  -6.659  0.00  0.00     0.249 C 
HETATM    3  N           1     -20.812  -7.553  -6.143  0.00  0.00    -0.344 N 
HETATM    4  H           1     -21.533  -8.040  -6.659  0.00  0.00     0.163 HD
HETATM    5  O           1     -19.270  -6.493  -7.363  0.00  0.00    -0.271 OA
BRANCH   3   6
HETATM    6  C           1     -20.375  -8.056  -4.855  0.00  0.00     0.189 C 
BRANCH   6   7
HETATM    7  C           1     -19.189  -8.970  -5.049  0.00  0.00     0.197 C 
HETATM    8  O           1     -19.070  -9.622  -6.108  0.00  0.00    -0.646 OA
HETATM    9  O           1     -18.327  -9.073  -4.150  0.00  0.00    -0.646 OA
ENDBRANCH   6   7
BRANCH   6  10
HETATM   10  C           1     -21.511  -8.830  -4.201  0.00  0.00     0.074 C 
BRANCH  10  11
HETATM   11  C           1     -21.778  -8.270  -2.837  0.00  0.00    -0.056 A 
HETATM   12  C           1     -21.907  -6.893  -2.663  0.00  0.00     0.007 A 
HETATM   13  C           1     -22.155  -6.370  -1.393  0.00  0.00     0.001 A 
HETATM   14  C           1     -22.273  -7.227  -0.298  0.00  0.00     0.000 A 
HETATM   15  C           1     -22.143  -8.605  -0.474  0.00  0.00     0.001 A 
HETATM   16  C           1     -21.895  -9.126  -1.743  0.00  0.00     0.007 A 
ENDBRANCH  10  11
ENDBRANCH   6  10
ENDBRANCH   3   6
ENDBRANCH   1   2
BRANCH   1  17
HETATM   17  C           1     -20.408  -4.060  -7.403  0.00  0.00     0.081 C 
BRANCH  17  18
HETATM   18  C           1     -21.249  -4.218  -8.633  0.00  0.00    -0.056 A 
HETATM   19  C           1     -22.640  -4.192  -8.535  0.00  0.00     0.010 A 
HETATM   20  C           1     -23.423  -4.338  -9.679  0.00  0.00     0.038 A 
HETATM   21  C           1     -22.814  -4.512 -10.923  0.00  0.00     0.081 A 
HETATM   22  C           1     -21.423  -4.538 -11.021  0.00  0.00     0.038 A 
HETATM   23  C           1     -20.640  -4.391  -9.875  0.00  0.00     0.010 A 
BRANCH  21  24
HETATM   24  O           1     -23.575  -4.655 -12.035  0.00  0.00    -0.247 OA
BRANCH  24  25
HETATM   25  P           1     -23.935  -3.330 -12.884  0.00  0.00     0.411 P 
HETATM   26  O           1     -25.317  -2.905 -12.572  0.00  0.00    -0.624 OA
HETATM   27  O           1     -22.992  -2.245 -12.529  0.00  0.00    -0.624 OA
BRANCH  25  28
HETATM   28  O           1     -23.814  -3.651 -14.462  0.00  0.00    -0.300 OA
HETATM   29  H           1     -23.142  -4.307 -14.527  0.00  0.00     0.223 HD
ENDBRANCH  25  28
ENDBRANCH  24  25
ENDBRANCH  21  24
ENDBRANCH  17  18
ENDBRANCH   1  17
BRANCH   1  30
HETATM   30  N           1     -20.394  -4.613  -4.998  0.00  0.00    -0.066 N 
HETATM   31  H           1     -21.200  -4.197  -4.478  0.00  0.00     0.275 HD
HETATM   32  H           1     -20.020  -5.430  -4.465  0.00  0.00     0.275 HD
HETATM   33  H           1     -19.643  -3.894  -5.109  0.00  0.00     0.275 HD
ENDBRANCH   1  30
TORSDOF 11
ENDMDL
MODEL 2
REMARK VINA RESULT:      -8.8      1.367      2.027
REMARK  11 active torsions:
REMARK  status: ('A' for Active; 'I' for Inactive)
REMARK    1  A    between atoms: C_4  and  C_6 
REMARK    2  A    between atoms: C_6  and  C_7 
REMARK    3  A    between atoms: C_6  and  N_14 
REMARK    4  A    between atoms: C_7  and  C_8 
REMARK       I    between atoms: N_14  and  C_15 
REMARK    5  A    between atoms: C_15  and  C_16 
REMARK    6  A    between atoms: C_16  and  C_17 
REMARK    7  A    between atoms: C_16  and  N_27 
REMARK    8  A    between atoms: C_17  and  C_18 
REMARK    9  A    between atoms: C_21  and  O_22 
REMARK   10  A    between atoms: O_22  and  P_23 
REMARK   11  A    between atoms: P_23  and  O_24 
ROOT
HETATM    1  C           1     -21.203  -6.191  -5.491  0.00  0.00     0.278 C 
ENDROOT
BRANCH   1   2
HETATM    2  C           1     -20.444  -7.492  -5.597  0.00  0.00     0.249 C 
HETATM    3  N           1     -20.900  -8.605  -4.944  0.00  0.00    -0.344 N 
HETATM    4  H           1     -21.543  -9.236  -5.407  0.00  0.00     0.163 HD
HETATM    5  O           1     -19.435  -7.550  -6.259  0.00  0.00    -0.271 OA
BRANCH   3   6
HETATM    6  C           1     -20.463  -8.881  -3.589  0.00  0.00     0.189 C 
BRANCH   6   7
HETATM    7  C           1     -19.066  -9.452  -3.619  0.00  0.00     0.197 C 
HETATM    8  O           1     -18.226  -9.096  -2.765  0.00  0.00    -0.646 OA
HETATM    9  O           1     -18.750 -10.283  -4.499  0.00  0.00    -0.646 OA
ENDBRANCH   6   7
BRANCH   6  10
HETATM   10  C           1     -21.409  -9.883  -2.944  0.00  0.00     0.074 C 
BRANCH  10  11
HETATM   11  C           1     -22.006  -9.284  -1.708  0.00  0.00    -0.056 A 
HETATM   12  C           1     -21.673  -7.983  -1.335  0.00  0.00     0.007 A 
HETATM   13  C           1     -22.229  -7.424  -0.183  0.00  0.00     0.001 A 
HETATM   14  C           1     -23.118  -8.168   0.594  0.00  0.00     0.000 A 
HETATM   15  C           1     -23.449  -9.470   0.219  0.00  0.00     0.001 A 
HETATM   16  C           1     -22.894 -10.028  -0.931  0.00  0.00     0.007 A 
ENDBRANCH  10  11
ENDBRANCH   6  10
ENDBRANCH   3   6
ENDBRANCH   1   2
BRANCH   1  17
HETATM   17  C           1     -20.335  -5.053  -6.011  0.00  0.00     0.081 C 
BRANCH  17  18
HETATM   18  C           1     -20.862  -4.587  -7.333  0.00  0.00    -0.056 A 
HETATM   19  C           1     -20.058  -4.664  -8.470  0.00  0.00     0.010 A 
HETATM   20  C           1     -20.548  -4.231  -9.702  0.00  0.00     0.038 A 
HETATM   21  C           1     -21.843  -3.720  -9.796  0.00  0.00     0.081 A 
HETATM   22  C           1     -22.647  -3.643  -8.658  0.00  0.00     0.038 A 
HETATM   23  C           1     -22.156  -4.077  -7.427  0.00  0.00     0.010 A 
BRANCH  21  24
HETATM   24  O           1     -22.320  -3.298 -10.992  0.00  0.00    -0.247 OA
BRANCH  24  25
HETATM   25  P           1     -23.671  -3.981 -11.554  0.00  0.00     0.411 P 
HETATM   26  O           1     -23.800  -5.347 -11.001  0.00  0.00    -0.624 OA
HETATM   27  O           1     -24.840  -3.170 -11.145  0.00  0.00    -0.624 OA
BRANCH  25  28
HETATM   28  O           1     -23.607  -4.056 -13.166  0.00  0.00    -0.300 OA
HETATM   29  H           1     -24.074  -4.841 -13.392  0.00  0.00     0.223 HD
ENDBRANCH  25  28
ENDBRANCH  24  25
ENDBRANCH  21  24
ENDBRANCH  17  18
ENDBRANCH   1  17
BRANCH   1  30
HETATM   30  N           1     -21.556  -5.935  -4.056  0.00  0.00    -0.066 N 
HETATM   31  H           1     -20.682  -5.894  -3.484  0.00  0.00     0.275 HD
HETATM   32  H           1     -22.065  -5.027  -3.979  0.00  0.00     0.275 HD
HETATM   33  H           1     -22.166  -6.709  -3.705  0.00  0.00     0.275 HD
ENDBRANCH   1  30
TORSDOF 11
ENDMDL
MODEL 3
REMARK VINA RESULT:      -8.6      1.721      2.328
REMARK  11 active torsions:
REMARK  status: ('A' for Active; 'I' for Inactive)
REMARK    1  A    between atoms: C_4  and  C_6 
REMARK    2  A    between atoms: C_6  and  C_7 
REMARK    3  A    between atoms: C_6  and  N_14 
REMARK    4  A    between atoms: C_7  and  C_8 
REMARK       I    between atoms: N_14  and  C_15 
REMARK    5  A    between atoms: C_15  and  C_16 
REMARK    6  A    between atoms: C_16  and  C_17 
REMARK    7  A    between atoms: C_16  and  N_27 
REMARK    8  A    between atoms: C_17  and  C_18 
REMARK    9  A    between atoms: C_21  and  O_22 
REMARK   10  A    between atoms: O_22  and  P_23 
REMARK   11  A    between atoms: P_23  and  O_24 
ROOT
HETATM    1  C           1     -20.421  -5.755  -6.709  0.00  0.00     0.278 C 
ENDROOT
BRANCH   1   2
HETATM    2  C           1     -20.214  -7.152  -6.175  0.00  0.00     0.249 C 
HETATM    3  N           1     -21.293  -7.958  -5.930  0.00  0.00    -0.344 N 
HETATM    4  H           1     -21.650  -8.562  -6.659  0.00  0.00     0.163 HD
HETATM    5  O           1     -19.095  -7.558  -5.966  0.00  0.00    -0.271 OA
BRANCH   3   6
HETATM    6  C           1     -21.925  -7.945  -4.625  0.00  0.00     0.189 C 
BRANCH   6   7
HETATM    7  C           1     -22.392  -6.545  -4.307  0.00  0.00     0.197 C 
HETATM    8  O           1     -21.815  -5.879  -3.421  0.00  0.00    -0.646 OA
HETATM    9  O           1     -23.357  -6.052  -4.931  0.00  0.00    -0.646 OA
ENDBRANCH   6   7
BRANCH   6  10
HETATM   10  C           1     -20.924  -8.398  -3.571  0.00  0.00     0.074 C 
BRANCH  10  11
HETATM   11  C           1     -21.647  -9.101  -2.464  0.00  0.00    -0.056 A 
HETATM   12  C           1     -21.743  -8.505  -1.207  0.00  0.00     0.007 A 
HETATM   13  C           1     -22.417  -9.161  -0.175  0.00  0.00     0.001 A 
HETATM   14  C           1     -22.993 -10.410  -0.401  0.00  0.00     0.000 A 
HETATM   15  C           1     -22.895 -11.005  -1.659  0.00  0.00     0.001 A 
HETATM   16  C           1     -22.222 -10.351  -2.691  0.00  0.00     0.007 A 
ENDBRANCH  10  11
ENDBRANCH   6  10
ENDBRANCH   3   6
ENDBRANCH   1   2
BRANCH   1  17
HETATM   17  C           1     -19.619  -5.577  -7.991  0.00  0.00     0.081 C 
BRANCH  17  18
HETATM   18  C           1     -20.427  -4.794  -8.980  0.00  0.00    -0.056 A 
HETATM   19  C           1     -21.675  -4.289  -8.616  0.00  0.00     0.010 A 
HETATM   20  C           1     -22.428  -3.560  -9.536  0.00  0.00     0.038 A 
HETATM   21  C           1     -21.931  -3.334 -10.820  0.00  0.00     0.081 A 
HETATM   22  C           1     -20.682  -3.839 -11.184  0.00  0.00     0.038 A 
HETATM   23  C           1     -19.930  -4.568 -10.263  0.00  0.00     0.010 A 
BRANCH  21  24
HETATM   24  O           1     -22.662  -2.626 -11.714  0.00  0.00    -0.247 OA
BRANCH  24  25
HETATM   25  P           1     -24.011  -3.299 -12.293  0.00  0.00     0.411 P 
HETATM   26  O           1     -25.095  -3.169 -11.294  0.00  0.00    -0.624 OA
HETATM   27  O           1     -24.408  -2.613 -13.543  0.00  0.00    -0.624 OA
BRANCH  25  28
HETATM   28  O           1     -23.746  -4.863 -12.598  0.00  0.00    -0.300 OA
HETATM   29  H           1     -23.407  -5.214 -11.794  0.00  0.00     0.223 HD
ENDBRANCH  25  28
ENDBRANCH  24  25
ENDBRANCH  21  24
ENDBRANCH  17  18
ENDBRANCH   1  17
BRANCH   1  30
HETATM   30  N           1     -19.959  -4.758  -5.688  0.00  0.00    -0.066 N 
HETATM   31  H           1     -19.055  -5.078  -5.272  0.00  0.00     0.275 HD
HETATM   32  H           1     -19.821  -3.829  -6.146  0.00  0.00     0.275 HD
HETATM   33  H           1     -20.678  -4.673  -4.934  0.00  0.00     0.275 HD
ENDBRANCH   1  30
TORSDOF 11
ENDMDL
MODEL 4
REMARK VINA RESULT:      -8.3      2.242      3.780
REMARK  11 active torsions:
REMARK  status: ('A' for Active; 'I' for Inactive)
REMARK    1  A    between atoms: C_4  and  C_6 
REMARK    2  A    between atoms: C_6  and  C_7 
REMARK    3  A    between atoms: C_6  and  N_14 
REMARK    4  A    between atoms: C_7  and  C_8 
REMARK       I    between atoms: N_14  and  C_15 
REMARK    5  A    between atoms: C_15  and  C_16 
REMARK    6  A    between atoms: C_16  and  C_17 
REMARK    7  A    between atoms: C_16  and  N_27 
REMARK    8  A    between atoms: C_17  and  C_18 
REMARK    9  A    between atoms: C_21  and  O_22 
REMARK   10  A    between atoms: O_22  and  P_23 
REMARK   11  A    between atoms: P_23  and  O_24 
ROOT
HETATM    1  C           1     -20.541  -6.347  -5.503  0.00  0.00     0.278 C 
ENDROOT
BRANCH   1   2
HETATM    2  C           1     -21.628  -6.278  -4.458  0.00  0.00     0.249 C 
HETATM    3  N           1     -21.320  -6.465  -3.137  0.00  0.00    -0.344 N 
HETATM    4  H           1     -21.066  -5.674  -2.559  0.00  0.00     0.163 HD
HETATM    5  O           1     -22.769  -6.057  -4.787  0.00  0.00    -0.271 OA
BRANCH   3   6
HETATM    6  C           1     -21.358  -7.797  -2.565  0.00  0.00     0.189 C 
BRANCH   6   7
HETATM    7  C           1     -22.099  -7.759  -1.251  0.00  0.00     0.197 C 
HETATM    8  O           1     -22.649  -6.701  -0.874  0.00  0.00    -0.646 OA
HETATM    9  O           1     -22.162  -8.785  -0.540  0.00  0.00    -0.646 OA
ENDBRANCH   6   7
BRANCH   6  10
HETATM   10  C           1     -19.937  -8.291  -2.334  0.00  0.00     0.074 C 
BRANCH  10  11
HETATM   11  C           1     -19.522  -9.172  -3.471  0.00  0.00    -0.056 A 
HETATM   12  C           1     -18.170  -9.329  -3.774  0.00  0.00     0.007 A 
HETATM   13  C           1     -17.783 -10.151  -4.834  0.00  0.00     0.001 A 
HETATM   14  C           1     -18.749 -10.814  -5.591  0.00  0.00     0.000 A 
HETATM   15  C           1     -20.102 -10.655  -5.288  0.00  0.00     0.001 A 
HETATM   16  C           1     -20.488  -9.834  -4.228  0.00  0.00     0.007 A 
ENDBRANCH  10  11
ENDBRANCH   6  10
ENDBRANCH   3   6
ENDBRANCH   1   2
BRANCH   1  17
HETATM   17  C           1     -20.090  -4.937  -5.860  0.00  0.00     0.081 C 
BRANCH  17  18
HETATM   18  C           1     -20.671  -4.549  -7.185  0.00  0.00    -0.056 A 
HETATM   19  C           1     -19.957  -4.794  -8.358  0.00  0.00     0.010 A 
HETATM   20  C           1     -20.497  -4.433  -9.592  0.00  0.00     0.038 A 
HETATM   21  C           1     -21.752  -3.827  -9.653  0.00  0.00     0.081 A 
HETATM   22  C           1     -22.466  -3.582  -8.480  0.00  0.00     0.038 A 
HETATM   23  C           1     -21.925  -3.943  -7.246  0.00  0.00     0.010 A 
BRANCH  21  24
HETATM   24  O           1     -22.277  -3.475 -10.851  0.00  0.00    -0.247 OA
BRANCH  24  25
HETATM   25  P           1     -23.681  -4.141 -11.289  0.00  0.00     0.411 P 
HETATM   26  O           1     -23.874  -5.412 -10.557  0.00  0.00    -0.624 OA
HETATM   27  O           1     -24.789  -3.214 -10.969  0.00  0.00    -0.624 OA
BRANCH  25  28
HETATM   28  O           1     -23.667  -4.433 -12.878  0.00  0.00    -0.300 OA
HETATM   29  H           1     -23.990  -3.643 -13.274  0.00  0.00     0.223 HD
ENDBRANCH  25  28
ENDBRANCH  24  25
ENDBRANCH  21  24
ENDBRANCH  17  18
ENDBRANCH   1  17
BRANCH   1  30
HETATM   30  N           1     -21.072  -7.028  -6.730  0.00  0.00    -0.066 N 
HETATM   31  H           1     -20.376  -6.942  -7.505  0.00  0.00     0.275 HD
HETATM   32  H           1     -21.240  -8.038  -6.522  0.00  0.00     0.275 HD
HETATM   33  H           1     -21.970  -6.576  -7.017  0.00  0.00     0.275 HD
ENDBRANCH   1  30
TORSDOF 11
ENDMDL
MODEL 5
REMARK VINA RESULT:      -8.0      1.523      2.213
REMARK  11 active torsions:
REMARK  status: ('A' for Active; 'I' for Inactive)
REMARK    1  A    between atoms: C_4  and  C_6 
REMARK    2  A    between atoms: C_6  and  C_7 
REMARK    3  A    between atoms: C_6  and  N_14 
REMARK    4  A    between atoms: C_7  and  C_8 
REMARK       I    between atoms: N_14  and  C_15 
REMARK    5  A    between atoms: C_15  and  C_16 
REMARK    6  A    between atoms: C_16  and  C_17 
REMARK    7  A    between atoms: C_16  and  N_27 
REMARK    8  A    between atoms: C_17  and  C_18 
REMARK    9  A    between atoms: C_21  and  O_22 
REMARK   10  A    between atoms: O_22  and  P_23 
REMARK   11  A    between atoms: P_23  and  O_24 
ROOT
HETATM    1  C           1     -20.328  -6.392  -5.969  0.00  0.00     0.278 C 
ENDROOT
BRANCH   1   2
HETATM    2  C           1     -20.766  -6.666  -4.550  0.00  0.00     0.249 C 
HETATM    3  N           1     -19.998  -7.455  -3.737  0.00  0.00    -0.344 N 
HETATM    4  H           1     -19.274  -7.040  -3.165  0.00  0.00     0.163 HD
HETATM    5  O           1     -21.794  -6.187  -4.132  0.00  0.00    -0.271 OA
BRANCH   3   6
HETATM    6  C           1     -20.221  -8.888  -3.697  0.00  0.00     0.189 C 
BRANCH   6   7
HETATM    7  C           1     -20.118  -9.451  -5.093  0.00  0.00     0.197 C 
HETATM    8  O           1     -18.999  -9.583  -5.634  0.00  0.00    -0.646 OA
HETATM    9  O           1     -21.153  -9.786  -5.709  0.00  0.00    -0.646 OA
ENDBRANCH   6   7
BRANCH   6  10
HETATM   10  C           1     -21.608  -9.169  -3.136  0.00  0.00     0.074 C 
BRANCH  10  11
HETATM   11  C           1     -21.588  -9.001  -1.647  0.00  0.00    -0.056 A 
HETATM   12  C           1     -20.975  -9.963  -0.846  0.00  0.00     0.007 A 
HETATM   13  C           1     -20.957  -9.807   0.541  0.00  0.00     0.001 A 
HETATM   14  C           1     -21.552  -8.689   1.124  0.00  0.00     0.000 A 
HETATM   15  C           1     -22.166  -7.727   0.322  0.00  0.00     0.001 A 
HETATM   16  C           1     -22.184  -7.883  -1.064  0.00  0.00     0.007 A 
ENDBRANCH  10  11
ENDBRANCH   6  10
ENDBRANCH   3   6
ENDBRANCH   1   2
BRANCH   1  17
HETATM   17  C           1     -20.118  -4.895  -6.155  0.00  0.00     0.081 C 
BRANCH  17  18
HETATM   18  C           1     -20.713  -4.467  -7.461  0.00  0.00    -0.056 A 
HETATM   19  C           1     -21.994  -3.916  -7.496  0.00  0.00     0.010 A 
HETATM   20  C           1     -22.548  -3.516  -8.711  0.00  0.00     0.038 A 
HETATM   21  C           1     -21.821  -3.667  -9.893  0.00  0.00     0.081 A 
HETATM   22  C           1     -20.540  -4.218  -9.858  0.00  0.00     0.038 A 
HETATM   23  C           1     -19.986  -4.618  -8.641  0.00  0.00     0.010 A 
BRANCH  21  24
HETATM   24  O           1     -22.360  -3.280 -11.074  0.00  0.00    -0.247 OA
BRANCH  24  25
HETATM   25  P           1     -23.719  -4.003 -11.561  0.00  0.00     0.411 P 
HETATM   26  O           1     -23.821  -5.338 -10.931  0.00  0.00    -0.624 OA
HETATM   27  O           1     -24.884  -3.180 -11.166  0.00  0.00    -0.624 OA
BRANCH  25  28
HETATM   28  O           1     -23.697  -4.167 -13.167  0.00  0.00    -0.300 OA
HETATM   29  H           1     -24.128  -4.987 -13.335  0.00  0.00     0.223 HD
ENDBRANCH  25  28
ENDBRANCH  24  25
ENDBRANCH  21  24
ENDBRANCH  17  18
ENDBRANCH   1  17
BRANCH   1  30
HETATM   30  N           1     -21.388  -6.870  -6.918  0.00  0.00    -0.066 N 
HETATM   31  H           1     -21.044  -7.715  -7.427  0.00  0.00     0.275 HD
HETATM   32  H           1     -22.251  -7.112  -6.383  0.00  0.00     0.275 HD
HETATM   33  H           1     -21.604  -6.113  -7.607  0.00  0.00     0.275 HD
ENDBRANCH   1  30
TORSDOF 11
ENDMDL
MODEL 6
REMARK VINA RESULT:      -7.7      6.086      8.158
REMARK  11 active torsions:
REMARK  status: ('A' for Active; 'I' for Inactive)
REMARK    1  A    between atoms: C_4  and  C_6 
REMARK    2  A    between atoms: C_6  and  C_7 
REMARK    3  A    between atoms: C_6  and  N_14 
REMARK    4  A    between atoms: C_7  and  C_8 
REMARK       I    between atoms: N_14  and  C_15 
REMARK    5  A    between atoms: C_15  and  C_16 
REMARK    6  A    between atoms: C_16  and  C_17 
REMARK    7  A    between atoms: C_16  and  N_27 
REMARK    8  A    between atoms: C_17  and  C_18 
REMARK    9  A    between atoms: C_21  and  O_22 
REMARK   10  A    between atoms: O_22  and  P_23 
REMARK   11  A    between atoms: P_23  and  O_24 
ROOT
HETATM    1  C           1     -18.772 -12.324  -1.017  0.00  0.00     0.278 C 
ENDROOT
BRANCH   1   2
HETATM    2  C           1     -19.377 -13.395  -0.142  0.00  0.00     0.249 C 
HETATM    3  N           1     -20.733 -13.584  -0.129  0.00  0.00    -0.344 N 
HETATM    4  H           1     -21.161 -14.230  -0.780  0.00  0.00     0.163 HD
HETATM    5  O           1     -18.664 -14.087   0.546  0.00  0.00    -0.271 OA
BRANCH   3   6
HETATM    6  C           1     -21.557 -12.857   0.817  0.00  0.00     0.189 C 
BRANCH   6   7
HETATM    7  C           1     -22.247 -13.835   1.737  0.00  0.00     0.197 C 
HETATM    8  O           1     -21.625 -14.824   2.178  0.00  0.00    -0.646 OA
HETATM    9  O           1     -23.442 -13.654   2.056  0.00  0.00    -0.646 OA
ENDBRANCH   6   7
BRANCH   6  10
HETATM   10  C           1     -22.600 -12.044   0.063  0.00  0.00     0.074 C 
BRANCH  10  11
HETATM   11  C           1     -22.369 -10.585   0.308  0.00  0.00    -0.056 A 
HETATM   12  C           1     -23.353  -9.657  -0.035  0.00  0.00     0.007 A 
HETATM   13  C           1     -23.138  -8.297   0.193  0.00  0.00     0.001 A 
HETATM   14  C           1     -21.940  -7.866   0.763  0.00  0.00     0.000 A 
HETATM   15  C           1     -20.957  -8.795   1.105  0.00  0.00     0.001 A 
HETATM   16  C           1     -21.171 -10.154   0.877  0.00  0.00     0.007 A 
ENDBRANCH  10  11
ENDBRANCH   6  10
ENDBRANCH   3   6
ENDBRANCH   1   2
BRANCH   1  17
HETATM   17  C           1     -19.463 -12.327  -2.374  0.00  0.00     0.081 C 
BRANCH  17  18
HETATM   18  C           1     -20.093 -10.991  -2.616  0.00  0.00    -0.056 A 
HETATM   19  C           1     -21.367 -10.912  -3.179  0.00  0.00     0.010 A 
HETATM   20  C           1     -21.955  -9.668  -3.404  0.00  0.00     0.038 A 
HETATM   21  C           1     -21.268  -8.501  -3.066  0.00  0.00     0.081 A 
HETATM   22  C           1     -19.994  -8.580  -2.503  0.00  0.00     0.038 A 
HETATM   23  C           1     -19.407  -9.825  -2.278  0.00  0.00     0.010 A 
BRANCH  21  24
HETATM   24  O           1     -21.839  -7.292  -3.286  0.00  0.00    -0.247 OA
BRANCH  24  25
HETATM   25  P           1     -21.675  -6.631  -4.750  0.00  0.00     0.411 P 
HETATM   26  O           1     -22.988  -6.134  -5.216  0.00  0.00    -0.624 OA
HETATM   27  O           1     -20.717  -5.505  -4.679  0.00  0.00    -0.624 OA
BRANCH  25  28
HETATM   28  O           1     -21.123  -7.742  -5.785  0.00  0.00    -0.300 OA
HETATM   29  H           1     -21.505  -8.553  -5.498  0.00  0.00     0.223 HD
ENDBRANCH  25  28
ENDBRANCH  24  25
ENDBRANCH  21  24
ENDBRANCH  17  18
ENDBRANCH   1  17
BRANCH   1  30
HETATM   30  N           1     -17.309 -12.598  -1.200  0.00  0.00    -0.066 N 
HETATM   31  H           1     -17.179 -13.566  -1.571  0.00  0.00     0.275 HD
HETATM   32  H           1     -16.908 -11.909  -1.875  0.00  0.00     0.275 HD
HETATM   33  H           1     -16.821 -12.509  -0.279  0.00  0.00     0.275 HD
ENDBRANCH   1  30
TORSDOF 11
ENDMDL
MODEL 7
REMARK VINA RESULT:      -7.5      4.137      6.068
REMARK  11 active torsions:
REMARK  status: ('A' for Active; 'I' for Inactive)
REMARK    1  A    between atoms: C_4  and  C_6 
REMARK    2  A    between atoms: C_6  and  C_7 
REMARK    3  A    between atoms: C_6  and  N_14 
REMARK    4  A    between atoms: C_7  and  C_8 
REMARK       I    between atoms: N_14  and  C_15 
REMARK    5  A    between atoms: C_15  and  C_16 
REMARK    6  A    between atoms: C_16  and  C_17 
REMARK    7  A    between atoms: C_16  and  N_27 
REMARK    8  A    between atoms: C_17  and  C_18 
REMARK    9  A    between atoms: C_21  and  O_22 
REMARK   10  A    between atoms: O_22  and  P_23 
REMARK   11  A    between atoms: P_23  and  O_24 
ROOT
HETATM    1  C           1     -20.039 -10.678  -3.372  0.00  0.00     0.278 C 
ENDROOT
BRANCH   1   2
HETATM    2  C           1     -19.026 -11.600  -2.737  0.00  0.00     0.249 C 
HETATM    3  N           1     -19.388 -12.387  -1.676  0.00  0.00    -0.344 N 
HETATM    4  H           1     -19.756 -13.316  -1.838  0.00  0.00     0.163 HD
HETATM    5  O           1     -17.897 -11.644  -3.165  0.00  0.00    -0.271 OA
BRANCH   3   6
HETATM    6  C           1     -19.244 -11.889  -0.322  0.00  0.00     0.189 C 
BRANCH   6   7
HETATM    7  C           1     -18.115 -12.619   0.364  0.00  0.00     0.197 C 
HETATM    8  O           1     -17.060 -12.013   0.650  0.00  0.00    -0.646 OA
HETATM    9  O           1     -18.236 -13.831   0.646  0.00  0.00    -0.646 OA
ENDBRANCH   6   7
BRANCH   6  10
HETATM   10  C           1     -20.539 -12.119   0.444  0.00  0.00     0.074 C 
BRANCH  10  11
HETATM   11  C           1     -21.372 -10.875   0.405  0.00  0.00    -0.056 A 
HETATM   12  C           1     -20.841  -9.667   0.855  0.00  0.00     0.007 A 
HETATM   13  C           1     -21.617  -8.507   0.819  0.00  0.00     0.001 A 
HETATM   14  C           1     -22.922  -8.557   0.331  0.00  0.00     0.000 A 
HETATM   15  C           1     -23.453  -9.766  -0.119  0.00  0.00     0.001 A 
HETATM   16  C           1     -22.678 -10.925  -0.082  0.00  0.00     0.007 A 
ENDBRANCH  10  11
ENDBRANCH   6  10
ENDBRANCH   3   6
ENDBRANCH   1   2
BRANCH   1  17
HETATM   17  C           1     -20.032  -9.339  -2.646  0.00  0.00     0.081 C 
BRANCH  17  18
HETATM   18  C           1     -20.627  -8.288  -3.532  0.00  0.00    -0.056 A 
HETATM   19  C           1     -21.165  -7.129  -2.974  0.00  0.00     0.010 A 
HETATM   20  C           1     -21.719  -6.150  -3.798  0.00  0.00     0.038 A 
HETATM   21  C           1     -21.735  -6.331  -5.182  0.00  0.00     0.081 A 
HETATM   22  C           1     -21.197  -7.491  -5.740  0.00  0.00     0.038 A 
HETATM   23  C           1     -20.643  -8.469  -4.915  0.00  0.00     0.010 A 
BRANCH  21  24
HETATM   24  O           1     -22.274  -5.380  -5.983  0.00  0.00    -0.247 OA
BRANCH  24  25
HETATM   25  P           1     -21.288  -4.578  -6.978  0.00  0.00     0.411 P 
HETATM   26  O           1     -19.936  -4.507  -6.381  0.00  0.00    -0.624 OA
HETATM   27  O           1     -21.217  -5.284  -8.277  0.00  0.00    -0.624 OA
BRANCH  25  28
HETATM   28  O           1     -21.853  -3.083  -7.209  0.00  0.00    -0.300 OA
HETATM   29  H           1     -22.480  -2.950  -6.520  0.00  0.00     0.223 HD
ENDBRANCH  25  28
ENDBRANCH  24  25
ENDBRANCH  21  24
ENDBRANCH  17  18
ENDBRANCH   1  17
BRANCH   1  30
HETATM   30  N           1     -21.404 -11.292  -3.273  0.00  0.00    -0.066 N 
HETATM   31  H           1     -21.965 -10.782  -2.555  0.00  0.00     0.275 HD
HETATM   32  H           1     -21.882 -11.227  -4.199  0.00  0.00     0.275 HD
HETATM   33  H           1     -21.314 -12.296  -2.996  0.00  0.00     0.275 HD
ENDBRANCH   1  30
TORSDOF 11
ENDMDL
MODEL 8
REMARK VINA RESULT:      -7.5      4.416      9.576
REMARK  11 active torsions:
REMARK  status: ('A' for Active; 'I' for Inactive)
REMARK    1  A    between atoms: C_4  and  C_6 
REMARK    2  A    between atoms: C_6  and  C_7 
REMARK    3  A    between atoms: C_6  and  N_14 
REMARK    4  A    between atoms: C_7  and  C_8 
REMARK       I    between atoms: N_14  and  C_15 
REMARK    5  A    between atoms: C_15  and  C_16 
REMARK    6  A    between atoms: C_16  and  C_17 
REMARK    7  A    between atoms: C_16  and  N_27 
REMARK    8  A    between atoms: C_17  and  C_18 
REMARK    9  A    between atoms: C_21  and  O_22 
REMARK   10  A    between atoms: O_22  and  P_23 
REMARK   11  A    between atoms: P_23  and  O_24 
ROOT
HETATM    1  C           1     -21.220  -6.265  -4.079  0.00  0.00     0.278 C 
ENDROOT
BRANCH   1   2
HETATM    2  C           1     -22.172  -6.345  -5.247  0.00  0.00     0.249 C 
HETATM    3  N           1     -21.734  -6.814  -6.457  0.00  0.00    -0.344 N 
HETATM    4  H           1     -21.792  -7.802  -6.668  0.00  0.00     0.163 HD
HETATM    5  O           1     -23.322  -5.997  -5.115  0.00  0.00    -0.271 OA
BRANCH   3   6
HETATM    6  C           1     -21.185  -5.894  -7.435  0.00  0.00     0.189 C 
BRANCH   6   7
HETATM    7  C           1     -19.704  -5.730  -7.194  0.00  0.00     0.197 C 
HETATM    8  O           1     -19.000  -6.727  -6.926  0.00  0.00    -0.646 OA
HETATM    9  O           1     -19.183  -4.595  -7.262  0.00  0.00    -0.646 OA
ENDBRANCH   6   7
BRANCH   6  10
HETATM   10  C           1     -21.875  -4.544  -7.304  0.00  0.00     0.074 C 
BRANCH  10  11
HETATM   11  C           1     -22.444  -4.142  -8.630  0.00  0.00    -0.056 A 
HETATM   12  C           1     -21.602  -3.994  -9.732  0.00  0.00     0.007 A 
HETATM   13  C           1     -22.132  -3.619 -10.968  0.00  0.00     0.001 A 
HETATM   14  C           1     -23.502  -3.394 -11.101  0.00  0.00     0.000 A 
HETATM   15  C           1     -24.343  -3.543  -9.997  0.00  0.00     0.001 A 
HETATM   16  C           1     -23.814  -3.917  -8.762  0.00  0.00     0.007 A 
ENDBRANCH  10  11
ENDBRANCH   6  10
ENDBRANCH   3   6
ENDBRANCH   1   2
BRANCH   1  17
HETATM   17  C           1     -22.013  -6.097  -2.789  0.00  0.00     0.081 C 
BRANCH  17  18
HETATM   18  C           1     -21.740  -7.256  -1.882  0.00  0.00    -0.056 A 
HETATM   19  C           1     -20.819  -8.234  -2.257  0.00  0.00     0.010 A 
HETATM   20  C           1     -20.564  -9.314  -1.413  0.00  0.00     0.038 A 
HETATM   21  C           1     -21.230  -9.416  -0.191  0.00  0.00     0.081 A 
HETATM   22  C           1     -22.151  -8.438   0.185  0.00  0.00     0.038 A 
HETATM   23  C           1     -22.406  -7.358  -0.661  0.00  0.00     0.010 A 
BRANCH  21  24
HETATM   24  O           1     -20.984 -10.465   0.629  0.00  0.00    -0.247 OA
BRANCH  24  25
HETATM   25  P           1     -21.541 -11.917   0.193  0.00  0.00     0.411 P 
HETATM   26  O           1     -21.833 -12.717   1.402  0.00  0.00    -0.624 OA
HETATM   27  O           1     -22.779 -11.752  -0.601  0.00  0.00    -0.624 OA
BRANCH  25  28
HETATM   28  O           1     -20.428 -12.676  -0.698  0.00  0.00    -0.300 OA
HETATM   29  H           1     -20.907 -13.323  -1.187  0.00  0.00     0.223 HD
ENDBRANCH  25  28
ENDBRANCH  24  25
ENDBRANCH  21  24
ENDBRANCH  17  18
ENDBRANCH   1  17
BRANCH   1  30
HETATM   30  N           1     -20.306  -5.089  -4.260  0.00  0.00    -0.066 N 
HETATM   31  H           1     -19.939  -4.786  -3.330  0.00  0.00     0.275 HD
HETATM   32  H           1     -19.509  -5.360  -4.878  0.00  0.00     0.275 HD
HETATM   33  H           1     -20.836  -4.301  -4.699  0.00  0.00     0.275 HD
ENDBRANCH   1  30
TORSDOF 11
ENDMDL
MODEL 9
REMARK VINA RESULT:      -7.5      6.517     10.374
REMARK  11 active torsions:
REMARK  status: ('A' for Active; 'I' for Inactive)
REMARK    1  A    between atoms: C_4  and  C_6 
REMARK    2  A    between atoms: C_6  and  C_7 
REMARK    3  A    between atoms: C_6  and  N_14 
REMARK    4  A    between atoms: C_7  and  C_8 
REMARK       I    between atoms: N_14  and  C_15 
REMARK    5  A    between atoms: C_15  and  C_16 
REMARK    6  A    between atoms: C_16  and  C_17 
REMARK    7  A    between atoms: C_16  and  N_27 
REMARK    8  A    between atoms: C_17  and  C_18 
REMARK    9  A    between atoms: C_21  and  O_22 
REMARK   10  A    between atoms: O_22  and  P_23 
REMARK   11  A    between atoms: P_23  and  O_24 
ROOT
HETATM    1  C           1     -19.656  -9.708  -4.100  0.00  0.00     0.278 C 
ENDROOT
BRANCH   1   2
HETATM    2  C           1     -20.567  -8.507  -4.027  0.00  0.00     0.249 C 
HETATM    3  N           1     -20.655  -7.784  -2.868  0.00  0.00    -0.344 N 
HETATM    4  H           1     -20.032  -7.002  -2.710  0.00  0.00     0.163 HD
HETATM    5  O           1     -21.218  -8.183  -4.993  0.00  0.00    -0.271 OA
BRANCH   3   6
HETATM    6  C           1     -21.642  -8.138  -1.866  0.00  0.00     0.189 C 
BRANCH   6   7
HETATM    7  C           1     -22.336  -6.888  -1.382  0.00  0.00     0.197 C 
HETATM    8  O           1     -22.351  -5.864  -2.097  0.00  0.00    -0.646 OA
HETATM    9  O           1     -22.896  -6.879  -0.264  0.00  0.00    -0.646 OA
ENDBRANCH   6   7
BRANCH   6  10
HETATM   10  C           1     -20.953  -8.824  -0.696  0.00  0.00     0.074 C 
BRANCH  10  11
HETATM   11  C           1     -21.724 -10.049  -0.310  0.00  0.00    -0.056 A 
HETATM   12  C           1     -21.111 -11.050   0.443  0.00  0.00     0.007 A 
HETATM   13  C           1     -21.829 -12.192   0.802  0.00  0.00     0.001 A 
HETATM   14  C           1     -23.160 -12.331   0.408  0.00  0.00     0.000 A 
HETATM   15  C           1     -23.772 -11.329  -0.346  0.00  0.00     0.001 A 
HETATM   16  C           1     -23.055 -10.189  -0.705  0.00  0.00     0.007 A 
ENDBRANCH  10  11
ENDBRANCH   6  10
ENDBRANCH   3   6
ENDBRANCH   1   2
BRANCH   1  17
HETATM   17  C           1     -18.256  -9.311  -3.648  0.00  0.00     0.081 C 
BRANCH  17  18
HETATM   18  C           1     -17.676 -10.404  -2.805  0.00  0.00    -0.056 A 
HETATM   19  C           1     -18.520 -11.270  -2.108  0.00  0.00     0.010 A 
HETATM   20  C           1     -17.980 -12.288  -1.323  0.00  0.00     0.038 A 
HETATM   21  C           1     -16.596 -12.441  -1.235  0.00  0.00     0.081 A 
HETATM   22  C           1     -15.753 -11.576  -1.931  0.00  0.00     0.038 A 
HETATM   23  C           1     -16.293 -10.558  -2.717  0.00  0.00     0.010 A 
BRANCH  21  24
HETATM   24  O           1     -16.072 -13.430  -0.471  0.00  0.00    -0.247 OA
BRANCH  24  25
HETATM   25  P           1     -15.736 -13.098   1.073  0.00  0.00     0.411 P 
HETATM   26  O           1     -16.499 -14.012   1.951  0.00  0.00    -0.624 OA
HETATM   27  O           1     -14.286 -13.278   1.313  0.00  0.00    -0.624 OA
BRANCH  25  28
HETATM   28  O           1     -16.148 -11.571   1.399  0.00  0.00    -0.300 OA
HETATM   29  H           1     -16.733 -11.322   0.704  0.00  0.00     0.223 HD
ENDBRANCH  25  28
ENDBRANCH  24  25
ENDBRANCH  21  24
ENDBRANCH  17  18
ENDBRANCH   1  17
BRANCH   1  30
HETATM   30  N           1     -19.602 -10.208  -5.514  0.00  0.00    -0.066 N 
HETATM   31  H           1     -20.553 -10.148  -5.941  0.00  0.00     0.275 HD
HETATM   32  H           1     -18.936  -9.622  -6.064  0.00  0.00     0.275 HD
HETATM   33  H           1     -19.279 -11.202  -5.519  0.00  0.00     0.275 HD
ENDBRANCH   1  30
TORSDOF 11
ENDMDL
