MODEL 1
REMARK VINA RESULT:      -4.9      0.000      0.000
REMARK  8 active torsions:
REMARK  status: ('A' for Active; 'I' for Inactive)
REMARK    1  A    between atoms: S_5  and  C_6 
REMARK    2  A    between atoms: C_6  and  C_7 
REMARK    3  A    between atoms: C_7  and  C_8 
REMARK    4  A    between atoms: C_7  and  N_11 
REMARK       I    between atoms: N_11  and  C_12 
REMARK    5  A    between atoms: C_12  and  C_13 
REMARK    6  A    between atoms: C_13  and  C_14 
REMARK    7  A    between atoms: C_13  and  N_16 
REMARK    8  A    between atoms: C_14  and  Se_15 
ROOT
HETATM    1  H           1     -22.217  -5.842  -9.173  0.00  0.00     0.163 HD
HETATM    2  N           1     -22.170  -4.881  -8.860  0.00  0.00    -0.344 N 
HETATM    3  C           1     -21.632  -4.585  -7.636  0.00  0.00     0.249 C 
HETATM    4  O           1     -21.576  -3.437  -7.262  0.00  0.00    -0.271 OA
ENDROOT
BRANCH   3   5
HETATM    5  C           1     -21.109  -5.692  -6.754  0.00  0.00     0.274 C 
BRANCH   5   6
HETATM    6  C           1     -20.706  -5.118  -5.403  0.00  0.00     0.045 C 
BRANCH   6   7
HETATM    7 Se           1     -21.398  -6.255  -3.979  0.00  0.00     0.000 Se
HETATM    8  H           1     -20.391  -7.311  -4.175  0.00  0.00     0.000 HD
ENDBRANCH   6   7
ENDBRANCH   5   6
BRANCH   5   9
HETATM    9  N           1     -19.915  -6.326  -7.404  0.00  0.00    -0.067 N 
HETATM   10  H           1     -19.806  -5.952  -8.374  0.00  0.00     0.275 HD
HETATM   11  H           1     -19.058  -6.105  -6.848  0.00  0.00     0.275 HD
HETATM   12  H           1     -20.048  -7.362  -7.443  0.00  0.00     0.275 HD
ENDBRANCH   5   9
ENDBRANCH   3   5
BRANCH   2  13
HETATM   13  C           1     -22.672  -3.817  -9.708  0.00  0.00     0.194 C 
BRANCH  13  14
HETATM   14  C           1     -22.153  -4.011 -11.126  0.00  0.00     0.106 C 
BRANCH  14  15
HETATM   15  S           1     -22.851  -2.732 -12.207  0.00  0.00    -0.180 SA
HETATM   16  H           1     -23.710  -3.544 -12.850  0.00  0.00     0.101 HD
ENDBRANCH  14  15
ENDBRANCH  13  14
BRANCH  13  17
HETATM   17  C           1     -24.181  -3.851  -9.715  0.00  0.00     0.197 C 
HETATM   18  O           1     -24.831  -2.820  -9.441  0.00  0.00    -0.646 OA
HETATM   19  O           1     -24.780  -4.912  -9.994  0.00  0.00    -0.646 OA
ENDBRANCH  13  17
ENDBRANCH   2  13
TORSDOF 8
ENDMDL
MODEL 2
REMARK VINA RESULT:      -4.5      1.836      5.496
REMARK  8 active torsions:
REMARK  status: ('A' for Active; 'I' for Inactive)
REMARK    1  A    between atoms: S_5  and  C_6 
REMARK    2  A    between atoms: C_6  and  C_7 
REMARK    3  A    between atoms: C_7  and  C_8 
REMARK    4  A    between atoms: C_7  and  N_11 
REMARK       I    between atoms: N_11  and  C_12 
REMARK    5  A    between atoms: C_12  and  C_13 
REMARK    6  A    between atoms: C_13  and  C_14 
REMARK    7  A    between atoms: C_13  and  N_16 
REMARK    8  A    between atoms: C_14  and  Se_15 
ROOT
HETATM    1  H           1     -20.437  -3.861  -9.799  0.00  0.00     0.163 HD
HETATM    2  N           1     -21.346  -4.231  -9.551  0.00  0.00    -0.344 N 
HETATM    3  C           1     -22.430  -3.971 -10.345  0.00  0.00     0.249 C 
HETATM    4  O           1     -23.516  -4.412 -10.049  0.00  0.00    -0.271 OA
ENDROOT
BRANCH   3   5
HETATM    5  C           1     -22.270  -3.135 -11.591  0.00  0.00     0.274 C 
BRANCH   5   6
HETATM    6  C           1     -23.611  -3.024 -12.305  0.00  0.00     0.045 C 
BRANCH   6   7
HETATM    7 Se           1     -23.313  -2.659 -14.196  0.00  0.00     0.000 Se
HETATM    8  H           1     -22.043  -3.400 -14.259  0.00  0.00     0.000 HD
ENDBRANCH   6   7
ENDBRANCH   5   6
BRANCH   5   9
HETATM    9  N           1     -21.271  -3.784 -12.503  0.00  0.00    -0.067 N 
HETATM   10  H           1     -20.497  -4.196 -11.935  0.00  0.00     0.275 HD
HETATM   11  H           1     -21.740  -4.539 -13.051  0.00  0.00     0.275 HD
HETATM   12  H           1     -20.880  -3.068 -13.156  0.00  0.00     0.275 HD
ENDBRANCH   5   9
ENDBRANCH   3   5
BRANCH   2  13
HETATM   13  C           1     -21.499  -5.035  -8.354  0.00  0.00     0.194 C 
BRANCH  13  14
HETATM   14  C           1     -20.138  -5.557  -7.916  0.00  0.00     0.106 C 
BRANCH  14  15
HETATM   15  S           1     -20.294  -6.379  -6.305  0.00  0.00    -0.180 SA
HETATM   16  H           1     -21.347  -5.658  -5.880  0.00  0.00     0.101 HD
ENDBRANCH  14  15
ENDBRANCH  13  14
BRANCH  13  17
HETATM   17  C           1     -22.093  -4.189  -7.254  0.00  0.00     0.197 C 
HETATM   18  O           1     -23.151  -4.544  -6.694  0.00  0.00    -0.646 OA
HETATM   19  O           1     -21.524  -3.132  -6.904  0.00  0.00    -0.646 OA
ENDBRANCH  13  17
ENDBRANCH   2  13
TORSDOF 8
ENDMDL
MODEL 3
REMARK VINA RESULT:      -4.4     10.560     12.059
REMARK  8 active torsions:
REMARK  status: ('A' for Active; 'I' for Inactive)
REMARK    1  A    between atoms: S_5  and  C_6 
REMARK    2  A    between atoms: C_6  and  C_7 
REMARK    3  A    between atoms: C_7  and  C_8 
REMARK    4  A    between atoms: C_7  and  N_11 
REMARK       I    between atoms: N_11  and  C_12 
REMARK    5  A    between atoms: C_12  and  C_13 
REMARK    6  A    between atoms: C_13  and  C_14 
REMARK    7  A    between atoms: C_13  and  N_16 
REMARK    8  A    between atoms: C_14  and  Se_15 
ROOT
HETATM    1  H           1     -26.165  -7.171 -17.356  0.00  0.00     0.163 HD
HETATM    2  N           1     -26.885  -6.738 -17.919  0.00  0.00    -0.344 N 
HETATM    3  C           1     -26.653  -6.471 -19.242  0.00  0.00     0.249 C 
HETATM    4  O           1     -27.513  -5.953 -19.914  0.00  0.00    -0.271 OA
ENDROOT
BRANCH   3   5
HETATM    5  C           1     -25.322  -6.824 -19.860  0.00  0.00     0.274 C 
BRANCH   5   6
HETATM    6  C           1     -25.533  -7.846 -20.970  0.00  0.00     0.045 C 
BRANCH   6   7
HETATM    7 Se           1     -23.987  -7.845 -22.157  0.00  0.00     0.000 Se
HETATM    8  H           1     -23.062  -8.375 -21.144  0.00  0.00     0.000 HD
ENDBRANCH   6   7
ENDBRANCH   5   6
BRANCH   5   9
HETATM    9  N           1     -24.423  -7.406 -18.810  0.00  0.00    -0.067 N 
HETATM   10  H           1     -24.599  -8.434 -18.731  0.00  0.00     0.275 HD
HETATM   11  H           1     -23.426  -7.244 -19.077  0.00  0.00     0.275 HD
HETATM   12  H           1     -24.618  -6.949 -17.891  0.00  0.00     0.275 HD
ENDBRANCH   5   9
ENDBRANCH   3   5
BRANCH   2  13
HETATM   13  C           1     -28.164  -6.399 -17.324  0.00  0.00     0.194 C 
BRANCH  13  14
HETATM   14  C           1     -29.222  -7.385 -17.801  0.00  0.00     0.106 C 
BRANCH  14  15
HETATM   15  S           1     -30.873  -6.713 -17.459  0.00  0.00    -0.180 SA
HETATM   16  H           1     -30.986  -6.025 -18.610  0.00  0.00     0.101 HD
ENDBRANCH  14  15
ENDBRANCH  13  14
BRANCH  13  17
HETATM   17  C           1     -28.051  -6.467 -15.821  0.00  0.00     0.197 C 
HETATM   18  O           1     -28.526  -5.551 -15.116  0.00  0.00    -0.646 OA
HETATM   19  O           1     -27.482  -7.441 -15.281  0.00  0.00    -0.646 OA
ENDBRANCH  13  17
ENDBRANCH   2  13
TORSDOF 8
ENDMDL
MODEL 4
REMARK VINA RESULT:      -4.3      1.950      5.518
REMARK  8 active torsions:
REMARK  status: ('A' for Active; 'I' for Inactive)
REMARK    1  A    between atoms: S_5  and  C_6 
REMARK    2  A    between atoms: C_6  and  C_7 
REMARK    3  A    between atoms: C_7  and  C_8 
REMARK    4  A    between atoms: C_7  and  N_11 
REMARK       I    between atoms: N_11  and  C_12 
REMARK    5  A    between atoms: C_12  and  C_13 
REMARK    6  A    between atoms: C_13  and  C_14 
REMARK    7  A    between atoms: C_13  and  N_16 
REMARK    8  A    between atoms: C_14  and  Se_15 
ROOT
HETATM    1  H           1     -22.693  -5.668  -6.781  0.00  0.00     0.163 HD
HETATM    2  N           1     -22.063  -4.937  -7.087  0.00  0.00    -0.344 N 
HETATM    3  C           1     -22.372  -4.183  -8.186  0.00  0.00     0.249 C 
HETATM    4  O           1     -21.620  -3.311  -8.552  0.00  0.00    -0.271 OA
ENDROOT
BRANCH   3   5
HETATM    5  C           1     -23.652  -4.441  -8.943  0.00  0.00     0.274 C 
BRANCH   5   6
HETATM    6  C           1     -23.328  -4.765 -10.395  0.00  0.00     0.045 C 
BRANCH   6   7
HETATM    7 Se           1     -23.982  -3.332 -11.543  0.00  0.00     0.000 Se
HETATM    8  H           1     -23.053  -2.323 -11.009  0.00  0.00     0.000 HD
ENDBRANCH   6   7
ENDBRANCH   5   6
BRANCH   5   9
HETATM    9  N           1     -24.521  -3.220  -8.886  0.00  0.00    -0.067 N 
HETATM   10  H           1     -24.145  -2.557  -8.170  0.00  0.00     0.275 HD
HETATM   11  H           1     -24.528  -2.753  -9.821  0.00  0.00     0.275 HD
HETATM   12  H           1     -25.495  -3.496  -8.626  0.00  0.00     0.275 HD
ENDBRANCH   5   9
ENDBRANCH   3   5
BRANCH   2  13
HETATM   13  C           1     -20.833  -4.690  -6.359  0.00  0.00     0.194 C 
BRANCH  13  14
HETATM   14  C           1     -20.903  -5.370  -4.999  0.00  0.00     0.106 C 
BRANCH  14  15
HETATM   15  S           1     -22.210  -6.629  -5.018  0.00  0.00    -0.180 SA
HETATM   16  H           1     -23.230  -5.777  -4.809  0.00  0.00     0.101 HD
ENDBRANCH  14  15
ENDBRANCH  13  14
BRANCH  13  17
HETATM   17  C           1     -19.668  -5.244  -7.142  0.00  0.00     0.197 C 
HETATM   18  O           1     -19.666  -6.441  -7.497  0.00  0.00    -0.646 OA
HETATM   19  O           1     -18.703  -4.503  -7.433  0.00  0.00    -0.646 OA
ENDBRANCH  13  17
ENDBRANCH   2  13
TORSDOF 8
ENDMDL
MODEL 5
REMARK VINA RESULT:      -4.2      2.454      5.367
REMARK  8 active torsions:
REMARK  status: ('A' for Active; 'I' for Inactive)
REMARK    1  A    between atoms: S_5  and  C_6 
REMARK    2  A    between atoms: C_6  and  C_7 
REMARK    3  A    between atoms: C_7  and  C_8 
REMARK    4  A    between atoms: C_7  and  N_11 
REMARK       I    between atoms: N_11  and  C_12 
REMARK    5  A    between atoms: C_12  and  C_13 
REMARK    6  A    between atoms: C_13  and  C_14 
REMARK    7  A    between atoms: C_13  and  N_16 
REMARK    8  A    between atoms: C_14  and  Se_15 
ROOT
HETATM    1  H           1     -23.387  -4.650  -7.635  0.00  0.00     0.163 HD
HETATM    2  N           1     -22.545  -4.760  -8.186  0.00  0.00    -0.344 N 
HETATM    3  C           1     -22.555  -4.450  -9.520  0.00  0.00     0.249 C 
HETATM    4  O           1     -21.550  -4.583 -10.178  0.00  0.00    -0.271 OA
ENDROOT
BRANCH   3   5
HETATM    5  C           1     -23.820  -3.944 -10.167  0.00  0.00     0.274 C 
BRANCH   5   6
HETATM    6  C           1     -23.467  -2.926 -11.244  0.00  0.00     0.045 C 
BRANCH   6   7
HETATM    7 Se           1     -24.037  -3.594 -12.984  0.00  0.00     0.000 Se
HETATM    8  H           1     -23.301  -2.573 -13.747  0.00  0.00     0.000 HD
ENDBRANCH   6   7
ENDBRANCH   5   6
BRANCH   5   9
HETATM    9  N           1     -24.686  -3.294  -9.130  0.00  0.00    -0.067 N 
HETATM   10  H           1     -24.932  -2.326  -9.438  0.00  0.00     0.275 HD
HETATM   11  H           1     -25.561  -3.852  -9.007  0.00  0.00     0.275 HD
HETATM   12  H           1     -24.169  -3.250  -8.223  0.00  0.00     0.275 HD
ENDBRANCH   5   9
ENDBRANCH   3   5
BRANCH   2  13
HETATM   13  C           1     -21.330  -5.247  -7.563  0.00  0.00     0.194 C 
BRANCH  13  14
HETATM   14  C           1     -20.517  -4.068  -7.048  0.00  0.00     0.106 C 
BRANCH  14  15
HETATM   15  S           1     -18.764  -4.321  -7.445  0.00  0.00    -0.180 SA
HETATM   16  H           1     -18.564  -5.321  -6.568  0.00  0.00     0.101 HD
ENDBRANCH  14  15
ENDBRANCH  13  14
BRANCH  13  17
HETATM   17  C           1     -21.686  -6.156  -6.411  0.00  0.00     0.197 C 
HETATM   18  O           1     -21.158  -7.285  -6.320  0.00  0.00    -0.646 OA
HETATM   19  O           1     -22.509  -5.778  -5.549  0.00  0.00    -0.646 OA
ENDBRANCH  13  17
ENDBRANCH   2  13
TORSDOF 8
ENDMDL
MODEL 6
REMARK VINA RESULT:      -4.2      3.722      4.802
REMARK  8 active torsions:
REMARK  status: ('A' for Active; 'I' for Inactive)
REMARK    1  A    between atoms: S_5  and  C_6 
REMARK    2  A    between atoms: C_6  and  C_7 
REMARK    3  A    between atoms: C_7  and  C_8 
REMARK    4  A    between atoms: C_7  and  N_11 
REMARK       I    between atoms: N_11  and  C_12 
REMARK    5  A    between atoms: C_12  and  C_13 
REMARK    6  A    between atoms: C_13  and  C_14 
REMARK    7  A    between atoms: C_13  and  N_16 
REMARK    8  A    between atoms: C_14  and  Se_15 
ROOT
HETATM    1  H           1     -20.550  -4.682  -4.594  0.00  0.00     0.163 HD
HETATM    2  N           1     -21.013  -5.442  -5.075  0.00  0.00    -0.344 N 
HETATM    3  C           1     -21.487  -6.513  -4.365  0.00  0.00     0.249 C 
HETATM    4  O           1     -22.039  -7.421  -4.939  0.00  0.00    -0.271 OA
ENDROOT
BRANCH   3   5
HETATM    5  C           1     -21.319  -6.558  -2.866  0.00  0.00     0.274 C 
BRANCH   5   6
HETATM    6  C           1     -21.235  -8.008  -2.408  0.00  0.00     0.045 C 
BRANCH   6   7
HETATM    7 Se           1     -21.660  -8.117  -0.509  0.00  0.00     0.000 Se
HETATM    8  H           1     -20.412  -8.808  -0.150  0.00  0.00     0.000 HD
ENDBRANCH   6   7
ENDBRANCH   5   6
BRANCH   5   9
HETATM    9  N           1     -22.494  -5.895  -2.212  0.00  0.00    -0.067 N 
HETATM   10  H           1     -22.164  -5.077  -1.651  0.00  0.00     0.275 HD
HETATM   11  H           1     -23.161  -5.566  -2.945  0.00  0.00     0.275 HD
HETATM   12  H           1     -22.973  -6.577  -1.582  0.00  0.00     0.275 HD
ENDBRANCH   5   9
ENDBRANCH   3   5
BRANCH   2  13
HETATM   13  C           1     -21.175  -5.397  -6.515  0.00  0.00     0.194 C 
BRANCH  13  14
HETATM   14  C           1     -21.677  -4.021  -6.927  0.00  0.00     0.106 C 
BRANCH  14  15
HETATM   15  S           1     -22.746  -4.177  -8.385  0.00  0.00    -0.180 SA
HETATM   16  H           1     -22.192  -3.163  -9.075  0.00  0.00     0.101 HD
ENDBRANCH  14  15
ENDBRANCH  13  14
BRANCH  13  17
HETATM   17  C           1     -19.846  -5.668  -7.178  0.00  0.00     0.197 C 
HETATM   18  O           1     -19.360  -6.819  -7.157  0.00  0.00    -0.646 OA
HETATM   19  O           1     -19.231  -4.740  -7.747  0.00  0.00    -0.646 OA
ENDBRANCH  13  17
ENDBRANCH   2  13
TORSDOF 8
ENDMDL
MODEL 7
REMARK VINA RESULT:      -4.2     17.830     19.358
REMARK  8 active torsions:
REMARK  status: ('A' for Active; 'I' for Inactive)
REMARK    1  A    between atoms: S_5  and  C_6 
REMARK    2  A    between atoms: C_6  and  C_7 
REMARK    3  A    between atoms: C_7  and  C_8 
REMARK    4  A    between atoms: C_7  and  N_11 
REMARK       I    between atoms: N_11  and  C_12 
REMARK    5  A    between atoms: C_12  and  C_13 
REMARK    6  A    between atoms: C_13  and  C_14 
REMARK    7  A    between atoms: C_13  and  N_16 
REMARK    8  A    between atoms: C_14  and  Se_15 
ROOT
HETATM    1  H           1     -12.119   4.969 -19.396  0.00  0.00     0.163 HD
HETATM    2  N           1     -12.275   5.331 -20.328  0.00  0.00    -0.344 N 
HETATM    3  C           1     -11.557   6.408 -20.773  0.00  0.00     0.249 C 
HETATM    4  O           1     -11.744   6.841 -21.885  0.00  0.00    -0.271 OA
ENDROOT
BRANCH   3   5
HETATM    5  C           1     -10.532   7.056 -19.874  0.00  0.00     0.274 C 
BRANCH   5   6
HETATM    6  C           1     -10.541   8.562 -20.096  0.00  0.00     0.045 C 
BRANCH   6   7
HETATM    7 Se           1      -9.038   9.062 -21.232  0.00  0.00     0.000 Se
HETATM    8  H           1      -9.866   9.796 -22.203  0.00  0.00     0.000 HD
ENDBRANCH   6   7
ENDBRANCH   5   6
BRANCH   5   9
HETATM    9  N           1      -9.172   6.512 -20.194  0.00  0.00    -0.067 N 
HETATM   10  H           1      -9.079   6.392 -21.228  0.00  0.00     0.275 HD
HETATM   11  H           1      -8.442   7.178 -19.855  0.00  0.00     0.275 HD
HETATM   12  H           1      -9.047   5.587 -19.725  0.00  0.00     0.275 HD
ENDBRANCH   5   9
ENDBRANCH   3   5
BRANCH   2  13
HETATM   13  C           1     -13.259   4.708 -21.191  0.00  0.00     0.194 C 
BRANCH  13  14
HETATM   14  C           1     -13.121   3.194 -21.109  0.00  0.00     0.106 C 
BRANCH  14  15
HETATM   15  S           1     -11.385   2.760 -20.801  0.00  0.00    -0.180 SA
HETATM   16  H           1     -11.567   2.341 -19.536  0.00  0.00     0.101 HD
ENDBRANCH  14  15
ENDBRANCH  13  14
BRANCH  13  17
HETATM   17  C           1     -14.644   5.113 -20.747  0.00  0.00     0.197 C 
HETATM   18  O           1     -14.897   5.243 -19.531  0.00  0.00    -0.646 OA
HETATM   19  O           1     -15.537   5.319 -21.598  0.00  0.00    -0.646 OA
ENDBRANCH  13  17
ENDBRANCH   2  13
TORSDOF 8
ENDMDL
MODEL 8
REMARK VINA RESULT:      -4.1      3.478      6.333
REMARK  8 active torsions:
REMARK  status: ('A' for Active; 'I' for Inactive)
REMARK    1  A    between atoms: S_5  and  C_6 
REMARK    2  A    between atoms: C_6  and  C_7 
REMARK    3  A    between atoms: C_7  and  C_8 
REMARK    4  A    between atoms: C_7  and  N_11 
REMARK       I    between atoms: N_11  and  C_12 
REMARK    5  A    between atoms: C_12  and  C_13 
REMARK    6  A    between atoms: C_13  and  C_14 
REMARK    7  A    between atoms: C_13  and  N_16 
REMARK    8  A    between atoms: C_14  and  Se_15 
ROOT
HETATM    1  H           1     -19.846  -6.762  -4.880  0.00  0.00     0.163 HD
HETATM    2  N           1     -20.852  -6.650  -4.880  0.00  0.00    -0.344 N 
HETATM    3  C           1     -21.440  -5.744  -5.721  0.00  0.00     0.249 C 
HETATM    4  O           1     -22.641  -5.610  -5.720  0.00  0.00    -0.271 OA
ENDROOT
BRANCH   3   5
HETATM    5  C           1     -20.588  -4.912  -6.648  0.00  0.00     0.274 C 
BRANCH   5   6
HETATM    6  C           1     -21.434  -3.799  -7.253  0.00  0.00     0.045 C 
BRANCH   6   7
HETATM    7 Se           1     -21.911  -4.267  -9.084  0.00  0.00     0.000 Se
HETATM    8  H           1     -23.360  -4.275  -8.828  0.00  0.00     0.000 HD
ENDBRANCH   6   7
ENDBRANCH   5   6
BRANCH   5   9
HETATM    9  N           1     -20.048  -5.781  -7.744  0.00  0.00    -0.067 N 
HETATM   10  H           1     -20.591  -6.673  -7.781  0.00  0.00     0.275 HD
HETATM   11  H           1     -20.136  -5.283  -8.658  0.00  0.00     0.275 HD
HETATM   12  H           1     -19.042  -5.993  -7.557  0.00  0.00     0.275 HD
ENDBRANCH   5   9
ENDBRANCH   3   5
BRANCH   2  13
HETATM   13  C           1     -21.670  -7.450  -3.989  0.00  0.00     0.194 C 
BRANCH  13  14
HETATM   14  C           1     -21.144  -8.879  -3.963  0.00  0.00     0.106 C 
BRANCH  14  15
HETATM   15  S           1     -19.532  -8.946  -4.795  0.00  0.00    -0.180 SA
HETATM   16  H           1     -18.847  -9.415  -3.737  0.00  0.00     0.101 HD
ENDBRANCH  14  15
ENDBRANCH  13  14
BRANCH  13  17
HETATM   17  C           1     -21.614  -6.867  -2.597  0.00  0.00     0.197 C 
HETATM   18  O           1     -22.333  -5.890  -2.300  0.00  0.00    -0.646 OA
HETATM   19  O           1     -20.847  -7.363  -1.743  0.00  0.00    -0.646 OA
ENDBRANCH  13  17
ENDBRANCH   2  13
TORSDOF 8
ENDMDL
MODEL 9
REMARK VINA RESULT:      -4.0     10.696     12.295
REMARK  8 active torsions:
REMARK  status: ('A' for Active; 'I' for Inactive)
REMARK    1  A    between atoms: S_5  and  C_6 
REMARK    2  A    between atoms: C_6  and  C_7 
REMARK    3  A    between atoms: C_7  and  C_8 
REMARK    4  A    between atoms: C_7  and  N_11 
REMARK       I    between atoms: N_11  and  C_12 
REMARK    5  A    between atoms: C_12  and  C_13 
REMARK    6  A    between atoms: C_13  and  C_14 
REMARK    7  A    between atoms: C_13  and  N_16 
REMARK    8  A    between atoms: C_14  and  Se_15 
ROOT
HETATM    1  H           1     -27.396  -7.937 -17.986  0.00  0.00     0.163 HD
HETATM    2  N           1     -27.326  -6.981 -18.309  0.00  0.00    -0.344 N 
HETATM    3  C           1     -28.462  -6.255 -18.550  0.00  0.00     0.249 C 
HETATM    4  O           1     -28.379  -5.114 -18.937  0.00  0.00    -0.271 OA
ENDROOT
BRANCH   3   5
HETATM    5  C           1     -29.817  -6.882 -18.334  0.00  0.00     0.274 C 
BRANCH   5   6
HETATM    6  C           1     -30.299  -6.576 -16.922  0.00  0.00     0.045 C 
BRANCH   6   7
HETATM    7 Se           1     -31.460  -5.011 -16.955  0.00  0.00     0.000 Se
HETATM    8  H           1     -32.636  -5.749 -17.446  0.00  0.00     0.000 HD
ENDBRANCH   6   7
ENDBRANCH   5   6
BRANCH   5   9
HETATM    9  N           1     -29.715  -8.367 -18.516  0.00  0.00    -0.067 N 
HETATM   10  H           1     -28.806  -8.704 -18.127  0.00  0.00     0.275 HD
HETATM   11  H           1     -30.503  -8.835 -18.012  0.00  0.00     0.275 HD
HETATM   12  H           1     -29.765  -8.598 -19.534  0.00  0.00     0.275 HD
ENDBRANCH   5   9
ENDBRANCH   3   5
BRANCH   2  13
HETATM   13  C           1     -26.023  -6.379 -18.516  0.00  0.00     0.194 C 
BRANCH  13  14
HETATM   14  C           1     -25.083  -6.807 -17.398  0.00  0.00     0.106 C 
BRANCH  14  15
HETATM   15  S           1     -25.962  -6.745 -15.811  0.00  0.00    -0.180 SA
HETATM   16  H           1     -24.955  -7.246 -15.073  0.00  0.00     0.101 HD
ENDBRANCH  14  15
ENDBRANCH  13  14
BRANCH  13  17
HETATM   17  C           1     -25.467  -6.833 -19.844  0.00  0.00     0.197 C 
HETATM   18  O           1     -24.507  -7.632 -19.880  0.00  0.00    -0.646 OA
HETATM   19  O           1     -25.967  -6.408 -20.908  0.00  0.00    -0.646 OA
ENDBRANCH  13  17
ENDBRANCH   2  13
TORSDOF 8
ENDMDL
