MODEL 1
REMARK VINA RESULT:      -7.7      0.000      0.000
REMARK  8 active torsions:
REMARK  status: ('A' for Active; 'I' for Inactive)
REMARK    1  A    between atoms: C_5  and  C_10 
REMARK    2  A    between atoms: C_5  and  C_17 
REMARK    3  A    between atoms: C_5  and  N_19 
REMARK    4  A    between atoms: C_6  and  C_23 
REMARK       I    between atoms: C_10  and  N_13 
REMARK    5  A    between atoms: C_11  and  O_24 
REMARK    6  A    between atoms: N_13  and  C_23 
REMARK    7  A    between atoms: C_17  and  C_21 
REMARK    8  A    between atoms: C_22  and  C_23 
ROOT
HETATM    1  C           1     -21.077  -5.723  -6.839  0.00  0.00     0.278 C 
ENDROOT
BRANCH   1   2
HETATM    2  C           1     -21.633  -4.597  -7.675  0.00  0.00     0.249 C 
HETATM    3  N           1     -22.123  -4.852  -8.928  0.00  0.00    -0.344 N 
HETATM    4  H           1     -22.111  -5.795  -9.294  0.00  0.00     0.163 HD
HETATM    5  O           1     -21.647  -3.470  -7.239  0.00  0.00    -0.271 OA
BRANCH   3   6
HETATM    6  C           1     -22.657  -3.770  -9.731  0.00  0.00     0.189 C 
BRANCH   6   7
HETATM    7  C           1     -22.136  -3.890 -11.158  0.00  0.00     0.010 C 
HETATM    8  C           1     -20.615  -3.958 -11.140  0.00  0.00     0.012 C 
HETATM    9  C           1     -22.580  -2.676 -11.963  0.00  0.00     0.012 C 
ENDBRANCH   6   7
BRANCH   6  10
HETATM   10  C           1     -24.163  -3.845  -9.738  0.00  0.00     0.197 C 
HETATM   11  O           1     -24.734  -4.925 -10.008  0.00  0.00    -0.646 OA
HETATM   12  O           1     -24.842  -2.829  -9.474  0.00  0.00    -0.646 OA
ENDBRANCH   6  10
ENDBRANCH   3   6
ENDBRANCH   1   2
BRANCH   1  13
HETATM   13  C           1     -20.863  -5.239  -5.410  0.00  0.00     0.081 C 
BRANCH  13  14
HETATM   14  C           1     -21.152  -6.356  -4.456  0.00  0.00    -0.056 A 
HETATM   15  C           1     -21.296  -6.090  -3.095  0.00  0.00     0.010 A 
HETATM   16  C           1     -21.564  -7.130  -2.206  0.00  0.00     0.037 A 
HETATM   17  C           1     -21.690  -8.437  -2.677  0.00  0.00     0.065 A 
HETATM   18  C           1     -21.545  -8.702  -4.039  0.00  0.00     0.037 A 
HETATM   19  C           1     -21.277  -7.662  -4.929  0.00  0.00     0.010 A 
BRANCH  17  20
HETATM   20  O           1     -21.950  -9.447  -1.813  0.00  0.00    -0.361 OA
HETATM   21  H           1     -22.698  -9.958  -2.165  0.00  0.00     0.217 HD
ENDBRANCH  17  20
ENDBRANCH  13  14
ENDBRANCH   1  13
BRANCH   1  22
HETATM   22  N           1     -19.767  -6.173  -7.414  0.00  0.00    -0.066 N 
HETATM   23  H           1     -19.943  -6.780  -8.246  0.00  0.00     0.275 HD
HETATM   24  H           1     -19.238  -6.714  -6.693  0.00  0.00     0.275 HD
HETATM   25  H           1     -19.208  -5.339  -7.703  0.00  0.00     0.275 HD
ENDBRANCH   1  22
TORSDOF 8
ENDMDL
MODEL 2
REMARK VINA RESULT:      -7.5      2.145      7.659
REMARK  8 active torsions:
REMARK  status: ('A' for Active; 'I' for Inactive)
REMARK    1  A    between atoms: C_5  and  C_10 
REMARK    2  A    between atoms: C_5  and  C_17 
REMARK    3  A    between atoms: C_5  and  N_19 
REMARK    4  A    between atoms: C_6  and  C_23 
REMARK       I    between atoms: C_10  and  N_13 
REMARK    5  A    between atoms: C_11  and  O_24 
REMARK    6  A    between atoms: N_13  and  C_23 
REMARK    7  A    between atoms: C_17  and  C_21 
REMARK    8  A    between atoms: C_22  and  C_23 
ROOT
HETATM    1  C           1     -22.200  -5.156  -6.941  0.00  0.00     0.278 C 
ENDROOT
BRANCH   1   2
HETATM    2  C           1     -21.252  -5.753  -5.930  0.00  0.00     0.249 C 
HETATM    3  N           1     -21.700  -6.698  -5.046  0.00  0.00    -0.344 N 
HETATM    4  H           1     -22.667  -6.996  -5.070  0.00  0.00     0.163 HD
HETATM    5  O           1     -20.098  -5.398  -5.900  0.00  0.00    -0.271 OA
BRANCH   3   6
HETATM    6  C           1     -20.790  -7.271  -4.075  0.00  0.00     0.189 C 
BRANCH   6   7
HETATM    7  C           1     -21.517  -7.467  -2.750  0.00  0.00     0.010 C 
HETATM    8  C           1     -22.100  -6.138  -2.289  0.00  0.00     0.012 C 
HETATM    9  C           1     -20.534  -7.978  -1.704  0.00  0.00     0.012 C 
ENDBRANCH   6   7
BRANCH   6  10
HETATM   10  C           1     -20.294  -8.605  -4.576  0.00  0.00     0.197 C 
HETATM   11  O           1     -21.103  -9.536  -4.781  0.00  0.00    -0.646 OA
HETATM   12  O           1     -19.074  -8.779  -4.789  0.00  0.00    -0.646 OA
ENDBRANCH   6  10
ENDBRANCH   3   6
ENDBRANCH   1   2
BRANCH   1  13
HETATM   13  C           1     -21.643  -3.828  -7.438  0.00  0.00     0.081 C 
BRANCH  13  14
HETATM   14  C           1     -21.677  -3.801  -8.934  0.00  0.00    -0.056 A 
HETATM   15  C           1     -20.509  -4.036  -9.661  0.00  0.00     0.010 A 
HETATM   16  C           1     -20.540  -4.011 -11.055  0.00  0.00     0.037 A 
HETATM   17  C           1     -21.737  -3.753 -11.722  0.00  0.00     0.065 A 
HETATM   18  C           1     -22.904  -3.518 -10.995  0.00  0.00     0.037 A 
HETATM   19  C           1     -22.874  -3.542  -9.600  0.00  0.00     0.010 A 
BRANCH  17  20
HETATM   20  O           1     -21.766  -3.728 -13.076  0.00  0.00    -0.361 OA
HETATM   21  H           1     -22.346  -2.999 -13.351  0.00  0.00     0.217 HD
ENDBRANCH  17  20
ENDBRANCH  13  14
ENDBRANCH   1  13
BRANCH   1  22
HETATM   22  N           1     -23.537  -4.928  -6.299  0.00  0.00    -0.066 N 
HETATM   23  H           1     -24.289  -5.294  -6.924  0.00  0.00     0.275 HD
HETATM   24  H           1     -23.679  -3.904  -6.146  0.00  0.00     0.275 HD
HETATM   25  H           1     -23.573  -5.426  -5.381  0.00  0.00     0.275 HD
ENDBRANCH   1  22
TORSDOF 8
ENDMDL
MODEL 3
REMARK VINA RESULT:      -7.4     12.637     14.754
REMARK  8 active torsions:
REMARK  status: ('A' for Active; 'I' for Inactive)
REMARK    1  A    between atoms: C_5  and  C_10 
REMARK    2  A    between atoms: C_5  and  C_17 
REMARK    3  A    between atoms: C_5  and  N_19 
REMARK    4  A    between atoms: C_6  and  C_23 
REMARK       I    between atoms: C_10  and  N_13 
REMARK    5  A    between atoms: C_11  and  O_24 
REMARK    6  A    between atoms: N_13  and  C_23 
REMARK    7  A    between atoms: C_17  and  C_21 
REMARK    8  A    between atoms: C_22  and  C_23 
ROOT
HETATM    1  C           1     -32.995  -4.534 -16.625  0.00  0.00     0.278 C 
ENDROOT
BRANCH   1   2
HETATM    2  C           1     -33.874  -4.482 -15.400  0.00  0.00     0.249 C 
HETATM    3  N           1     -33.378  -3.992 -14.221  0.00  0.00    -0.344 N 
HETATM    4  H           1     -32.422  -3.665 -14.172  0.00  0.00     0.163 HD
HETATM    5  O           1     -35.016  -4.872 -15.459  0.00  0.00    -0.271 OA
BRANCH   3   6
HETATM    6  C           1     -34.223  -3.942 -13.044  0.00  0.00     0.189 C 
BRANCH   6   7
HETATM    7  C           1     -33.436  -4.426 -11.833  0.00  0.00     0.010 C 
HETATM    8  C           1     -31.989  -4.682 -12.235  0.00  0.00     0.012 C 
HETATM    9  C           1     -34.053  -5.717 -11.311  0.00  0.00     0.012 C 
ENDBRANCH   6   7
BRANCH   6  10
HETATM   10  C           1     -34.680  -2.523 -12.813  0.00  0.00     0.197 C 
HETATM   11  O           1     -35.091  -1.835 -13.772  0.00  0.00    -0.646 OA
HETATM   12  O           1     -34.648  -2.036 -11.662  0.00  0.00    -0.646 OA
ENDBRANCH   6  10
ENDBRANCH   3   6
ENDBRANCH   1   2
BRANCH   1  13
HETATM   13  C           1     -31.547  -4.746 -16.203  0.00  0.00     0.081 C 
BRANCH  13  14
HETATM   14  C           1     -30.942  -5.840 -17.027  0.00  0.00    -0.056 A 
HETATM   15  C           1     -31.766  -6.730 -17.716  0.00  0.00     0.010 A 
HETATM   16  C           1     -31.203  -7.750 -18.483  0.00  0.00     0.037 A 
HETATM   17  C           1     -29.817  -7.879 -18.563  0.00  0.00     0.065 A 
HETATM   18  C           1     -28.994  -6.989 -17.874  0.00  0.00     0.037 A 
HETATM   19  C           1     -29.556  -5.969 -17.106  0.00  0.00     0.010 A 
BRANCH  17  20
HETATM   20  O           1     -29.270  -8.869 -19.308  0.00  0.00    -0.361 OA
HETATM   21  H           1     -28.763  -8.459 -20.027  0.00  0.00     0.217 HD
ENDBRANCH  17  20
ENDBRANCH  13  14
ENDBRANCH   1  13
BRANCH   1  22
HETATM   22  N           1     -33.111  -3.243 -17.380  0.00  0.00    -0.066 N 
HETATM   23  H           1     -33.267  -3.445 -18.393  0.00  0.00     0.275 HD
HETATM   24  H           1     -32.230  -2.693 -17.265  0.00  0.00     0.275 HD
HETATM   25  H           1     -33.917  -2.692 -17.007  0.00  0.00     0.275 HD
ENDBRANCH   1  22
TORSDOF 8
ENDMDL
MODEL 4
REMARK VINA RESULT:      -7.4     12.636     14.581
REMARK  8 active torsions:
REMARK  status: ('A' for Active; 'I' for Inactive)
REMARK    1  A    between atoms: C_5  and  C_10 
REMARK    2  A    between atoms: C_5  and  C_17 
REMARK    3  A    between atoms: C_5  and  N_19 
REMARK    4  A    between atoms: C_6  and  C_23 
REMARK       I    between atoms: C_10  and  N_13 
REMARK    5  A    between atoms: C_11  and  O_24 
REMARK    6  A    between atoms: N_13  and  C_23 
REMARK    7  A    between atoms: C_17  and  C_21 
REMARK    8  A    between atoms: C_22  and  C_23 
ROOT
HETATM    1  C           1     -34.501  -2.550 -11.765  0.00  0.00     0.278 C 
ENDROOT
BRANCH   1   2
HETATM    2  C           1     -35.338  -1.713 -12.701  0.00  0.00     0.249 C 
HETATM    3  N           1     -34.810  -1.278 -13.888  0.00  0.00    -0.344 N 
HETATM    4  H           1     -33.859  -1.518 -14.137  0.00  0.00     0.163 HD
HETATM    5  O           1     -36.473  -1.427 -12.405  0.00  0.00    -0.271 OA
BRANCH   3   6
HETATM    6  C           1     -35.614  -0.475 -14.787  0.00  0.00     0.189 C 
BRANCH   6   7
HETATM    7  C           1     -34.954   0.885 -14.982  0.00  0.00     0.010 C 
HETATM    8  C           1     -34.557   1.457 -13.628  0.00  0.00     0.012 C 
HETATM    9  C           1     -35.934   1.830 -15.664  0.00  0.00     0.012 C 
ENDBRANCH   6   7
BRANCH   6  10
HETATM   10  C           1     -35.729  -1.173 -16.120  0.00  0.00     0.197 C 
HETATM   11  O           1     -36.804  -1.128 -16.758  0.00  0.00    -0.646 OA
HETATM   12  O           1     -34.751  -1.796 -16.586  0.00  0.00    -0.646 OA
ENDBRANCH   6  10
ENDBRANCH   3   6
ENDBRANCH   1   2
BRANCH   1  13
HETATM   13  C           1     -35.412  -3.402 -10.892  0.00  0.00     0.081 C 
BRANCH  13  14
HETATM   14  C           1     -34.821  -4.769 -10.739  0.00  0.00    -0.056 A 
HETATM   15  C           1     -35.530  -5.762 -10.062  0.00  0.00     0.010 A 
HETATM   16  C           1     -34.979  -7.036  -9.919  0.00  0.00     0.037 A 
HETATM   17  C           1     -33.722  -7.317 -10.453  0.00  0.00     0.065 A 
HETATM   18  C           1     -33.014  -6.323 -11.129  0.00  0.00     0.037 A 
HETATM   19  C           1     -33.564  -5.049 -11.272  0.00  0.00     0.010 A 
BRANCH  17  20
HETATM   20  O           1     -33.188  -8.554 -10.313  0.00  0.00    -0.361 OA
HETATM   21  H           1     -32.321  -8.461  -9.884  0.00  0.00     0.217 HD
ENDBRANCH  17  20
ENDBRANCH  13  14
ENDBRANCH   1  13
BRANCH   1  22
HETATM   22  N           1     -33.674  -1.650 -10.895  0.00  0.00    -0.066 N 
HETATM   23  H           1     -32.925  -1.202 -11.470  0.00  0.00     0.275 HD
HETATM   24  H           1     -33.237  -2.212 -10.130  0.00  0.00     0.275 HD
HETATM   25  H           1     -34.283  -0.910 -10.479  0.00  0.00     0.275 HD
ENDBRANCH   1  22
TORSDOF 8
ENDMDL
MODEL 5
REMARK VINA RESULT:      -7.1     12.917     15.368
REMARK  8 active torsions:
REMARK  status: ('A' for Active; 'I' for Inactive)
REMARK    1  A    between atoms: C_5  and  C_10 
REMARK    2  A    between atoms: C_5  and  C_17 
REMARK    3  A    between atoms: C_5  and  N_19 
REMARK    4  A    between atoms: C_6  and  C_23 
REMARK       I    between atoms: C_10  and  N_13 
REMARK    5  A    between atoms: C_11  and  O_24 
REMARK    6  A    between atoms: N_13  and  C_23 
REMARK    7  A    between atoms: C_17  and  C_21 
REMARK    8  A    between atoms: C_22  and  C_23 
ROOT
HETATM    1  C           1     -35.758  -0.605 -11.361  0.00  0.00     0.278 C 
ENDROOT
BRANCH   1   2
HETATM    2  C           1     -36.376  -0.711 -12.734  0.00  0.00     0.249 C 
HETATM    3  N           1     -35.578  -0.695 -13.847  0.00  0.00    -0.344 N 
HETATM    4  H           1     -34.574  -0.613 -13.749  0.00  0.00     0.163 HD
HETATM    5  O           1     -37.574  -0.809 -12.852  0.00  0.00    -0.271 OA
BRANCH   3   6
HETATM    6  C           1     -36.171  -0.797 -15.166  0.00  0.00     0.189 C 
BRANCH   6   7
HETATM    7  C           1     -36.199   0.580 -15.818  0.00  0.00     0.010 C 
HETATM    8  C           1     -35.307   1.533 -15.033  0.00  0.00     0.012 C 
HETATM    9  C           1     -37.627   1.109 -15.821  0.00  0.00     0.012 C 
ENDBRANCH   6   7
BRANCH   6  10
HETATM   10  C           1     -35.352  -1.738 -16.014  0.00  0.00     0.197 C 
HETATM   11  O           1     -34.700  -2.658 -15.475  0.00  0.00    -0.646 OA
HETATM   12  O           1     -35.326  -1.598 -17.256  0.00  0.00    -0.646 OA
ENDBRANCH   6  10
ENDBRANCH   3   6
ENDBRANCH   1   2
BRANCH   1  13
HETATM   13  C           1     -36.096  -1.851 -10.554  0.00  0.00     0.081 C 
BRANCH  13  14
HETATM   14  C           1     -35.103  -2.929 -10.860  0.00  0.00    -0.056 A 
HETATM   15  C           1     -35.493  -4.267 -10.818  0.00  0.00     0.010 A 
HETATM   16  C           1     -34.569  -5.272 -11.103  0.00  0.00     0.037 A 
HETATM   17  C           1     -33.255  -4.938 -11.431  0.00  0.00     0.065 A 
HETATM   18  C           1     -32.865  -3.600 -11.472  0.00  0.00     0.037 A 
HETATM   19  C           1     -33.790  -2.594 -11.187  0.00  0.00     0.010 A 
BRANCH  17  20
HETATM   20  O           1     -32.357  -5.914 -11.707  0.00  0.00    -0.361 OA
HETATM   21  H           1     -32.042  -6.280 -10.864  0.00  0.00     0.217 HD
ENDBRANCH  17  20
ENDBRANCH  13  14
ENDBRANCH   1  13
BRANCH   1  22
HETATM   22  N           1     -36.301   0.606 -10.662  0.00  0.00    -0.066 N 
HETATM   23  H           1     -35.680   1.425 -10.852  0.00  0.00     0.275 HD
HETATM   24  H           1     -36.335   0.426  -9.633  0.00  0.00     0.275 HD
HETATM   25  H           1     -37.263   0.810 -11.012  0.00  0.00     0.275 HD
ENDBRANCH   1  22
TORSDOF 8
ENDMDL
MODEL 6
REMARK VINA RESULT:      -6.9     13.108     15.894
REMARK  8 active torsions:
REMARK  status: ('A' for Active; 'I' for Inactive)
REMARK    1  A    between atoms: C_5  and  C_10 
REMARK    2  A    between atoms: C_5  and  C_17 
REMARK    3  A    between atoms: C_5  and  N_19 
REMARK    4  A    between atoms: C_6  and  C_23 
REMARK       I    between atoms: C_10  and  N_13 
REMARK    5  A    between atoms: C_11  and  O_24 
REMARK    6  A    between atoms: N_13  and  C_23 
REMARK    7  A    between atoms: C_17  and  C_21 
REMARK    8  A    between atoms: C_22  and  C_23 
ROOT
HETATM    1  C           1     -36.873   0.056 -12.426  0.00  0.00     0.278 C 
ENDROOT
BRANCH   1   2
HETATM    2  C           1     -35.602  -0.701 -12.726  0.00  0.00     0.249 C 
HETATM    3  N           1     -35.481  -2.012 -12.350  0.00  0.00    -0.344 N 
HETATM    4  H           1     -36.244  -2.474 -11.871  0.00  0.00     0.163 HD
HETATM    5  O           1     -34.691  -0.150 -13.297  0.00  0.00    -0.271 OA
BRANCH   3   6
HETATM    6  C           1     -34.260  -2.739 -12.637  0.00  0.00     0.189 C 
BRANCH   6   7
HETATM    7  C           1     -33.692  -3.310 -11.344  0.00  0.00     0.010 C 
HETATM    8  C           1     -33.343  -2.171 -10.395  0.00  0.00     0.012 C 
HETATM    9  C           1     -32.436  -4.114 -11.655  0.00  0.00     0.012 C 
ENDBRANCH   6   7
BRANCH   6  10
HETATM   10  C           1     -34.559  -3.865 -13.595  0.00  0.00     0.197 C 
HETATM   11  O           1     -35.060  -4.929 -13.171  0.00  0.00    -0.646 OA
HETATM   12  O           1     -34.306  -3.734 -14.813  0.00  0.00    -0.646 OA
ENDBRANCH   6  10
ENDBRANCH   3   6
ENDBRANCH   1   2
BRANCH   1  13
HETATM   13  C           1     -37.680  -0.700 -11.379  0.00  0.00     0.081 C 
BRANCH  13  14
HETATM   14  C           1     -37.488  -0.057 -10.041  0.00  0.00    -0.056 A 
HETATM   15  C           1     -38.075   1.180  -9.772  0.00  0.00     0.010 A 
HETATM   16  C           1     -37.896   1.779  -8.526  0.00  0.00     0.037 A 
HETATM   17  C           1     -37.132   1.143  -7.548  0.00  0.00     0.065 A 
HETATM   18  C           1     -36.546  -0.094  -7.817  0.00  0.00     0.037 A 
HETATM   19  C           1     -36.724  -0.694  -9.064  0.00  0.00     0.010 A 
BRANCH  17  20
HETATM   20  O           1     -36.959   1.726  -6.337  0.00  0.00    -0.361 OA
HETATM   21  H           1     -37.165   1.067  -5.654  0.00  0.00     0.217 HD
ENDBRANCH  17  20
ENDBRANCH  13  14
ENDBRANCH   1  13
BRANCH   1  22
HETATM   22  N           1     -37.684   0.188 -13.681  0.00  0.00    -0.066 N 
HETATM   23  H           1     -37.968   1.186 -13.808  0.00  0.00     0.275 HD
HETATM   24  H           1     -38.537  -0.411 -13.609  0.00  0.00     0.275 HD
HETATM   25  H           1     -37.112  -0.117 -14.500  0.00  0.00     0.275 HD
ENDBRANCH   1  22
TORSDOF 8
ENDMDL
MODEL 7
REMARK VINA RESULT:      -6.8     12.495     14.213
REMARK  8 active torsions:
REMARK  status: ('A' for Active; 'I' for Inactive)
REMARK    1  A    between atoms: C_5  and  C_10 
REMARK    2  A    between atoms: C_5  and  C_17 
REMARK    3  A    between atoms: C_5  and  N_19 
REMARK    4  A    between atoms: C_6  and  C_23 
REMARK       I    between atoms: C_10  and  N_13 
REMARK    5  A    between atoms: C_11  and  O_24 
REMARK    6  A    between atoms: N_13  and  C_23 
REMARK    7  A    between atoms: C_17  and  C_21 
REMARK    8  A    between atoms: C_22  and  C_23 
ROOT
HETATM    1  C           1     -34.336  -3.691 -12.371  0.00  0.00     0.278 C 
ENDROOT
BRANCH   1   2
HETATM    2  C           1     -34.583  -2.218 -12.153  0.00  0.00     0.249 C 
HETATM    3  N           1     -35.463  -1.545 -12.959  0.00  0.00    -0.344 N 
HETATM    4  H           1     -35.946  -2.035 -13.701  0.00  0.00     0.163 HD
HETATM    5  O           1     -34.006  -1.632 -11.268  0.00  0.00    -0.271 OA
BRANCH   3   6
HETATM    6  C           1     -35.700  -0.130 -12.751  0.00  0.00     0.189 C 
BRANCH   6   7
HETATM    7  C           1     -35.844   0.565 -14.099  0.00  0.00     0.010 C 
HETATM    8  C           1     -35.775  -0.469 -15.215  0.00  0.00     0.012 C 
HETATM    9  C           1     -34.716   1.574 -14.271  0.00  0.00     0.012 C 
ENDBRANCH   6   7
BRANCH   6  10
HETATM   10  C           1     -36.966   0.055 -11.952  0.00  0.00     0.197 C 
HETATM   11  O           1     -38.075   0.058 -12.530  0.00  0.00    -0.646 OA
HETATM   12  O           1     -36.907   0.204 -10.712  0.00  0.00    -0.646 OA
ENDBRANCH   6  10
ENDBRANCH   3   6
ENDBRANCH   1   2
BRANCH   1  13
HETATM   13  C           1     -33.219  -4.160 -11.448  0.00  0.00     0.081 C 
BRANCH  13  14
HETATM   14  C           1     -33.566  -5.505 -10.888  0.00  0.00    -0.056 A 
HETATM   15  C           1     -34.786  -5.695 -10.239  0.00  0.00     0.010 A 
HETATM   16  C           1     -35.109  -6.947  -9.717  0.00  0.00     0.037 A 
HETATM   17  C           1     -34.214  -8.009  -9.844  0.00  0.00     0.065 A 
HETATM   18  C           1     -32.994  -7.818 -10.493  0.00  0.00     0.037 A 
HETATM   19  C           1     -32.670  -6.565 -11.016  0.00  0.00     0.010 A 
BRANCH  17  20
HETATM   20  O           1     -34.529  -9.225  -9.337  0.00  0.00    -0.361 OA
HETATM   21  H           1     -35.428  -9.448  -9.628  0.00  0.00     0.217 HD
ENDBRANCH  17  20
ENDBRANCH  13  14
ENDBRANCH   1  13
BRANCH   1  22
HETATM   22  N           1     -33.937  -3.925 -13.798  0.00  0.00    -0.066 N 
HETATM   23  H           1     -34.162  -4.910 -14.064  0.00  0.00     0.275 HD
HETATM   24  H           1     -32.910  -3.762 -13.903  0.00  0.00     0.275 HD
HETATM   25  H           1     -34.460  -3.268 -14.419  0.00  0.00     0.275 HD
ENDBRANCH   1  22
TORSDOF 8
ENDMDL
MODEL 8
REMARK VINA RESULT:      -6.7      2.518      7.993
REMARK  8 active torsions:
REMARK  status: ('A' for Active; 'I' for Inactive)
REMARK    1  A    between atoms: C_5  and  C_10 
REMARK    2  A    between atoms: C_5  and  C_17 
REMARK    3  A    between atoms: C_5  and  N_19 
REMARK    4  A    between atoms: C_6  and  C_23 
REMARK       I    between atoms: C_10  and  N_13 
REMARK    5  A    between atoms: C_11  and  O_24 
REMARK    6  A    between atoms: N_13  and  C_23 
REMARK    7  A    between atoms: C_17  and  C_21 
REMARK    8  A    between atoms: C_22  and  C_23 
ROOT
HETATM    1  C           1     -20.371  -7.567  -5.037  0.00  0.00     0.278 C 
ENDROOT
BRANCH   1   2
HETATM    2  C           1     -20.378  -8.244  -3.689  0.00  0.00     0.249 C 
HETATM    3  N           1     -21.535  -8.304  -2.958  0.00  0.00    -0.344 N 
HETATM    4  H           1     -22.385  -7.894  -3.323  0.00  0.00     0.163 HD
HETATM    5  O           1     -19.363  -8.734  -3.253  0.00  0.00    -0.271 OA
BRANCH   3   6
HETATM    6  C           1     -21.542  -8.954  -1.663  0.00  0.00     0.189 C 
BRANCH   6   7
HETATM    7  C           1     -22.317  -8.099  -0.668  0.00  0.00     0.010 C 
HETATM    8  C           1     -22.312  -6.649  -1.132  0.00  0.00     0.012 C 
HETATM    9  C           1     -21.660  -8.196   0.702  0.00  0.00     0.012 C 
ENDBRANCH   6   7
BRANCH   6  10
HETATM   10  C           1     -22.199 -10.307  -1.782  0.00  0.00     0.197 C 
HETATM   11  O           1     -21.647 -11.213  -2.443  0.00  0.00    -0.646 OA
HETATM   12  O           1     -23.295 -10.522  -1.221  0.00  0.00    -0.646 OA
ENDBRANCH   6  10
ENDBRANCH   3   6
ENDBRANCH   1   2
BRANCH   1  13
HETATM   13  C           1     -20.955  -6.166  -4.905  0.00  0.00     0.081 C 
BRANCH  13  14
HETATM   14  C           1     -20.928  -5.487  -6.239  0.00  0.00    -0.056 A 
HETATM   15  C           1     -22.101  -4.947  -6.769  0.00  0.00     0.010 A 
HETATM   16  C           1     -22.077  -4.314  -8.012  0.00  0.00     0.037 A 
HETATM   17  C           1     -20.881  -4.220  -8.724  0.00  0.00     0.065 A 
HETATM   18  C           1     -19.710  -4.760  -8.194  0.00  0.00     0.037 A 
HETATM   19  C           1     -19.733  -5.393  -6.951  0.00  0.00     0.010 A 
BRANCH  17  20
HETATM   20  O           1     -20.858  -3.605  -9.931  0.00  0.00    -0.361 OA
HETATM   21  H           1     -20.068  -3.909 -10.408  0.00  0.00     0.217 HD
ENDBRANCH  17  20
ENDBRANCH  13  14
ENDBRANCH   1  13
BRANCH   1  22
HETATM   22  N           1     -21.199  -8.364  -6.001  0.00  0.00    -0.066 N 
HETATM   23  H           1     -21.007  -8.038  -6.975  0.00  0.00     0.275 HD
HETATM   24  H           1     -22.212  -8.231  -5.782  0.00  0.00     0.275 HD
HETATM   25  H           1     -20.953  -9.376  -5.918  0.00  0.00     0.275 HD
ENDBRANCH   1  22
TORSDOF 8
ENDMDL
MODEL 9
REMARK VINA RESULT:      -6.6      2.718      7.603
REMARK  8 active torsions:
REMARK  status: ('A' for Active; 'I' for Inactive)
REMARK    1  A    between atoms: C_5  and  C_10 
REMARK    2  A    between atoms: C_5  and  C_17 
REMARK    3  A    between atoms: C_5  and  N_19 
REMARK    4  A    between atoms: C_6  and  C_23 
REMARK       I    between atoms: C_10  and  N_13 
REMARK    5  A    between atoms: C_11  and  O_24 
REMARK    6  A    between atoms: N_13  and  C_23 
REMARK    7  A    between atoms: C_17  and  C_21 
REMARK    8  A    between atoms: C_22  and  C_23 
ROOT
HETATM    1  C           1     -21.371  -6.214  -5.554  0.00  0.00     0.278 C 
ENDROOT
BRANCH   1   2
HETATM    2  C           1     -20.394  -7.363  -5.520  0.00  0.00     0.249 C 
HETATM    3  N           1     -20.518  -8.341  -4.569  0.00  0.00    -0.344 N 
HETATM    4  H           1     -21.266  -8.293  -3.890  0.00  0.00     0.163 HD
HETATM    5  O           1     -19.500  -7.420  -6.331  0.00  0.00    -0.271 OA
BRANCH   3   6
HETATM    6  C           1     -19.579  -9.444  -4.537  0.00  0.00     0.189 C 
BRANCH   6   7
HETATM    7  C           1     -19.127  -9.685  -3.102  0.00  0.00     0.010 C 
HETATM    8  C           1     -19.849  -8.718  -2.172  0.00  0.00     0.012 C 
HETATM    9  C           1     -17.624  -9.459  -3.000  0.00  0.00     0.012 C 
ENDBRANCH   6   7
BRANCH   6  10
HETATM   10  C           1     -20.246 -10.688  -5.069  0.00  0.00     0.197 C 
HETATM   11  O           1     -20.394 -11.683  -4.326  0.00  0.00    -0.646 OA
HETATM   12  O           1     -20.650 -10.725  -6.251  0.00  0.00    -0.646 OA
ENDBRANCH   6  10
ENDBRANCH   3   6
ENDBRANCH   1   2
BRANCH   1  13
HETATM   13  C           1     -20.639  -4.934  -5.934  0.00  0.00     0.081 C 
BRANCH  13  14
HETATM   14  C           1     -21.023  -4.533  -7.324  0.00  0.00    -0.056 A 
HETATM   15  C           1     -22.339  -4.167  -7.605  0.00  0.00     0.010 A 
HETATM   16  C           1     -22.697  -3.794  -8.900  0.00  0.00     0.037 A 
HETATM   17  C           1     -21.740  -3.785  -9.914  0.00  0.00     0.065 A 
HETATM   18  C           1     -20.423  -4.151  -9.633  0.00  0.00     0.037 A 
HETATM   19  C           1     -20.064  -4.524  -8.337  0.00  0.00     0.010 A 
BRANCH  17  20
HETATM   20  O           1     -22.088  -3.422 -11.172  0.00  0.00    -0.361 OA
HETATM   21  H           1     -23.043  -3.244 -11.180  0.00  0.00     0.217 HD
ENDBRANCH  17  20
ENDBRANCH  13  14
ENDBRANCH   1  13
BRANCH   1  22
HETATM   22  N           1     -21.996  -6.049  -4.200  0.00  0.00    -0.066 N 
HETATM   23  H           1     -21.413  -6.541  -3.486  0.00  0.00     0.275 HD
HETATM   24  H           1     -22.957  -6.459  -4.208  0.00  0.00     0.275 HD
HETATM   25  H           1     -22.052  -5.033  -3.964  0.00  0.00     0.275 HD
ENDBRANCH   1  22
TORSDOF 8
ENDMDL
