MODEL 1
REMARK VINA RESULT:      -7.3      0.000      0.000
REMARK  8 active torsions:
REMARK  status: ('A' for Active; 'I' for Inactive)
REMARK    1  A    between atoms: C_2  and  C_4 
REMARK    2  A    between atoms: C_4  and  C_5 
REMARK    3  A    between atoms: C_4  and  N_12 
REMARK    4  A    between atoms: C_5  and  C_18 
REMARK    5  A    between atoms: N_7  and  C_10 
REMARK    6  A    between atoms: Se_8  and  C_9 
REMARK    7  A    between atoms: C_9  and  C_10 
REMARK    8  A    between atoms: C_10  and  C_11 
REMARK       I    between atoms: C_11  and  N_12 
ROOT
HETATM    1  O           1     -34.336   1.283 -13.470  0.00  0.00    -0.271 OA
HETATM    2  C           1     -35.040   0.403 -13.907  0.00  0.00     0.249 C 
HETATM    3  N           1     -34.842  -0.892 -13.511  0.00  0.00    -0.344 N 
HETATM    4  H           1     -34.208  -1.488 -14.029  0.00  0.00     0.163 HD
ENDROOT
BRANCH   3   5
HETATM    5  C           1     -35.540  -1.410 -12.350  0.00  0.00     0.189 C 
BRANCH   5   6
HETATM    6  C           1     -36.567  -0.404 -11.892  0.00  0.00     0.197 C 
HETATM    7  O           1     -37.724  -0.431 -12.366  0.00  0.00    -0.646 OA
HETATM    8  O           1     -36.262   0.457 -11.039  0.00  0.00    -0.646 OA
ENDBRANCH   5   6
BRANCH   5   9
HETATM    9  C           1     -34.542  -1.664 -11.229  0.00  0.00     0.074 C 
BRANCH   9  10
HETATM   10  C           1     -34.161  -3.111 -11.217  0.00  0.00    -0.056 A 
HETATM   11  C           1     -32.906  -3.507 -11.681  0.00  0.00     0.007 A 
HETATM   12  C           1     -32.552  -4.856 -11.669  0.00  0.00     0.001 A 
HETATM   13  C           1     -33.452  -5.810 -11.193  0.00  0.00     0.000 A 
HETATM   14  C           1     -34.706  -5.414 -10.728  0.00  0.00     0.001 A 
HETATM   15  C           1     -35.061  -4.065 -10.740  0.00  0.00     0.007 A 
ENDBRANCH   9  10
ENDBRANCH   5   9
ENDBRANCH   3   5
BRANCH   2  16
HETATM   16  C           1     -36.136   0.733 -14.890  0.00  0.00     0.274 C 
BRANCH  16  17
HETATM   17  N           1     -35.831   2.043 -15.556  0.00  0.00    -0.067 N 
HETATM   18  H           1     -35.514   2.733 -14.838  0.00  0.00     0.275 HD
HETATM   19  H           1     -35.074   1.906 -16.263  0.00  0.00     0.275 HD
HETATM   20  H           1     -36.691   2.402 -16.028  0.00  0.00     0.275 HD
ENDBRANCH  16  17
BRANCH  16  21
HETATM   21  C           1     -36.222  -0.363 -15.943  0.00  0.00     0.045 C 
BRANCH  21  22
HETATM   22 Se           1     -38.075  -0.939 -16.134  0.00  0.00     0.000 Se
HETATM   23  H           1     -38.521   0.314 -16.766  0.00  0.00     0.000 HD
ENDBRANCH  21  22
ENDBRANCH  16  21
ENDBRANCH   2  16
TORSDOF 8
ENDMDL
MODEL 2
REMARK VINA RESULT:      -7.0      3.063      5.381
REMARK  8 active torsions:
REMARK  status: ('A' for Active; 'I' for Inactive)
REMARK    1  A    between atoms: C_2  and  C_4 
REMARK    2  A    between atoms: C_4  and  C_5 
REMARK    3  A    between atoms: C_4  and  N_12 
REMARK    4  A    between atoms: C_5  and  C_18 
REMARK    5  A    between atoms: N_7  and  C_10 
REMARK    6  A    between atoms: Se_8  and  C_9 
REMARK    7  A    between atoms: C_9  and  C_10 
REMARK    8  A    between atoms: C_10  and  C_11 
REMARK       I    between atoms: C_11  and  N_12 
ROOT
HETATM    1  O           1     -33.784  -1.764 -10.195  0.00  0.00    -0.271 OA
HETATM    2  C           1     -34.910  -1.962 -10.587  0.00  0.00     0.249 C 
HETATM    3  N           1     -35.955  -1.264 -10.045  0.00  0.00    -0.344 N 
HETATM    4  H           1     -36.443  -1.628  -9.237  0.00  0.00     0.163 HD
ENDROOT
BRANCH   3   5
HETATM    5  C           1     -36.364  -0.001 -10.631  0.00  0.00     0.189 C 
BRANCH   5   6
HETATM    6  C           1     -36.968   0.876  -9.562  0.00  0.00     0.197 C 
HETATM    7  O           1     -38.073   1.428  -9.756  0.00  0.00    -0.646 OA
HETATM    8  O           1     -36.363   1.053  -8.483  0.00  0.00    -0.646 OA
ENDBRANCH   5   6
BRANCH   5   9
HETATM    9  C           1     -37.395  -0.257 -11.720  0.00  0.00     0.074 C 
BRANCH   9  10
HETATM   10  C           1     -36.802   0.063 -13.057  0.00  0.00    -0.056 A 
HETATM   11  C           1     -37.571  -0.071 -14.213  0.00  0.00     0.007 A 
HETATM   12  C           1     -37.017   0.228 -15.457  0.00  0.00     0.001 A 
HETATM   13  C           1     -35.694   0.662 -15.547  0.00  0.00     0.000 A 
HETATM   14  C           1     -34.926   0.797 -14.391  0.00  0.00     0.001 A 
HETATM   15  C           1     -35.479   0.498 -13.145  0.00  0.00     0.007 A 
ENDBRANCH   9  10
ENDBRANCH   5   9
ENDBRANCH   3   5
BRANCH   2  16
HETATM   16  C           1     -35.163  -2.980 -11.672  0.00  0.00     0.274 C 
BRANCH  16  17
HETATM   17  N           1     -34.055  -2.918 -12.681  0.00  0.00    -0.067 N 
HETATM   18  H           1     -34.095  -2.004 -13.187  0.00  0.00     0.275 HD
HETATM   19  H           1     -33.134  -3.004 -12.194  0.00  0.00     0.275 HD
HETATM   20  H           1     -34.163  -3.700 -13.366  0.00  0.00     0.275 HD
ENDBRANCH  16  17
BRANCH  16  21
HETATM   21  C           1     -35.213  -4.373 -11.060  0.00  0.00     0.045 C 
BRANCH  21  22
HETATM   22 Se           1     -33.490  -5.252 -11.297  0.00  0.00     0.000 Se
HETATM   23  H           1     -32.902  -4.685 -10.073  0.00  0.00     0.000 HD
ENDBRANCH  21  22
ENDBRANCH  16  21
ENDBRANCH   2  16
TORSDOF 8
ENDMDL
MODEL 3
REMARK VINA RESULT:      -6.4     14.781     16.735
REMARK  8 active torsions:
REMARK  status: ('A' for Active; 'I' for Inactive)
REMARK    1  A    between atoms: C_2  and  C_4 
REMARK    2  A    between atoms: C_4  and  C_5 
REMARK    3  A    between atoms: C_4  and  N_12 
REMARK    4  A    between atoms: C_5  and  C_18 
REMARK    5  A    between atoms: N_7  and  C_10 
REMARK    6  A    between atoms: Se_8  and  C_9 
REMARK    7  A    between atoms: C_9  and  C_10 
REMARK    8  A    between atoms: C_10  and  C_11 
REMARK       I    between atoms: C_11  and  N_12 
ROOT
HETATM    1  O           1     -20.895  -5.834  -3.945  0.00  0.00    -0.271 OA
HETATM    2  C           1     -21.623  -6.371  -4.745  0.00  0.00     0.249 C 
HETATM    3  N           1     -22.217  -5.633  -5.733  0.00  0.00    -0.344 N 
HETATM    4  H           1     -23.123  -5.210  -5.573  0.00  0.00     0.163 HD
ENDROOT
BRANCH   3   5
HETATM    5  C           1     -21.549  -5.456  -7.008  0.00  0.00     0.189 C 
BRANCH   5   6
HETATM    6  C           1     -20.056  -5.556  -6.810  0.00  0.00     0.197 C 
HETATM    7  O           1     -19.405  -4.553  -6.445  0.00  0.00    -0.646 OA
HETATM    8  O           1     -19.470  -6.641  -7.013  0.00  0.00    -0.646 OA
ENDBRANCH   5   6
BRANCH   5   9
HETATM    9  C           1     -21.896  -4.088  -7.577  0.00  0.00     0.074 C 
BRANCH   9  10
HETATM   10  C           1     -21.971  -4.171  -9.070  0.00  0.00    -0.056 A 
HETATM   11  C           1     -23.175  -4.502  -9.691  0.00  0.00     0.007 A 
HETATM   12  C           1     -23.244  -4.580 -11.081  0.00  0.00     0.001 A 
HETATM   13  C           1     -22.110  -4.326 -11.852  0.00  0.00     0.000 A 
HETATM   14  C           1     -20.906  -3.995 -11.231  0.00  0.00     0.001 A 
HETATM   15  C           1     -20.836  -3.917  -9.840  0.00  0.00     0.007 A 
ENDBRANCH   9  10
ENDBRANCH   5   9
ENDBRANCH   3   5
BRANCH   2  16
HETATM   16  C           1     -21.878  -7.856  -4.656  0.00  0.00     0.274 C 
BRANCH  16  17
HETATM   17  N           1     -21.104  -8.560  -5.731  0.00  0.00    -0.067 N 
HETATM   18  H           1     -21.068  -7.959  -6.585  0.00  0.00     0.275 HD
HETATM   19  H           1     -20.132  -8.746  -5.395  0.00  0.00     0.275 HD
HETATM   20  H           1     -21.573  -9.465  -5.961  0.00  0.00     0.275 HD
ENDBRANCH  16  17
BRANCH  16  21
HETATM   21  C           1     -21.433  -8.367  -3.293  0.00  0.00     0.045 C 
BRANCH  21  22
HETATM   22 Se           1     -19.698  -9.241  -3.460  0.00  0.00     0.000 Se
HETATM   23  H           1     -18.948  -7.982  -3.600  0.00  0.00     0.000 HD
ENDBRANCH  21  22
ENDBRANCH  16  21
ENDBRANCH   2  16
TORSDOF 8
ENDMDL
MODEL 4
REMARK VINA RESULT:      -6.3     17.365     19.377
REMARK  8 active torsions:
REMARK  status: ('A' for Active; 'I' for Inactive)
REMARK    1  A    between atoms: C_2  and  C_4 
REMARK    2  A    between atoms: C_4  and  C_5 
REMARK    3  A    between atoms: C_4  and  N_12 
REMARK    4  A    between atoms: C_5  and  C_18 
REMARK    5  A    between atoms: N_7  and  C_10 
REMARK    6  A    between atoms: Se_8  and  C_9 
REMARK    7  A    between atoms: C_9  and  C_10 
REMARK    8  A    between atoms: C_10  and  C_11 
REMARK       I    between atoms: C_11  and  N_12 
ROOT
HETATM    1  O           1     -19.509  -9.970  -5.919  0.00  0.00    -0.271 OA
HETATM    2  C           1     -19.390  -9.535  -4.798  0.00  0.00     0.249 C 
HETATM    3  N           1     -19.705  -8.229  -4.534  0.00  0.00    -0.344 N 
HETATM    4  H           1     -18.996  -7.511  -4.615  0.00  0.00     0.163 HD
ENDROOT
BRANCH   3   5
HETATM    5  C           1     -21.054  -7.874  -4.137  0.00  0.00     0.189 C 
BRANCH   5   6
HETATM    6  C           1     -21.693  -7.039  -5.219  0.00  0.00     0.197 C 
HETATM    7  O           1     -21.239  -7.069  -6.384  0.00  0.00    -0.646 OA
HETATM    8  O           1     -22.676  -6.315  -4.951  0.00  0.00    -0.646 OA
ENDBRANCH   5   6
BRANCH   5   9
HETATM    9  C           1     -21.009  -7.079  -2.840  0.00  0.00     0.074 C 
BRANCH   9  10
HETATM   10  C           1     -21.747  -7.822  -1.771  0.00  0.00    -0.056 A 
HETATM   11  C           1     -21.858  -9.211  -1.835  0.00  0.00     0.007 A 
HETATM   12  C           1     -22.545  -9.902  -0.838  0.00  0.00     0.001 A 
HETATM   13  C           1     -23.123  -9.206   0.223  0.00  0.00     0.000 A 
HETATM   14  C           1     -23.012  -7.817   0.288  0.00  0.00     0.001 A 
HETATM   15  C           1     -22.324  -7.124  -0.709  0.00  0.00     0.007 A 
ENDBRANCH   9  10
ENDBRANCH   5   9
ENDBRANCH   3   5
BRANCH   2  16
HETATM   16  C           1     -18.894 -10.431  -3.690  0.00  0.00     0.274 C 
BRANCH  16  17
HETATM   17  N           1     -17.987 -11.479  -4.266  0.00  0.00    -0.067 N 
HETATM   18  H           1     -17.370 -11.857  -3.512  0.00  0.00     0.275 HD
HETATM   19  H           1     -18.561 -12.254  -4.666  0.00  0.00     0.275 HD
HETATM   20  H           1     -17.399 -11.054  -5.017  0.00  0.00     0.275 HD
ENDBRANCH  16  17
BRANCH  16  21
HETATM   21  C           1     -18.128  -9.602  -2.669  0.00  0.00     0.045 C 
BRANCH  21  22
HETATM   22 Se           1     -16.224  -9.661  -3.079  0.00  0.00     0.000 Se
HETATM   23  H           1     -15.800  -9.567  -1.673  0.00  0.00     0.000 HD
ENDBRANCH  21  22
ENDBRANCH  16  21
ENDBRANCH   2  16
TORSDOF 8
ENDMDL
MODEL 5
REMARK VINA RESULT:      -6.2     17.769     18.864
REMARK  8 active torsions:
REMARK  status: ('A' for Active; 'I' for Inactive)
REMARK    1  A    between atoms: C_2  and  C_4 
REMARK    2  A    between atoms: C_4  and  C_5 
REMARK    3  A    between atoms: C_4  and  N_12 
REMARK    4  A    between atoms: C_5  and  C_18 
REMARK    5  A    between atoms: N_7  and  C_10 
REMARK    6  A    between atoms: Se_8  and  C_9 
REMARK    7  A    between atoms: C_9  and  C_10 
REMARK    8  A    between atoms: C_10  and  C_11 
REMARK       I    between atoms: C_11  and  N_12 
ROOT
HETATM    1  O           1     -19.931  -7.776  -5.998  0.00  0.00    -0.271 OA
HETATM    2  C           1     -19.790  -8.442  -5.000  0.00  0.00     0.249 C 
HETATM    3  N           1     -19.976  -7.874  -3.768  0.00  0.00    -0.344 N 
HETATM    4  H           1     -19.196  -7.445  -3.286  0.00  0.00     0.163 HD
ENDROOT
BRANCH   3   5
HETATM    5  C           1     -21.289  -7.890  -3.153  0.00  0.00     0.189 C 
BRANCH   5   6
HETATM    6  C           1     -21.883  -6.503  -3.202  0.00  0.00     0.197 C 
HETATM    7  O           1     -22.018  -5.919  -4.300  0.00  0.00    -0.646 OA
HETATM    8  O           1     -22.239  -5.938  -2.146  0.00  0.00    -0.646 OA
ENDBRANCH   5   6
BRANCH   5   9
HETATM    9  C           1     -21.165  -8.338  -1.704  0.00  0.00     0.074 C 
BRANCH   9  10
HETATM   10  C           1     -22.155  -9.428  -1.431  0.00  0.00    -0.056 A 
HETATM   11  C           1     -22.906  -9.412  -0.256  0.00  0.00     0.007 A 
HETATM   12  C           1     -23.827 -10.427  -0.003  0.00  0.00     0.001 A 
HETATM   13  C           1     -23.999 -11.460  -0.925  0.00  0.00     0.000 A 
HETATM   14  C           1     -23.249 -11.476  -2.100  0.00  0.00     0.001 A 
HETATM   15  C           1     -22.326 -10.460  -2.354  0.00  0.00     0.007 A 
ENDBRANCH   9  10
ENDBRANCH   5   9
ENDBRANCH   3   5
BRANCH   2  16
HETATM   16  C           1     -19.409  -9.898  -5.111  0.00  0.00     0.274 C 
BRANCH  16  17
HETATM   17  N           1     -20.402 -10.607  -5.983  0.00  0.00    -0.067 N 
HETATM   18  H           1     -21.000 -11.230  -5.394  0.00  0.00     0.275 HD
HETATM   19  H           1     -21.005  -9.904  -6.467  0.00  0.00     0.275 HD
HETATM   20  H           1     -19.895 -11.181  -6.693  0.00  0.00     0.275 HD
ENDBRANCH  16  17
BRANCH  16  21
HETATM   21  C           1     -18.021 -10.014  -5.725  0.00  0.00     0.045 C 
BRANCH  21  22
HETATM   22 Se           1     -17.651 -11.881  -6.149  0.00  0.00     0.000 Se
HETATM   23  H           1     -16.279 -11.623  -6.615  0.00  0.00     0.000 HD
ENDBRANCH  21  22
ENDBRANCH  16  21
ENDBRANCH   2  16
TORSDOF 8
ENDMDL
MODEL 6
REMARK VINA RESULT:      -6.1     18.500     20.018
REMARK  8 active torsions:
REMARK  status: ('A' for Active; 'I' for Inactive)
REMARK    1  A    between atoms: C_2  and  C_4 
REMARK    2  A    between atoms: C_4  and  C_5 
REMARK    3  A    between atoms: C_4  and  N_12 
REMARK    4  A    between atoms: C_5  and  C_18 
REMARK    5  A    between atoms: N_7  and  C_10 
REMARK    6  A    between atoms: Se_8  and  C_9 
REMARK    7  A    between atoms: C_9  and  C_10 
REMARK    8  A    between atoms: C_10  and  C_11 
REMARK       I    between atoms: C_11  and  N_12 
ROOT
HETATM    1  O           1     -19.786  -8.501  -4.346  0.00  0.00    -0.271 OA
HETATM    2  C           1     -19.800  -8.988  -3.240  0.00  0.00     0.249 C 
HETATM    3  N           1     -20.121  -8.215  -2.157  0.00  0.00    -0.344 N 
HETATM    4  H           1     -19.394  -7.721  -1.655  0.00  0.00     0.163 HD
ENDROOT
BRANCH   3   5
HETATM    5  C           1     -21.502  -8.104  -1.729  0.00  0.00     0.189 C 
BRANCH   5   6
HETATM    6  C           1     -22.010  -6.714  -2.026  0.00  0.00     0.197 C 
HETATM    7  O           1     -22.399  -5.978  -1.093  0.00  0.00    -0.646 OA
HETATM    8  O           1     -22.044  -6.299  -3.205  0.00  0.00    -0.646 OA
ENDBRANCH   5   6
BRANCH   5   9
HETATM    9  C           1     -21.593  -8.369  -0.233  0.00  0.00     0.074 C 
BRANCH   9  10
HETATM   10  C           1     -22.104  -9.757  -0.001  0.00  0.00    -0.056 A 
HETATM   11  C           1     -21.241 -10.750   0.463  0.00  0.00     0.007 A 
HETATM   12  C           1     -21.717 -12.043   0.679  0.00  0.00     0.001 A 
HETATM   13  C           1     -23.057 -12.344   0.432  0.00  0.00     0.000 A 
HETATM   14  C           1     -23.919 -11.350  -0.031  0.00  0.00     0.001 A 
HETATM   15  C           1     -23.444 -10.057  -0.248  0.00  0.00     0.007 A 
ENDBRANCH   9  10
ENDBRANCH   5   9
ENDBRANCH   3   5
BRANCH   2  16
HETATM   16  C           1     -19.464 -10.447  -3.054  0.00  0.00     0.274 C 
BRANCH  16  17
HETATM   17  N           1     -19.121 -11.052  -4.383  0.00  0.00    -0.067 N 
HETATM   18  H           1     -19.146 -10.312  -5.121  0.00  0.00     0.275 HD
HETATM   19  H           1     -18.163 -11.467  -4.340  0.00  0.00     0.275 HD
HETATM   20  H           1     -19.815 -11.798  -4.616  0.00  0.00     0.275 HD
ENDBRANCH  16  17
BRANCH  16  21
HETATM   21  C           1     -18.274 -10.579  -2.115  0.00  0.00     0.045 C 
BRANCH  21  22
HETATM   22 Se           1     -16.721  -9.703  -2.902  0.00  0.00     0.000 Se
HETATM   23  H           1     -17.376  -9.449  -4.196  0.00  0.00     0.000 HD
ENDBRANCH  21  22
ENDBRANCH  16  21
ENDBRANCH   2  16
TORSDOF 8
ENDMDL
MODEL 7
REMARK VINA RESULT:      -6.0     18.296     19.503
REMARK  8 active torsions:
REMARK  status: ('A' for Active; 'I' for Inactive)
REMARK    1  A    between atoms: C_2  and  C_4 
REMARK    2  A    between atoms: C_4  and  C_5 
REMARK    3  A    between atoms: C_4  and  N_12 
REMARK    4  A    between atoms: C_5  and  C_18 
REMARK    5  A    between atoms: N_7  and  C_10 
REMARK    6  A    between atoms: Se_8  and  C_9 
REMARK    7  A    between atoms: C_9  and  C_10 
REMARK    8  A    between atoms: C_10  and  C_11 
REMARK       I    between atoms: C_11  and  N_12 
ROOT
HETATM    1  O           1     -20.538  -8.081  -4.656  0.00  0.00    -0.271 OA
HETATM    2  C           1     -20.204  -8.650  -3.644  0.00  0.00     0.249 C 
HETATM    3  N           1     -20.325  -8.022  -2.434  0.00  0.00    -0.344 N 
HETATM    4  H           1     -19.560  -7.466  -2.074  0.00  0.00     0.163 HD
ENDROOT
BRANCH   3   5
HETATM    5  C           1     -21.550  -8.153  -1.669  0.00  0.00     0.189 C 
BRANCH   5   6
HETATM    6  C           1     -22.201  -6.799  -1.527  0.00  0.00     0.197 C 
HETATM    7  O           1     -22.240  -6.018  -2.504  0.00  0.00    -0.646 OA
HETATM    8  O           1     -22.700  -6.456  -0.434  0.00  0.00    -0.646 OA
ENDBRANCH   5   6
BRANCH   5   9
HETATM    9  C           1     -21.229  -8.709  -0.289  0.00  0.00     0.074 C 
BRANCH   9  10
HETATM   10  C           1     -22.003  -9.971  -0.066  0.00  0.00    -0.056 A 
HETATM   11  C           1     -21.365 -11.100   0.448  0.00  0.00     0.007 A 
HETATM   12  C           1     -22.086 -12.275   0.656  0.00  0.00     0.001 A 
HETATM   13  C           1     -23.447 -12.322   0.351  0.00  0.00     0.000 A 
HETATM   14  C           1     -24.085 -11.192  -0.162  0.00  0.00     0.001 A 
HETATM   15  C           1     -23.363 -10.017  -0.370  0.00  0.00     0.007 A 
ENDBRANCH   9  10
ENDBRANCH   5   9
ENDBRANCH   3   5
BRANCH   2  16
HETATM   16  C           1     -19.651 -10.053  -3.715  0.00  0.00     0.274 C 
BRANCH  16  17
HETATM   17  N           1     -18.794 -10.313  -2.512  0.00  0.00    -0.067 N 
HETATM   18  H           1     -18.887 -11.314  -2.227  0.00  0.00     0.275 HD
HETATM   19  H           1     -17.796 -10.109  -2.745  0.00  0.00     0.275 HD
HETATM   20  H           1     -19.102  -9.697  -1.726  0.00  0.00     0.275 HD
ENDBRANCH  16  17
BRANCH  16  21
HETATM   21  C           1     -20.800 -11.051  -3.745  0.00  0.00     0.045 C 
BRANCH  21  22
HETATM   22 Se           1     -21.071 -11.679  -5.570  0.00  0.00     0.000 Se
HETATM   23  H           1     -20.653 -10.413  -6.191  0.00  0.00     0.000 HD
ENDBRANCH  21  22
ENDBRANCH  16  21
ENDBRANCH   2  16
TORSDOF 8
ENDMDL
MODEL 8
REMARK VINA RESULT:      -5.9     16.492     18.472
REMARK  8 active torsions:
REMARK  status: ('A' for Active; 'I' for Inactive)
REMARK    1  A    between atoms: C_2  and  C_4 
REMARK    2  A    between atoms: C_4  and  C_5 
REMARK    3  A    between atoms: C_4  and  N_12 
REMARK    4  A    between atoms: C_5  and  C_18 
REMARK    5  A    between atoms: N_7  and  C_10 
REMARK    6  A    between atoms: Se_8  and  C_9 
REMARK    7  A    between atoms: C_9  and  C_10 
REMARK    8  A    between atoms: C_10  and  C_11 
REMARK       I    between atoms: C_11  and  N_12 
ROOT
HETATM    1  O           1     -19.533  -9.895  -2.684  0.00  0.00    -0.271 OA
HETATM    2  C           1     -20.136  -9.684  -3.710  0.00  0.00     0.249 C 
HETATM    3  N           1     -21.293  -8.953  -3.685  0.00  0.00    -0.344 N 
HETATM    4  H           1     -22.183  -9.418  -3.554  0.00  0.00     0.163 HD
ENDROOT
BRANCH   3   5
HETATM    5  C           1     -21.244  -7.513  -3.846  0.00  0.00     0.189 C 
BRANCH   5   6
HETATM    6  C           1     -21.673  -6.848  -2.561  0.00  0.00     0.197 C 
HETATM    7  O           1     -21.262  -7.284  -1.464  0.00  0.00    -0.646 OA
HETATM    8  O           1     -22.441  -5.863  -2.593  0.00  0.00    -0.646 OA
ENDBRANCH   5   6
BRANCH   5   9
HETATM    9  C           1     -22.181  -7.096  -4.971  0.00  0.00     0.074 C 
BRANCH   9  10
HETATM   10  C           1     -21.495  -6.097  -5.850  0.00  0.00    -0.056 A 
HETATM   11  C           1     -22.230  -5.076  -6.452  0.00  0.00     0.007 A 
HETATM   12  C           1     -21.590  -4.145  -7.270  0.00  0.00     0.001 A 
HETATM   13  C           1     -20.214  -4.234  -7.486  0.00  0.00     0.000 A 
HETATM   14  C           1     -19.479  -5.255  -6.882  0.00  0.00     0.001 A 
HETATM   15  C           1     -20.119  -6.186  -6.064  0.00  0.00     0.007 A 
ENDBRANCH   9  10
ENDBRANCH   5   9
ENDBRANCH   3   5
BRANCH   2  16
HETATM   16  C           1     -19.614 -10.228  -5.017  0.00  0.00     0.274 C 
BRANCH  16  17
HETATM   17  N           1     -20.710 -10.203  -6.040  0.00  0.00    -0.067 N 
HETATM   18  H           1     -21.560 -10.673  -5.653  0.00  0.00     0.275 HD
HETATM   19  H           1     -20.940  -9.213  -6.280  0.00  0.00     0.275 HD
HETATM   20  H           1     -20.396 -10.707  -6.900  0.00  0.00     0.275 HD
ENDBRANCH  16  17
BRANCH  16  21
HETATM   21  C           1     -18.452  -9.370  -5.497  0.00  0.00     0.045 C 
BRANCH  21  22
HETATM   22 Se           1     -16.882 -10.493  -5.770  0.00  0.00     0.000 Se
HETATM   23  H           1     -15.973  -9.602  -5.031  0.00  0.00     0.000 HD
ENDBRANCH  21  22
ENDBRANCH  16  21
ENDBRANCH   2  16
TORSDOF 8
ENDMDL
MODEL 9
REMARK VINA RESULT:      -5.5     19.493     20.859
REMARK  8 active torsions:
REMARK  status: ('A' for Active; 'I' for Inactive)
REMARK    1  A    between atoms: C_2  and  C_4 
REMARK    2  A    between atoms: C_4  and  C_5 
REMARK    3  A    between atoms: C_4  and  N_12 
REMARK    4  A    between atoms: C_5  and  C_18 
REMARK    5  A    between atoms: N_7  and  C_10 
REMARK    6  A    between atoms: Se_8  and  C_9 
REMARK    7  A    between atoms: C_9  and  C_10 
REMARK    8  A    between atoms: C_10  and  C_11 
REMARK       I    between atoms: C_11  and  N_12 
ROOT
HETATM    1  O           1     -17.098 -10.197  -4.074  0.00  0.00    -0.271 OA
HETATM    2  C           1     -17.794 -10.027  -3.102  0.00  0.00     0.249 C 
HETATM    3  N           1     -18.611  -8.931  -3.028  0.00  0.00    -0.344 N 
HETATM    4  H           1     -18.269  -8.071  -2.620  0.00  0.00     0.163 HD
ENDROOT
BRANCH   3   5
HETATM    5  C           1     -19.968  -9.003  -3.535  0.00  0.00     0.189 C 
BRANCH   5   6
HETATM    6  C           1     -19.942  -8.980  -5.044  0.00  0.00     0.197 C 
HETATM    7  O           1     -20.103 -10.039  -5.689  0.00  0.00    -0.646 OA
HETATM    8  O           1     -19.759  -7.902  -5.650  0.00  0.00    -0.646 OA
ENDBRANCH   5   6
BRANCH   5   9
HETATM    9  C           1     -20.765  -7.812  -3.022  0.00  0.00     0.074 C 
BRANCH   9  10
HETATM   10  C           1     -21.613  -8.239  -1.864  0.00  0.00    -0.056 A 
HETATM   11  C           1     -22.081  -7.291  -0.955  0.00  0.00     0.007 A 
HETATM   12  C           1     -22.870  -7.689   0.123  0.00  0.00     0.001 A 
HETATM   13  C           1     -23.193  -9.036   0.293  0.00  0.00     0.000 A 
HETATM   14  C           1     -22.726  -9.984  -0.618  0.00  0.00     0.001 A 
HETATM   15  C           1     -21.936  -9.586  -1.696  0.00  0.00     0.007 A 
ENDBRANCH   9  10
ENDBRANCH   5   9
ENDBRANCH   3   5
BRANCH   2  16
HETATM   16  C           1     -17.762 -11.023  -1.968  0.00  0.00     0.274 C 
BRANCH  16  17
HETATM   17  N           1     -18.614 -12.206  -2.320  0.00  0.00    -0.067 N 
HETATM   18  H           1     -18.023 -12.936  -2.779  0.00  0.00     0.275 HD
HETATM   19  H           1     -19.039 -12.600  -1.451  0.00  0.00     0.275 HD
HETATM   20  H           1     -19.371 -11.908  -2.976  0.00  0.00     0.275 HD
ENDBRANCH  16  17
BRANCH  16  21
HETATM   21  C           1     -16.329 -11.480  -1.734  0.00  0.00     0.045 C 
BRANCH  21  22
HETATM   22 Se           1     -16.123 -12.053   0.118  0.00  0.00     0.000 Se
HETATM   23  H           1     -16.382 -10.718   0.681  0.00  0.00     0.000 HD
ENDBRANCH  21  22
ENDBRANCH  16  21
ENDBRANCH   2  16
TORSDOF 8
ENDMDL
