MODEL 1
REMARK VINA RESULT:      -6.4      0.000      0.000
REMARK  9 active torsions:
REMARK  status: ('A' for Active; 'I' for Inactive)
REMARK    1  A    between atoms: C_1  and  C_8 
REMARK    2  A    between atoms: C_1  and  C_2 
REMARK    3  A    between atoms: C_2  and  N_12 
REMARK    4  A    between atoms: C_4  and  C_5 
REMARK    5  A    between atoms: C_5  and  C_11 
REMARK    6  A    between atoms: C_5  and  N_21 
REMARK    7  A    between atoms: C_8  and  C_9 
REMARK    8  A    between atoms: C_9  and  C_10 
REMARK    9  A    between atoms: C_9  and  N_23 
REMARK       I    between atoms: C_10  and  N_21 
ROOT
HETATM    1  C           1     -21.176  -5.875  -6.806  0.00  0.00     0.274 C 
ENDROOT
BRANCH   1   2
HETATM    2  C           1     -21.211  -5.495  -5.332  0.00  0.00     0.044 C 
BRANCH   2   3
HETATM    3  C           1     -21.980  -6.554  -4.552  0.00  0.00     0.030 C 
BRANCH   3   4
HETATM    4  C           1     -21.444  -6.625  -3.129  0.00  0.00     0.248 C 
BRANCH   4   5
HETATM    5  N           1     -22.364  -5.878  -2.210  0.00  0.00    -0.079 N 
HETATM    6  H           1     -21.981  -5.903  -1.237  0.00  0.00     0.274 HD
HETATM    7  H           1     -22.442  -4.885  -2.527  0.00  0.00     0.274 HD
HETATM    8  H           1     -23.308  -6.325  -2.224  0.00  0.00     0.274 HD
ENDBRANCH   4   5
ENDBRANCH   3   4
ENDBRANCH   2   3
ENDBRANCH   1   2
BRANCH   1   9
HETATM    9  C           1     -21.662  -4.712  -7.636  0.00  0.00     0.249 C 
HETATM   10  N           1     -22.142  -4.928  -8.901  0.00  0.00    -0.344 N 
HETATM   11  H           1     -22.170  -5.866  -9.278  0.00  0.00     0.163 HD
HETATM   12  O           1     -21.629  -3.592  -7.186  0.00  0.00    -0.271 OA
BRANCH  10  13
HETATM   13  C           1     -22.610  -3.811  -9.699  0.00  0.00     0.189 C 
BRANCH  13  14
HETATM   14  C           1     -22.045  -3.923 -11.108  0.00  0.00     0.010 C 
HETATM   15  C           1     -22.469  -2.708 -11.923  0.00  0.00     0.012 C 
HETATM   16  C           1     -20.524  -3.985 -11.041  0.00  0.00     0.012 C 
ENDBRANCH  13  14
BRANCH  13  17
HETATM   17  C           1     -24.118  -3.833  -9.757  0.00  0.00     0.197 C 
HETATM   18  O           1     -24.715  -4.879 -10.091  0.00  0.00    -0.646 OA
HETATM   19  O           1     -24.770  -2.806  -9.471  0.00  0.00    -0.646 OA
ENDBRANCH  13  17
ENDBRANCH  10  13
ENDBRANCH   1   9
BRANCH   1  20
HETATM   20  N           1     -19.769  -6.215  -7.201  0.00  0.00    -0.067 N 
HETATM   21  H           1     -19.759  -7.134  -7.699  0.00  0.00     0.275 HD
HETATM   22  H           1     -19.396  -5.472  -7.834  0.00  0.00     0.275 HD
HETATM   23  H           1     -19.171  -6.276  -6.346  0.00  0.00     0.257 HD
ENDBRANCH   1  20
TORSDOF 9
ENDMDL
MODEL 2
REMARK VINA RESULT:      -6.2     13.225     14.671
REMARK  9 active torsions:
REMARK  status: ('A' for Active; 'I' for Inactive)
REMARK    1  A    between atoms: C_1  and  C_8 
REMARK    2  A    between atoms: C_1  and  C_2 
REMARK    3  A    between atoms: C_2  and  N_12 
REMARK    4  A    between atoms: C_4  and  C_5 
REMARK    5  A    between atoms: C_5  and  C_11 
REMARK    6  A    between atoms: C_5  and  N_21 
REMARK    7  A    between atoms: C_8  and  C_9 
REMARK    8  A    between atoms: C_9  and  C_10 
REMARK    9  A    between atoms: C_9  and  N_23 
REMARK       I    between atoms: C_10  and  N_21 
ROOT
HETATM    1  C           1     -34.342  -2.544 -11.971  0.00  0.00     0.274 C 
ENDROOT
BRANCH   1   2
HETATM    2  C           1     -35.117  -3.729 -11.413  0.00  0.00     0.044 C 
BRANCH   2   3
HETATM    3  C           1     -34.217  -4.535 -10.486  0.00  0.00     0.030 C 
BRANCH   3   4
HETATM    4  C           1     -33.890  -5.874 -11.133  0.00  0.00     0.248 C 
BRANCH   4   5
HETATM    5  N           1     -34.806  -6.104 -12.298  0.00  0.00    -0.079 N 
HETATM    6  H           1     -34.479  -6.936 -12.840  0.00  0.00     0.274 HD
HETATM    7  H           1     -35.776  -6.277 -11.949  0.00  0.00     0.274 HD
HETATM    8  H           1     -34.802  -5.262 -12.915  0.00  0.00     0.274 HD
ENDBRANCH   4   5
ENDBRANCH   3   4
ENDBRANCH   2   3
ENDBRANCH   1   2
BRANCH   1   9
HETATM    9  C           1     -35.254  -1.709 -12.837  0.00  0.00     0.249 C 
HETATM   10  N           1     -34.823  -1.267 -14.059  0.00  0.00    -0.344 N 
HETATM   11  H           1     -33.894  -1.500 -14.382  0.00  0.00     0.163 HD
HETATM   12  O           1     -36.365  -1.430 -12.451  0.00  0.00    -0.271 OA
BRANCH  10  13
HETATM   13  C           1     -35.700  -0.465 -14.890  0.00  0.00     0.189 C 
BRANCH  13  14
HETATM   14  C           1     -35.084   0.913 -15.093  0.00  0.00     0.010 C 
HETATM   15  C           1     -36.114   1.840 -15.726  0.00  0.00     0.012 C 
HETATM   16  C           1     -34.650   1.478 -13.747  0.00  0.00     0.012 C 
ENDBRANCH  13  14
BRANCH  13  17
HETATM   17  C           1     -35.878  -1.139 -16.229  0.00  0.00     0.197 C 
HETATM   18  O           1     -36.982  -1.087 -16.812  0.00  0.00    -0.646 OA
HETATM   19  O           1     -34.921  -1.748 -16.754  0.00  0.00    -0.646 OA
ENDBRANCH  13  17
ENDBRANCH  10  13
ENDBRANCH   1   9
BRANCH   1  20
HETATM   20  N           1     -33.825  -1.707 -10.839  0.00  0.00    -0.067 N 
HETATM   21  H           1     -33.932  -2.231  -9.941  0.00  0.00     0.275 HD
HETATM   22  H           1     -32.815  -1.492 -10.998  0.00  0.00     0.275 HD
HETATM   23  H           1     -34.367  -0.815 -10.788  0.00  0.00     0.257 HD
ENDBRANCH   1  20
TORSDOF 9
ENDMDL
MODEL 3
REMARK VINA RESULT:      -5.9     12.821     14.346
REMARK  9 active torsions:
REMARK  status: ('A' for Active; 'I' for Inactive)
REMARK    1  A    between atoms: C_1  and  C_8 
REMARK    2  A    between atoms: C_1  and  C_2 
REMARK    3  A    between atoms: C_2  and  N_12 
REMARK    4  A    between atoms: C_4  and  C_5 
REMARK    5  A    between atoms: C_5  and  C_11 
REMARK    6  A    between atoms: C_5  and  N_21 
REMARK    7  A    between atoms: C_8  and  C_9 
REMARK    8  A    between atoms: C_9  and  C_10 
REMARK    9  A    between atoms: C_9  and  N_23 
REMARK       I    between atoms: C_10  and  N_21 
ROOT
HETATM    1  C           1     -33.900  -3.078 -11.363  0.00  0.00     0.274 C 
ENDROOT
BRANCH   1   2
HETATM    2  C           1     -34.796  -4.175 -10.805  0.00  0.00     0.044 C 
BRANCH   2   3
HETATM    3  C           1     -34.007  -5.473 -10.699  0.00  0.00     0.030 C 
BRANCH   3   4
HETATM    4  C           1     -34.874  -6.544 -10.051  0.00  0.00     0.248 C 
BRANCH   4   5
HETATM    5  N           1     -34.544  -7.882 -10.643  0.00  0.00    -0.079 N 
HETATM    6  H           1     -35.419  -8.446 -10.741  0.00  0.00     0.274 HD
HETATM    7  H           1     -34.109  -7.748 -11.584  0.00  0.00     0.274 HD
HETATM    8  H           1     -33.875  -8.384 -10.017  0.00  0.00     0.274 HD
ENDBRANCH   4   5
ENDBRANCH   3   4
ENDBRANCH   2   3
ENDBRANCH   1   2
BRANCH   1   9
HETATM    9  C           1     -34.563  -2.448 -12.563  0.00  0.00     0.249 C 
HETATM   10  N           1     -35.044  -1.168 -12.486  0.00  0.00    -0.344 N 
HETATM   11  H           1     -34.955  -0.645 -11.625  0.00  0.00     0.163 HD
HETATM   12  O           1     -34.670  -3.073 -13.591  0.00  0.00    -0.271 OA
BRANCH  10  13
HETATM   13  C           1     -35.681  -0.563 -13.639  0.00  0.00     0.189 C 
BRANCH  13  14
HETATM   14  C           1     -36.994   0.080 -13.214  0.00  0.00     0.010 C 
HETATM   15  C           1     -38.067  -0.222 -14.252  0.00  0.00     0.012 C 
HETATM   16  C           1     -37.420  -0.482 -11.863  0.00  0.00     0.012 C 
ENDBRANCH  13  14
BRANCH  13  17
HETATM   17  C           1     -34.770   0.490 -14.221  0.00  0.00     0.197 C 
HETATM   18  O           1     -34.241   1.341 -13.474  0.00  0.00    -0.646 OA
HETATM   19  O           1     -34.543   0.510 -15.450  0.00  0.00    -0.646 OA
ENDBRANCH  13  17
ENDBRANCH  10  13
ENDBRANCH   1   9
BRANCH   1  20
HETATM   20  N           1     -33.676  -2.033 -10.310  0.00  0.00    -0.067 N 
HETATM   21  H           1     -32.743  -2.181  -9.864  0.00  0.00     0.275 HD
HETATM   22  H           1     -33.705  -1.085 -10.750  0.00  0.00     0.275 HD
HETATM   23  H           1     -34.425  -2.103  -9.584  0.00  0.00     0.257 HD
ENDBRANCH   1  20
TORSDOF 9
ENDMDL
MODEL 4
REMARK VINA RESULT:      -5.8     12.591     14.817
REMARK  9 active torsions:
REMARK  status: ('A' for Active; 'I' for Inactive)
REMARK    1  A    between atoms: C_1  and  C_8 
REMARK    2  A    between atoms: C_1  and  C_2 
REMARK    3  A    between atoms: C_2  and  N_12 
REMARK    4  A    between atoms: C_4  and  C_5 
REMARK    5  A    between atoms: C_5  and  C_11 
REMARK    6  A    between atoms: C_5  and  N_21 
REMARK    7  A    between atoms: C_8  and  C_9 
REMARK    8  A    between atoms: C_9  and  C_10 
REMARK    9  A    between atoms: C_9  and  N_23 
REMARK       I    between atoms: C_10  and  N_21 
ROOT
HETATM    1  C           1     -36.876  -0.046 -12.772  0.00  0.00     0.274 C 
ENDROOT
BRANCH   1   2
HETATM    2  C           1     -37.480  -0.481 -11.444  0.00  0.00     0.044 C 
BRANCH   2   3
HETATM    3  C           1     -37.009   0.455 -10.339  0.00  0.00     0.030 C 
BRANCH   3   4
HETATM    4  C           1     -36.910  -0.315  -9.029  0.00  0.00     0.248 C 
BRANCH   4   5
HETATM    5  N           1     -35.923   0.361  -8.124  0.00  0.00    -0.079 N 
HETATM    6  H           1     -35.456   1.143  -8.640  0.00  0.00     0.274 HD
HETATM    7  H           1     -36.422   0.744  -7.290  0.00  0.00     0.274 HD
HETATM    8  H           1     -35.204  -0.331  -7.815  0.00  0.00     0.274 HD
ENDBRANCH   4   5
ENDBRANCH   3   4
ENDBRANCH   2   3
ENDBRANCH   1   2
BRANCH   1   9
HETATM    9  C           1     -35.619  -0.838 -13.037  0.00  0.00     0.249 C 
HETATM   10  N           1     -35.448  -2.065 -12.454  0.00  0.00    -0.344 N 
HETATM   11  H           1     -36.163  -2.441 -11.846  0.00  0.00     0.163 HD
HETATM   12  O           1     -34.764  -0.390 -13.763  0.00  0.00    -0.271 OA
BRANCH  10  13
HETATM   13  C           1     -34.240  -2.826 -12.709  0.00  0.00     0.189 C 
BRANCH  13  14
HETATM   14  C           1     -33.718  -3.403 -11.399  0.00  0.00     0.010 C 
HETATM   15  C           1     -32.395  -4.113 -11.650  0.00  0.00     0.012 C 
HETATM   16  C           1     -33.509  -2.274 -10.397  0.00  0.00     0.012 C 
ENDBRANCH  13  14
BRANCH  13  17
HETATM   17  C           1     -34.549  -3.951 -13.667  0.00  0.00     0.197 C 
HETATM   18  O           1     -34.267  -3.834 -14.879  0.00  0.00    -0.646 OA
HETATM   19  O           1     -35.085  -4.999 -13.248  0.00  0.00    -0.646 OA
ENDBRANCH  13  17
ENDBRANCH  10  13
ENDBRANCH   1   9
BRANCH   1  20
HETATM   20  N           1     -37.863  -0.292 -13.875  0.00  0.00    -0.067 N 
HETATM   21  H           1     -37.464   0.044 -14.781  0.00  0.00     0.275 HD
HETATM   22  H           1     -38.063  -1.315 -13.941  0.00  0.00     0.275 HD
HETATM   23  H           1     -38.749   0.224 -13.671  0.00  0.00     0.257 HD
ENDBRANCH   1  20
TORSDOF 9
ENDMDL
MODEL 5
REMARK VINA RESULT:      -5.8      2.623      6.229
REMARK  9 active torsions:
REMARK  status: ('A' for Active; 'I' for Inactive)
REMARK    1  A    between atoms: C_1  and  C_8 
REMARK    2  A    between atoms: C_1  and  C_2 
REMARK    3  A    between atoms: C_2  and  N_12 
REMARK    4  A    between atoms: C_4  and  C_5 
REMARK    5  A    between atoms: C_5  and  C_11 
REMARK    6  A    between atoms: C_5  and  N_21 
REMARK    7  A    between atoms: C_8  and  C_9 
REMARK    8  A    between atoms: C_9  and  C_10 
REMARK    9  A    between atoms: C_9  and  N_23 
REMARK       I    between atoms: C_10  and  N_21 
ROOT
HETATM    1  C           1     -23.882  -3.880 -10.064  0.00  0.00     0.274 C 
ENDROOT
BRANCH   1   2
HETATM    2  C           1     -23.488  -2.853 -11.116  0.00  0.00     0.044 C 
BRANCH   2   3
HETATM    3  C           1     -24.300  -3.084 -12.383  0.00  0.00     0.030 C 
BRANCH   3   4
HETATM    4  C           1     -23.367  -3.113 -13.586  0.00  0.00     0.248 C 
BRANCH   4   5
HETATM    5  N           1     -21.984  -3.483 -13.138  0.00  0.00    -0.079 N 
HETATM    6  H           1     -21.454  -3.891 -13.943  0.00  0.00     0.274 HD
HETATM    7  H           1     -21.490  -2.630 -12.793  0.00  0.00     0.274 HD
HETATM    8  H           1     -22.045  -4.188 -12.369  0.00  0.00     0.274 HD
ENDBRANCH   4   5
ENDBRANCH   3   4
ENDBRANCH   2   3
ENDBRANCH   1   2
BRANCH   1   9
HETATM    9  C           1     -22.639  -4.504  -9.480  0.00  0.00     0.249 C 
HETATM   10  N           1     -22.542  -4.700  -8.128  0.00  0.00    -0.344 N 
HETATM   11  H           1     -23.303  -4.427  -7.521  0.00  0.00     0.163 HD
HETATM   12  O           1     -21.729  -4.831 -10.204  0.00  0.00    -0.271 OA
BRANCH  10  13
HETATM   13  C           1     -21.347  -5.300  -7.566  0.00  0.00     0.189 C 
BRANCH  13  14
HETATM   14  C           1     -20.424  -4.204  -7.051  0.00  0.00     0.010 C 
HETATM   15  C           1     -19.924  -4.574  -5.661  0.00  0.00     0.012 C 
HETATM   16  C           1     -19.237  -4.056  -7.995  0.00  0.00     0.012 C 
ENDBRANCH  13  14
BRANCH  13  17
HETATM   17  C           1     -21.731  -6.212  -6.426  0.00  0.00     0.197 C 
HETATM   18  O           1     -21.194  -7.335  -6.316  0.00  0.00    -0.646 OA
HETATM   19  O           1     -22.586  -5.843  -5.592  0.00  0.00    -0.646 OA
ENDBRANCH  13  17
ENDBRANCH  10  13
ENDBRANCH   1   9
BRANCH   1  20
HETATM   20  N           1     -24.662  -3.206  -8.974  0.00  0.00    -0.067 N 
HETATM   21  H           1     -24.240  -3.440  -8.047  0.00  0.00     0.275 HD
HETATM   22  H           1     -24.635  -2.171  -9.117  0.00  0.00     0.275 HD
HETATM   23  H           1     -25.653  -3.536  -8.999  0.00  0.00     0.257 HD
ENDBRANCH   1  20
TORSDOF 9
ENDMDL
MODEL 6
REMARK VINA RESULT:      -5.7      1.503      2.043
REMARK  9 active torsions:
REMARK  status: ('A' for Active; 'I' for Inactive)
REMARK    1  A    between atoms: C_1  and  C_8 
REMARK    2  A    between atoms: C_1  and  C_2 
REMARK    3  A    between atoms: C_2  and  N_12 
REMARK    4  A    between atoms: C_4  and  C_5 
REMARK    5  A    between atoms: C_5  and  C_11 
REMARK    6  A    between atoms: C_5  and  N_21 
REMARK    7  A    between atoms: C_8  and  C_9 
REMARK    8  A    between atoms: C_9  and  C_10 
REMARK    9  A    between atoms: C_9  and  N_23 
REMARK       I    between atoms: C_10  and  N_21 
ROOT
HETATM    1  C           1     -21.520  -5.314  -5.966  0.00  0.00     0.274 C 
ENDROOT
BRANCH   1   2
HETATM    2  C           1     -20.708  -6.501  -6.467  0.00  0.00     0.044 C 
BRANCH   2   3
HETATM    3  C           1     -21.079  -7.744  -5.668  0.00  0.00     0.030 C 
BRANCH   3   4
HETATM    4  C           1     -19.847  -8.269  -4.943  0.00  0.00     0.248 C 
BRANCH   4   5
HETATM    5  N           1     -18.912  -8.895  -5.934  0.00  0.00    -0.079 N 
HETATM    6  H           1     -18.871  -8.305  -6.797  0.00  0.00     0.274 HD
HETATM    7  H           1     -17.958  -8.967  -5.516  0.00  0.00     0.274 HD
HETATM    8  H           1     -19.258  -9.850  -6.183  0.00  0.00     0.274 HD
ENDBRANCH   4   5
ENDBRANCH   3   4
ENDBRANCH   2   3
ENDBRANCH   1   2
BRANCH   1   9
HETATM    9  C           1     -21.770  -4.359  -7.107  0.00  0.00     0.249 C 
HETATM   10  N           1     -22.391  -4.800  -8.246  0.00  0.00    -0.344 N 
HETATM   11  H           1     -22.682  -5.766  -8.321  0.00  0.00     0.163 HD
HETATM   12  O           1     -21.423  -3.205  -7.017  0.00  0.00    -0.271 OA
BRANCH  10  13
HETATM   13  C           1     -22.632  -3.882  -9.342  0.00  0.00     0.189 C 
BRANCH  13  14
HETATM   14  C           1     -21.834  -4.328 -10.561  0.00  0.00     0.010 C 
HETATM   15  C           1     -21.962  -3.281 -11.660  0.00  0.00     0.012 C 
HETATM   16  C           1     -20.369  -4.487 -10.176  0.00  0.00     0.012 C 
ENDBRANCH  13  14
BRANCH  13  17
HETATM   17  C           1     -24.103  -3.876  -9.678  0.00  0.00     0.197 C 
HETATM   18  O           1     -24.658  -4.925 -10.071  0.00  0.00    -0.646 OA
HETATM   19  O           1     -24.767  -2.824  -9.561  0.00  0.00    -0.646 OA
ENDBRANCH  13  17
ENDBRANCH  10  13
ENDBRANCH   1   9
BRANCH   1  20
HETATM   20  N           1     -22.832  -5.799  -5.424  0.00  0.00    -0.067 N 
HETATM   21  H           1     -22.763  -6.818  -5.204  0.00  0.00     0.275 HD
HETATM   22  H           1     -23.065  -5.270  -4.554  0.00  0.00     0.275 HD
HETATM   23  H           1     -23.581  -5.645  -6.136  0.00  0.00     0.257 HD
ENDBRANCH   1  20
TORSDOF 9
ENDMDL
MODEL 7
REMARK VINA RESULT:      -5.7     13.045     15.334
REMARK  9 active torsions:
REMARK  status: ('A' for Active; 'I' for Inactive)
REMARK    1  A    between atoms: C_1  and  C_8 
REMARK    2  A    between atoms: C_1  and  C_2 
REMARK    3  A    between atoms: C_2  and  N_12 
REMARK    4  A    between atoms: C_4  and  C_5 
REMARK    5  A    between atoms: C_5  and  C_11 
REMARK    6  A    between atoms: C_5  and  N_21 
REMARK    7  A    between atoms: C_8  and  C_9 
REMARK    8  A    between atoms: C_9  and  C_10 
REMARK    9  A    between atoms: C_9  and  N_23 
REMARK       I    between atoms: C_10  and  N_21 
ROOT
HETATM    1  C           1     -35.893   0.147 -14.543  0.00  0.00     0.274 C 
ENDROOT
BRANCH   1   2
HETATM    2  C           1     -36.478  -0.501 -15.790  0.00  0.00     0.044 C 
BRANCH   2   3
HETATM    3  C           1     -35.350  -0.907 -16.730  0.00  0.00     0.030 C 
BRANCH   3   4
HETATM    4  C           1     -35.122  -2.409 -16.630  0.00  0.00     0.248 C 
BRANCH   4   5
HETATM    5  N           1     -33.779  -2.750 -17.203  0.00  0.00    -0.079 N 
HETATM    6  H           1     -33.898  -3.420 -17.998  0.00  0.00     0.274 HD
HETATM    7  H           1     -33.317  -1.879 -17.549  0.00  0.00     0.274 HD
HETATM    8  H           1     -33.186  -3.190 -16.463  0.00  0.00     0.274 HD
ENDBRANCH   4   5
ENDBRANCH   3   4
ENDBRANCH   2   3
ENDBRANCH   1   2
BRANCH   1   9
HETATM    9  C           1     -35.933  -0.836 -13.399  0.00  0.00     0.249 C 
HETATM   10  N           1     -34.790  -1.484 -13.013  0.00  0.00    -0.344 N 
HETATM   11  H           1     -33.919  -1.303 -13.495  0.00  0.00     0.163 HD
HETATM   12  O           1     -36.973  -1.052 -12.823  0.00  0.00    -0.271 OA
BRANCH  10  13
HETATM   13  C           1     -34.828  -2.429 -11.914  0.00  0.00     0.189 C 
BRANCH  13  14
HETATM   14  C           1     -33.831  -3.550 -12.174  0.00  0.00     0.010 C 
HETATM   15  C           1     -34.060  -4.675 -11.173  0.00  0.00     0.012 C 
HETATM   16  C           1     -34.023  -4.081 -13.589  0.00  0.00     0.012 C 
ENDBRANCH  13  14
BRANCH  13  17
HETATM   17  C           1     -34.466  -1.721 -10.631  0.00  0.00     0.197 C 
HETATM   18  O           1     -35.365  -1.239  -9.908  0.00  0.00    -0.646 OA
HETATM   19  O           1     -33.268  -1.617 -10.291  0.00  0.00    -0.646 OA
ENDBRANCH  13  17
ENDBRANCH  10  13
ENDBRANCH   1   9
BRANCH   1  20
HETATM   20  N           1     -34.471   0.547 -14.808  0.00  0.00    -0.067 N 
HETATM   21  H           1     -34.000   0.779 -13.904  0.00  0.00     0.275 HD
HETATM   22  H           1     -33.968  -0.243 -15.271  0.00  0.00     0.275 HD
HETATM   23  H           1     -34.456   1.384 -15.434  0.00  0.00     0.257 HD
ENDBRANCH   1  20
TORSDOF 9
ENDMDL
MODEL 8
REMARK VINA RESULT:      -5.6      2.881      6.574
REMARK  9 active torsions:
REMARK  status: ('A' for Active; 'I' for Inactive)
REMARK    1  A    between atoms: C_1  and  C_8 
REMARK    2  A    between atoms: C_1  and  C_2 
REMARK    3  A    between atoms: C_2  and  N_12 
REMARK    4  A    between atoms: C_4  and  C_5 
REMARK    5  A    between atoms: C_5  and  C_11 
REMARK    6  A    between atoms: C_5  and  N_21 
REMARK    7  A    between atoms: C_8  and  C_9 
REMARK    8  A    between atoms: C_9  and  C_10 
REMARK    9  A    between atoms: C_9  and  N_23 
REMARK       I    between atoms: C_10  and  N_21 
ROOT
HETATM    1  C           1     -20.516  -5.017  -6.502  0.00  0.00     0.274 C 
ENDROOT
BRANCH   1   2
HETATM    2  C           1     -21.383  -3.921  -7.105  0.00  0.00     0.044 C 
BRANCH   2   3
HETATM    3  C           1     -21.444  -4.093  -8.617  0.00  0.00     0.030 C 
BRANCH   3   4
HETATM    4  C           1     -22.895  -4.246  -9.053  0.00  0.00     0.248 C 
BRANCH   4   5
HETATM    5  N           1     -23.793  -4.104  -7.860  0.00  0.00    -0.079 N 
HETATM    6  H           1     -24.652  -4.684  -7.998  0.00  0.00     0.274 HD
HETATM    7  H           1     -23.289  -4.427  -7.004  0.00  0.00     0.274 HD
HETATM    8  H           1     -24.065  -3.101  -7.747  0.00  0.00     0.274 HD
ENDBRANCH   4   5
ENDBRANCH   3   4
ENDBRANCH   2   3
ENDBRANCH   1   2
BRANCH   1   9
HETATM    9  C           1     -21.352  -5.872  -5.582  0.00  0.00     0.249 C 
HETATM   10  N           1     -20.745  -6.734  -4.708  0.00  0.00    -0.344 N 
HETATM   11  H           1     -19.736  -6.798  -4.680  0.00  0.00     0.163 HD
HETATM   12  O           1     -22.558  -5.796  -5.616  0.00  0.00    -0.271 OA
BRANCH  10  13
HETATM   13  C           1     -21.549  -7.555  -3.824  0.00  0.00     0.189 C 
BRANCH  13  14
HETATM   14  C           1     -20.910  -8.931  -3.688  0.00  0.00     0.010 C 
HETATM   15  C           1     -21.970 -10.005  -3.894  0.00  0.00     0.012 C 
HETATM   16  C           1     -19.817  -9.087  -4.738  0.00  0.00     0.012 C 
ENDBRANCH  13  14
BRANCH  13  17
HETATM   17  C           1     -21.629  -6.901  -2.466  0.00  0.00     0.197 C 
HETATM   18  O           1     -20.961  -7.356  -1.513  0.00  0.00    -0.646 OA
HETATM   19  O           1     -22.363  -5.904  -2.295  0.00  0.00    -0.646 OA
ENDBRANCH  13  17
ENDBRANCH  10  13
ENDBRANCH   1   9
BRANCH   1  20
HETATM   20  N           1     -19.953  -5.870  -7.601  0.00  0.00    -0.067 N 
HETATM   21  H           1     -19.926  -5.321  -8.490  0.00  0.00     0.275 HD
HETATM   22  H           1     -18.985  -6.170  -7.348  0.00  0.00     0.275 HD
HETATM   23  H           1     -20.557  -6.714  -7.731  0.00  0.00     0.257 HD
ENDBRANCH   1  20
TORSDOF 9
ENDMDL
MODEL 9
REMARK VINA RESULT:      -5.5      2.387      6.334
REMARK  9 active torsions:
REMARK  status: ('A' for Active; 'I' for Inactive)
REMARK    1  A    between atoms: C_1  and  C_8 
REMARK    2  A    between atoms: C_1  and  C_2 
REMARK    3  A    between atoms: C_2  and  N_12 
REMARK    4  A    between atoms: C_4  and  C_5 
REMARK    5  A    between atoms: C_5  and  C_11 
REMARK    6  A    between atoms: C_5  and  N_21 
REMARK    7  A    between atoms: C_8  and  C_9 
REMARK    8  A    between atoms: C_9  and  C_10 
REMARK    9  A    between atoms: C_9  and  N_23 
REMARK       I    between atoms: C_10  and  N_21 
ROOT
HETATM    1  C           1     -24.174  -4.695  -9.840  0.00  0.00     0.274 C 
ENDROOT
BRANCH   1   2
HETATM    2  C           1     -23.695  -4.803 -11.281  0.00  0.00     0.044 C 
BRANCH   2   3
HETATM    3  C           1     -24.032  -3.519 -12.027  0.00  0.00     0.030 C 
BRANCH   3   4
HETATM    4  C           1     -22.744  -2.828 -12.456  0.00  0.00     0.248 C 
BRANCH   4   5
HETATM    5  N           1     -22.451  -3.160 -13.888  0.00  0.00    -0.079 N 
HETATM    6  H           1     -23.048  -2.570 -14.513  0.00  0.00     0.274 HD
HETATM    7  H           1     -21.444  -2.970 -14.091  0.00  0.00     0.274 HD
HETATM    8  H           1     -22.658  -4.170 -14.061  0.00  0.00     0.274 HD
ENDBRANCH   4   5
ENDBRANCH   3   4
ENDBRANCH   2   3
ENDBRANCH   1   2
BRANCH   1   9
HETATM    9  C           1     -23.049  -4.186  -8.973  0.00  0.00     0.249 C 
HETATM   10  N           1     -22.167  -5.069  -8.409  0.00  0.00    -0.344 N 
HETATM   11  H           1     -22.269  -6.061  -8.574  0.00  0.00     0.163 HD
HETATM   12  O           1     -22.927  -3.001  -8.776  0.00  0.00    -0.271 OA
BRANCH  10  13
HETATM   13  C           1     -21.085  -4.580  -7.576  0.00  0.00     0.189 C 
BRANCH  13  14
HETATM   14  C           1     -20.900  -5.512  -6.386  0.00  0.00     0.010 C 
HETATM   15  C           1     -20.213  -4.760  -5.254  0.00  0.00     0.012 C 
HETATM   16  C           1     -22.262  -6.008  -5.914  0.00  0.00     0.012 C 
ENDBRANCH  13  14
BRANCH  13  17
HETATM   17  C           1     -19.811  -4.534  -8.383  0.00  0.00     0.197 C 
HETATM   18  O           1     -18.747  -4.151  -7.850  0.00  0.00    -0.646 OA
HETATM   19  O           1     -19.819  -4.881  -9.583  0.00  0.00    -0.646 OA
ENDBRANCH  13  17
ENDBRANCH  10  13
ENDBRANCH   1   9
BRANCH   1  20
HETATM   20  N           1     -25.330  -3.742  -9.768  0.00  0.00    -0.067 N 
HETATM   21  H           1     -25.985  -4.044  -9.011  0.00  0.00     0.275 HD
HETATM   22  H           1     -24.976  -2.781  -9.559  0.00  0.00     0.275 HD
HETATM   23  H           1     -25.835  -3.736 -10.683  0.00  0.00     0.257 HD
ENDBRANCH   1  20
TORSDOF 9
ENDMDL
