MODEL 1
REMARK VINA RESULT:      -5.8      0.000      0.000
REMARK  11 active torsions:
REMARK  status: ('A' for Active; 'I' for Inactive)
REMARK    1  A    between atoms: C_1  and  C_14 
REMARK    2  A    between atoms: C_1  and  C_24 
REMARK    3  A    between atoms: C_2  and  C_19 
REMARK    4  A    between atoms: N_6  and  C_14 
REMARK    5  A    between atoms: N_10  and  C_15 
REMARK    6  A    between atoms: C_12  and  C_16 
REMARK    7  A    between atoms: C_12  and  C_19 
REMARK    8  A    between atoms: N_13  and  C_19 
REMARK       I    between atoms: N_13  and  C_18 
REMARK    9  A    between atoms: C_14  and  C_18 
REMARK   10  A    between atoms: C_15  and  C_16 
REMARK   11  A    between atoms: S_23  and  C_24 
ROOT
HETATM    1  O           1     -21.482  -3.573  -7.141  0.00  0.00    -0.271 OA
HETATM    2  H           1     -22.323  -5.805  -9.180  0.00  0.00     0.163 HD
HETATM    3  N           1     -22.207  -4.871  -8.808  0.00  0.00    -0.345 N 
HETATM    4  C           1     -21.620  -4.689  -7.585  0.00  0.00     0.249 C 
ENDROOT
BRANCH   3   5
HETATM    5  C           1     -22.664  -3.725  -9.571  0.00  0.00     0.185 C 
BRANCH   5   6
HETATM    6  C           1     -24.158  -3.811  -9.759  0.00  0.00     0.196 C 
HETATM    7  O           1     -24.882  -2.834  -9.467  0.00  0.00    -0.646 OA
HETATM    8  O           1     -24.672  -4.858 -10.209  0.00  0.00    -0.646 OA
ENDBRANCH   5   6
BRANCH   5   9
HETATM    9  C           1     -21.979  -3.717 -10.931  0.00  0.00     0.038 C 
BRANCH   9  10
HETATM   10  C           1     -22.555  -2.594 -11.783  0.00  0.00     0.030 C 
BRANCH  10  11
HETATM   11  C           1     -22.771  -3.094 -13.206  0.00  0.00     0.230 C 
BRANCH  11  12
HETATM   12  N           1     -23.946  -4.025 -13.236  0.00  0.00    -0.079 N 
HETATM   13  H           1     -24.824  -3.483 -13.077  0.00  0.00     0.274 HD
HETATM   14  H           1     -23.992  -4.498 -14.168  0.00  0.00     0.274 HD
HETATM   15  H           1     -23.841  -4.745 -12.486  0.00  0.00     0.274 HD
ENDBRANCH  11  12
ENDBRANCH  10  11
ENDBRANCH   9  10
ENDBRANCH   5   9
ENDBRANCH   3   5
BRANCH   4  16
HETATM   16  C           1     -21.145  -5.881  -6.791  0.00  0.00     0.275 C 
BRANCH  16  17
HETATM   17  C           1     -21.105  -5.523  -5.311  0.00  0.00     0.053 C 
BRANCH  17  18
HETATM   18  C           1     -21.910  -6.545  -4.519  0.00  0.00     0.076 C 
BRANCH  18  19
HETATM   19  S           1     -21.657  -6.273  -2.744  0.00  0.00    -0.173 SA
HETATM   20  C           1     -20.952  -7.908  -2.390  0.00  0.00     0.089 C 
ENDBRANCH  18  19
ENDBRANCH  17  18
ENDBRANCH  16  17
BRANCH  16  21
HETATM   21  N           1     -19.770  -6.270  -7.248  0.00  0.00    -0.066 N 
HETATM   22  H           1     -19.838  -7.062  -7.926  0.00  0.00     0.275 HD
HETATM   23  H           1     -19.314  -5.452  -7.711  0.00  0.00     0.275 HD
HETATM   24  H           1     -19.201  -6.566  -6.423  0.00  0.00     0.275 HD
ENDBRANCH  16  21
ENDBRANCH   4  16
TORSDOF 11
ENDMDL
MODEL 2
REMARK VINA RESULT:      -5.5     10.720     12.700
REMARK  11 active torsions:
REMARK  status: ('A' for Active; 'I' for Inactive)
REMARK    1  A    between atoms: C_1  and  C_14 
REMARK    2  A    between atoms: C_1  and  C_24 
REMARK    3  A    between atoms: C_2  and  C_19 
REMARK    4  A    between atoms: N_6  and  C_14 
REMARK    5  A    between atoms: N_10  and  C_15 
REMARK    6  A    between atoms: C_12  and  C_16 
REMARK    7  A    between atoms: C_12  and  C_19 
REMARK    8  A    between atoms: N_13  and  C_19 
REMARK       I    between atoms: N_13  and  C_18 
REMARK    9  A    between atoms: C_14  and  C_18 
REMARK   10  A    between atoms: C_15  and  C_16 
REMARK   11  A    between atoms: S_23  and  C_24 
ROOT
HETATM    1  O           1     -27.697  -6.096 -16.002  0.00  0.00    -0.271 OA
HETATM    2  H           1     -27.949  -7.087 -18.968  0.00  0.00     0.163 HD
HETATM    3  N           1     -28.252  -6.825 -18.038  0.00  0.00    -0.345 N 
HETATM    4  C           1     -27.335  -6.408 -17.111  0.00  0.00     0.249 C 
ENDROOT
BRANCH   3   5
HETATM    5  C           1     -29.657  -6.892 -17.689  0.00  0.00     0.185 C 
BRANCH   5   6
HETATM    6  C           1     -30.359  -7.857 -18.613  0.00  0.00     0.196 C 
HETATM    7  O           1     -29.700  -8.718 -19.234  0.00  0.00    -0.646 OA
HETATM    8  O           1     -31.599  -7.795 -18.756  0.00  0.00    -0.646 OA
ENDBRANCH   5   6
BRANCH   5   9
HETATM    9  C           1     -30.281  -5.509 -17.829  0.00  0.00     0.038 C 
BRANCH   9  10
HETATM   10  C           1     -30.971  -5.129 -16.526  0.00  0.00     0.030 C 
BRANCH  10  11
HETATM   11  C           1     -32.416  -4.739 -16.811  0.00  0.00     0.230 C 
BRANCH  11  12
HETATM   12  N           1     -33.257  -5.976 -16.910  0.00  0.00    -0.079 N 
HETATM   13  H           1     -34.265  -5.708 -16.970  0.00  0.00     0.274 HD
HETATM   14  H           1     -32.987  -6.514 -17.765  0.00  0.00     0.274 HD
HETATM   15  H           1     -33.106  -6.570 -16.063  0.00  0.00     0.274 HD
ENDBRANCH  11  12
ENDBRANCH  10  11
ENDBRANCH   9  10
ENDBRANCH   5   9
ENDBRANCH   3   5
BRANCH   4  16
HETATM   16  C           1     -25.872  -6.339 -17.475  0.00  0.00     0.275 C 
BRANCH  16  17
HETATM   17  C           1     -25.698  -6.688 -18.948  0.00  0.00     0.053 C 
BRANCH  17  18
HETATM   18  C           1     -24.247  -7.066 -19.212  0.00  0.00     0.076 C 
BRANCH  18  19
HETATM   19  S           1     -24.134  -7.987 -20.771  0.00  0.00    -0.173 SA
HETATM   20  C           1     -25.916  -8.026 -21.109  0.00  0.00     0.089 C 
ENDBRANCH  18  19
ENDBRANCH  17  18
ENDBRANCH  16  17
BRANCH  16  21
HETATM   21  N           1     -25.102  -7.316 -16.637  0.00  0.00    -0.066 N 
HETATM   22  H           1     -24.078  -7.165 -16.777  0.00  0.00     0.275 HD
HETATM   23  H           1     -25.341  -7.173 -15.630  0.00  0.00     0.275 HD
HETATM   24  H           1     -25.352  -8.291 -16.920  0.00  0.00     0.275 HD
ENDBRANCH  16  21
ENDBRANCH   4  16
TORSDOF 11
ENDMDL
MODEL 3
REMARK VINA RESULT:      -5.2      3.298      6.623
REMARK  11 active torsions:
REMARK  status: ('A' for Active; 'I' for Inactive)
REMARK    1  A    between atoms: C_1  and  C_14 
REMARK    2  A    between atoms: C_1  and  C_24 
REMARK    3  A    between atoms: C_2  and  C_19 
REMARK    4  A    between atoms: N_6  and  C_14 
REMARK    5  A    between atoms: N_10  and  C_15 
REMARK    6  A    between atoms: C_12  and  C_16 
REMARK    7  A    between atoms: C_12  and  C_19 
REMARK    8  A    between atoms: N_13  and  C_19 
REMARK       I    between atoms: N_13  and  C_18 
REMARK    9  A    between atoms: C_14  and  C_18 
REMARK   10  A    between atoms: C_15  and  C_16 
REMARK   11  A    between atoms: S_23  and  C_24 
ROOT
HETATM    1  O           1     -23.710  -4.055  -7.589  0.00  0.00    -0.271 OA
HETATM    2  H           1     -21.691  -5.265  -9.662  0.00  0.00     0.163 HD
HETATM    3  N           1     -22.015  -4.884  -8.782  0.00  0.00    -0.345 N 
HETATM    4  C           1     -23.323  -4.510  -8.639  0.00  0.00     0.249 C 
ENDROOT
BRANCH   3   5
HETATM    5  C           1     -21.092  -4.735  -7.673  0.00  0.00     0.185 C 
BRANCH   5   6
HETATM    6  C           1     -19.750  -4.282  -8.194  0.00  0.00     0.196 C 
HETATM    7  O           1     -18.729  -4.414  -7.485  0.00  0.00    -0.646 OA
HETATM    8  O           1     -19.660  -3.778  -9.334  0.00  0.00    -0.646 OA
ENDBRANCH   5   6
BRANCH   5   9
HETATM    9  C           1     -20.937  -6.071  -6.960  0.00  0.00     0.038 C 
BRANCH   9  10
HETATM   10  C           1     -21.078  -5.865  -5.458  0.00  0.00     0.030 C 
BRANCH  10  11
HETATM   11  C           1     -22.245  -6.694  -4.938  0.00  0.00     0.230 C 
BRANCH  11  12
HETATM   12  N           1     -23.535  -6.004  -5.270  0.00  0.00    -0.079 N 
HETATM   13  H           1     -23.860  -6.310  -6.215  0.00  0.00     0.274 HD
HETATM   14  H           1     -24.257  -6.254  -4.556  0.00  0.00     0.274 HD
HETATM   15  H           1     -23.388  -4.970  -5.270  0.00  0.00     0.274 HD
ENDBRANCH  11  12
ENDBRANCH  10  11
ENDBRANCH   9  10
ENDBRANCH   5   9
ENDBRANCH   3   5
BRANCH   4  16
HETATM   16  C           1     -24.283  -4.666  -9.793  0.00  0.00     0.275 C 
BRANCH  16  17
HETATM   17  C           1     -23.516  -4.583 -11.107  0.00  0.00     0.053 C 
BRANCH  17  18
HETATM   18  C           1     -24.277  -3.697 -12.085  0.00  0.00     0.076 C 
BRANCH  18  19
HETATM   19  S           1     -23.107  -2.645 -12.988  0.00  0.00    -0.173 SA
HETATM   20  C           1     -21.767  -2.743 -11.767  0.00  0.00     0.089 C 
ENDBRANCH  18  19
ENDBRANCH  17  18
ENDBRANCH  16  17
BRANCH  16  21
HETATM   21  N           1     -25.306  -3.570  -9.743  0.00  0.00    -0.066 N 
HETATM   22  H           1     -25.505  -3.232 -10.712  0.00  0.00     0.275 HD
HETATM   23  H           1     -26.186  -3.936  -9.315  0.00  0.00     0.275 HD
HETATM   24  H           1     -24.941  -2.778  -9.167  0.00  0.00     0.275 HD
ENDBRANCH  16  21
ENDBRANCH   4  16
TORSDOF 11
ENDMDL
MODEL 4
REMARK VINA RESULT:      -5.1      3.600      7.463
REMARK  11 active torsions:
REMARK  status: ('A' for Active; 'I' for Inactive)
REMARK    1  A    between atoms: C_1  and  C_14 
REMARK    2  A    between atoms: C_1  and  C_24 
REMARK    3  A    between atoms: C_2  and  C_19 
REMARK    4  A    between atoms: N_6  and  C_14 
REMARK    5  A    between atoms: N_10  and  C_15 
REMARK    6  A    between atoms: C_12  and  C_16 
REMARK    7  A    between atoms: C_12  and  C_19 
REMARK    8  A    between atoms: N_13  and  C_19 
REMARK       I    between atoms: N_13  and  C_18 
REMARK    9  A    between atoms: C_14  and  C_18 
REMARK   10  A    between atoms: C_15  and  C_16 
REMARK   11  A    between atoms: S_23  and  C_24 
ROOT
HETATM    1  O           1     -19.602  -4.557  -5.866  0.00  0.00    -0.271 OA
HETATM    2  H           1     -22.532  -5.659  -6.068  0.00  0.00     0.163 HD
HETATM    3  N           1     -21.591  -5.561  -5.710  0.00  0.00    -0.345 N 
HETATM    4  C           1     -20.726  -4.675  -6.293  0.00  0.00     0.249 C 
ENDROOT
BRANCH   3   5
HETATM    5  C           1     -21.158  -6.358  -4.578  0.00  0.00     0.185 C 
BRANCH   5   6
HETATM    6  C           1     -20.667  -7.698  -5.067  0.00  0.00     0.196 C 
HETATM    7  O           1     -19.731  -8.275  -4.472  0.00  0.00    -0.646 OA
HETATM    8  O           1     -21.196  -8.232  -6.066  0.00  0.00    -0.646 OA
ENDBRANCH   5   6
BRANCH   5   9
HETATM    9  C           1     -22.329  -6.562  -3.626  0.00  0.00     0.038 C 
BRANCH   9  10
HETATM   10  C           1     -21.908  -6.176  -2.214  0.00  0.00     0.030 C 
BRANCH  10  11
HETATM   11  C           1     -21.850  -7.423  -1.341  0.00  0.00     0.230 C 
BRANCH  11  12
HETATM   12  N           1     -20.479  -8.025  -1.419  0.00  0.00    -0.079 N 
HETATM   13  H           1     -20.009  -7.709  -2.297  0.00  0.00     0.274 HD
HETATM   14  H           1     -19.917  -7.718  -0.592  0.00  0.00     0.274 HD
HETATM   15  H           1     -20.555  -9.068  -1.421  0.00  0.00     0.274 HD
ENDBRANCH  11  12
ENDBRANCH  10  11
ENDBRANCH   9  10
ENDBRANCH   5   9
ENDBRANCH   3   5
BRANCH   4  16
HETATM   16  C           1     -21.177  -3.846  -7.471  0.00  0.00     0.275 C 
BRANCH  16  17
HETATM   17  C           1     -22.567  -4.292  -7.906  0.00  0.00     0.053 C 
BRANCH  17  18
HETATM   18  C           1     -22.545  -4.657  -9.384  0.00  0.00     0.076 C 
BRANCH  18  19
HETATM   19  S           1     -23.744  -3.633 -10.280  0.00  0.00    -0.173 SA
HETATM   20  C           1     -22.589  -3.037 -11.548  0.00  0.00     0.089 C 
ENDBRANCH  18  19
ENDBRANCH  17  18
ENDBRANCH  16  17
BRANCH  16  21
HETATM   21  N           1     -20.216  -4.029  -8.608  0.00  0.00    -0.066 N 
HETATM   22  H           1     -20.728  -3.946  -9.515  0.00  0.00     0.275 HD
HETATM   23  H           1     -19.474  -3.295  -8.558  0.00  0.00     0.275 HD
HETATM   24  H           1     -19.776  -4.975  -8.543  0.00  0.00     0.275 HD
ENDBRANCH  16  21
ENDBRANCH   4  16
TORSDOF 11
ENDMDL
MODEL 5
REMARK VINA RESULT:      -5.1      9.914     12.699
REMARK  11 active torsions:
REMARK  status: ('A' for Active; 'I' for Inactive)
REMARK    1  A    between atoms: C_1  and  C_14 
REMARK    2  A    between atoms: C_1  and  C_24 
REMARK    3  A    between atoms: C_2  and  C_19 
REMARK    4  A    between atoms: N_6  and  C_14 
REMARK    5  A    between atoms: N_10  and  C_15 
REMARK    6  A    between atoms: C_12  and  C_16 
REMARK    7  A    between atoms: C_12  and  C_19 
REMARK    8  A    between atoms: N_13  and  C_19 
REMARK       I    between atoms: N_13  and  C_18 
REMARK    9  A    between atoms: C_14  and  C_18 
REMARK   10  A    between atoms: C_15  and  C_16 
REMARK   11  A    between atoms: S_23  and  C_24 
ROOT
HETATM    1  O           1     -27.538  -5.928 -19.419  0.00  0.00    -0.271 OA
HETATM    2  H           1     -24.982  -7.232 -18.152  0.00  0.00     0.163 HD
HETATM    3  N           1     -25.875  -6.758 -18.181  0.00  0.00    -0.345 N 
HETATM    4  C           1     -26.471  -6.494 -19.384  0.00  0.00     0.249 C 
ENDROOT
BRANCH   3   5
HETATM    5  C           1     -26.524  -6.359 -16.947  0.00  0.00     0.185 C 
BRANCH   5   6
HETATM    6  C           1     -25.527  -6.409 -15.816  0.00  0.00     0.196 C 
HETATM    7  O           1     -24.965  -5.360 -15.432  0.00  0.00    -0.646 OA
HETATM    8  O           1     -25.263  -7.498 -15.263  0.00  0.00    -0.646 OA
ENDBRANCH   5   6
BRANCH   5   9
HETATM    9  C           1     -27.677  -7.309 -16.651  0.00  0.00     0.038 C 
BRANCH   9  10
HETATM   10  C           1     -28.973  -6.517 -16.540  0.00  0.00     0.030 C 
BRANCH  10  11
HETATM   11  C           1     -30.089  -7.264 -17.259  0.00  0.00     0.230 C 
BRANCH  11  12
HETATM   12  N           1     -29.497  -8.157 -18.309  0.00  0.00    -0.079 N 
HETATM   13  H           1     -29.749  -9.149 -18.104  0.00  0.00     0.274 HD
HETATM   14  H           1     -29.874  -7.887 -19.247  0.00  0.00     0.274 HD
HETATM   15  H           1     -28.457  -8.055 -18.309  0.00  0.00     0.274 HD
ENDBRANCH  11  12
ENDBRANCH  10  11
ENDBRANCH   9  10
ENDBRANCH   5   9
ENDBRANCH   3   5
BRANCH   4  16
HETATM   16  C           1     -25.796  -6.909 -20.668  0.00  0.00     0.275 C 
BRANCH  16  17
HETATM   17  C           1     -24.617  -7.821 -20.351  0.00  0.00     0.053 C 
BRANCH  17  18
HETATM   18  C           1     -23.906  -8.200 -21.642  0.00  0.00     0.076 C 
BRANCH  18  19
HETATM   19  S           1     -22.181  -8.632 -21.281  0.00  0.00    -0.173 SA
HETATM   20  C           1     -21.817  -9.370 -22.899  0.00  0.00     0.089 C 
ENDBRANCH  18  19
ENDBRANCH  17  18
ENDBRANCH  16  17
BRANCH  16  21
HETATM   21  N           1     -25.303  -5.690 -21.391  0.00  0.00    -0.066 N 
HETATM   22  H           1     -24.330  -5.470 -21.082  0.00  0.00     0.275 HD
HETATM   23  H           1     -25.310  -5.871 -22.420  0.00  0.00     0.275 HD
HETATM   24  H           1     -25.928  -4.881 -21.174  0.00  0.00     0.275 HD
ENDBRANCH  16  21
ENDBRANCH   4  16
TORSDOF 11
ENDMDL
MODEL 6
REMARK VINA RESULT:      -5.0      2.962      4.422
REMARK  11 active torsions:
REMARK  status: ('A' for Active; 'I' for Inactive)
REMARK    1  A    between atoms: C_1  and  C_14 
REMARK    2  A    between atoms: C_1  and  C_24 
REMARK    3  A    between atoms: C_2  and  C_19 
REMARK    4  A    between atoms: N_6  and  C_14 
REMARK    5  A    between atoms: N_10  and  C_15 
REMARK    6  A    between atoms: C_12  and  C_16 
REMARK    7  A    between atoms: C_12  and  C_19 
REMARK    8  A    between atoms: N_13  and  C_19 
REMARK       I    between atoms: N_13  and  C_18 
REMARK    9  A    between atoms: C_14  and  C_18 
REMARK   10  A    between atoms: C_15  and  C_16 
REMARK   11  A    between atoms: S_23  and  C_24 
ROOT
HETATM    1  O           1     -22.193  -7.347  -4.913  0.00  0.00    -0.271 OA
HETATM    2  H           1     -20.612  -4.637  -4.913  0.00  0.00     0.163 HD
HETATM    3  N           1     -21.133  -5.417  -5.290  0.00  0.00    -0.345 N 
HETATM    4  C           1     -21.570  -6.415  -4.462  0.00  0.00     0.249 C 
ENDROOT
BRANCH   3   5
HETATM    5  C           1     -21.419  -5.479  -6.711  0.00  0.00     0.185 C 
BRANCH   5   6
HETATM    6  C           1     -20.144  -5.762  -7.467  0.00  0.00     0.196 C 
HETATM    7  O           1     -19.442  -6.750  -7.160  0.00  0.00    -0.646 OA
HETATM    8  O           1     -19.791  -5.010  -8.401  0.00  0.00    -0.646 OA
ENDBRANCH   5   6
BRANCH   5   9
HETATM    9  C           1     -21.996  -4.146  -7.169  0.00  0.00     0.038 C 
BRANCH   9  10
HETATM   10  C           1     -23.423  -4.353  -7.660  0.00  0.00     0.030 C 
BRANCH  10  11
HETATM   11  C           1     -23.498  -4.042  -9.150  0.00  0.00     0.230 C 
BRANCH  11  12
HETATM   12  N           1     -24.933  -4.036  -9.587  0.00  0.00    -0.079 N 
HETATM   13  H           1     -25.546  -3.829  -8.768  0.00  0.00     0.274 HD
HETATM   14  H           1     -25.070  -3.304 -10.321  0.00  0.00     0.274 HD
HETATM   15  H           1     -25.182  -4.972  -9.980  0.00  0.00     0.274 HD
ENDBRANCH  11  12
ENDBRANCH  10  11
ENDBRANCH   9  10
ENDBRANCH   5   9
ENDBRANCH   3   5
BRANCH   4  16
HETATM   16  C           1     -21.273  -6.351  -2.983  0.00  0.00     0.275 C 
BRANCH  16  17
HETATM   17  C           1     -20.971  -7.751  -2.464  0.00  0.00     0.053 C 
BRANCH  17  18
HETATM   18  C           1     -21.615  -7.936  -1.097  0.00  0.00     0.076 C 
BRANCH  18  19
HETATM   19  S           1     -21.307  -9.623  -0.504  0.00  0.00    -0.173 SA
HETATM   20  C           1     -23.046 -10.140  -0.458  0.00  0.00     0.089 C 
ENDBRANCH  18  19
ENDBRANCH  17  18
ENDBRANCH  16  17
BRANCH  16  21
HETATM   21  N           1     -22.462  -5.796  -2.258  0.00  0.00    -0.066 N 
HETATM   22  H           1     -22.881  -6.539  -1.654  0.00  0.00     0.275 HD
HETATM   23  H           1     -22.162  -4.991  -1.662  0.00  0.00     0.275 HD
HETATM   24  H           1     -23.173  -5.470  -2.952  0.00  0.00     0.275 HD
ENDBRANCH  16  21
ENDBRANCH   4  16
TORSDOF 11
ENDMDL
MODEL 7
REMARK VINA RESULT:      -5.0      2.437      3.071
REMARK  11 active torsions:
REMARK  status: ('A' for Active; 'I' for Inactive)
REMARK    1  A    between atoms: C_1  and  C_14 
REMARK    2  A    between atoms: C_1  and  C_24 
REMARK    3  A    between atoms: C_2  and  C_19 
REMARK    4  A    between atoms: N_6  and  C_14 
REMARK    5  A    between atoms: N_10  and  C_15 
REMARK    6  A    between atoms: C_12  and  C_16 
REMARK    7  A    between atoms: C_12  and  C_19 
REMARK    8  A    between atoms: N_13  and  C_19 
REMARK       I    between atoms: N_13  and  C_18 
REMARK    9  A    between atoms: C_14  and  C_18 
REMARK   10  A    between atoms: C_15  and  C_16 
REMARK   11  A    between atoms: S_23  and  C_24 
ROOT
HETATM    1  O           1     -20.942  -6.863  -7.124  0.00  0.00    -0.271 OA
HETATM    2  H           1     -22.148  -4.000  -6.689  0.00  0.00     0.163 HD
HETATM    3  N           1     -21.786  -4.797  -7.196  0.00  0.00    -0.345 N 
HETATM    4  C           1     -21.375  -5.912  -6.518  0.00  0.00     0.249 C 
ENDROOT
BRANCH   3   5
HETATM    5  C           1     -21.701  -4.756  -8.643  0.00  0.00     0.185 C 
BRANCH   5   6
HETATM    6  C           1     -20.299  -4.379  -9.054  0.00  0.00     0.196 C 
HETATM    7  O           1     -19.602  -3.659  -8.306  0.00  0.00    -0.646 OA
HETATM    8  O           1     -19.834  -4.787 -10.140  0.00  0.00    -0.646 OA
ENDBRANCH   5   6
BRANCH   5   9
HETATM    9  C           1     -22.683  -3.723  -9.180  0.00  0.00     0.038 C 
BRANCH   9  10
HETATM   10  C           1     -23.188  -4.164 -10.547  0.00  0.00     0.030 C 
BRANCH  10  11
HETATM   11  C           1     -22.739  -3.162 -11.603  0.00  0.00     0.230 C 
BRANCH  11  12
HETATM   12  N           1     -21.667  -3.778 -12.453  0.00  0.00    -0.079 N 
HETATM   13  H           1     -21.522  -4.772 -12.164  0.00  0.00     0.274 HD
HETATM   14  H           1     -21.957  -3.745 -13.457  0.00  0.00     0.274 HD
HETATM   15  H           1     -20.776  -3.247 -12.330  0.00  0.00     0.274 HD
ENDBRANCH  11  12
ENDBRANCH  10  11
ENDBRANCH   9  10
ENDBRANCH   5   9
ENDBRANCH   3   5
BRANCH   4  16
HETATM   16  C           1     -21.464  -5.954  -5.012  0.00  0.00     0.275 C 
BRANCH  16  17
HETATM   17  C           1     -20.567  -7.065  -4.481  0.00  0.00     0.053 C 
BRANCH  17  18
HETATM   18  C           1     -21.429  -8.198  -3.940  0.00  0.00     0.076 C 
BRANCH  18  19
HETATM   19  S           1     -21.003  -9.743  -4.792  0.00  0.00    -0.173 SA
HETATM   20  C           1     -19.256  -9.341  -5.073  0.00  0.00     0.089 C 
ENDBRANCH  18  19
ENDBRANCH  17  18
ENDBRANCH  16  17
BRANCH  16  21
HETATM   21  N           1     -22.882  -6.218  -4.602  0.00  0.00    -0.066 N 
HETATM   22  H           1     -22.913  -7.046  -3.966  0.00  0.00     0.275 HD
HETATM   23  H           1     -23.261  -5.382  -4.103  0.00  0.00     0.275 HD
HETATM   24  H           1     -23.460  -6.410  -5.451  0.00  0.00     0.275 HD
ENDBRANCH  16  21
ENDBRANCH   4  16
TORSDOF 11
ENDMDL
MODEL 8
REMARK VINA RESULT:      -4.9      3.455      7.481
REMARK  11 active torsions:
REMARK  status: ('A' for Active; 'I' for Inactive)
REMARK    1  A    between atoms: C_1  and  C_14 
REMARK    2  A    between atoms: C_1  and  C_24 
REMARK    3  A    between atoms: C_2  and  C_19 
REMARK    4  A    between atoms: N_6  and  C_14 
REMARK    5  A    between atoms: N_10  and  C_15 
REMARK    6  A    between atoms: C_12  and  C_16 
REMARK    7  A    between atoms: C_12  and  C_19 
REMARK    8  A    between atoms: N_13  and  C_19 
REMARK       I    between atoms: N_13  and  C_18 
REMARK    9  A    between atoms: C_14  and  C_18 
REMARK   10  A    between atoms: C_15  and  C_16 
REMARK   11  A    between atoms: S_23  and  C_24 
ROOT
HETATM    1  O           1     -22.634  -5.562  -5.751  0.00  0.00    -0.271 OA
HETATM    2  H           1     -19.774  -6.456  -4.824  0.00  0.00     0.163 HD
HETATM    3  N           1     -20.785  -6.449  -4.868  0.00  0.00    -0.345 N 
HETATM    4  C           1     -21.427  -5.572  -5.699  0.00  0.00     0.249 C 
ENDROOT
BRANCH   3   5
HETATM    5  C           1     -21.553  -7.368  -4.050  0.00  0.00     0.185 C 
BRANCH   5   6
HETATM    6  C           1     -21.584  -6.868  -2.627  0.00  0.00     0.196 C 
HETATM    7  O           1     -22.339  -5.923  -2.313  0.00  0.00    -0.646 OA
HETATM    8  O           1     -20.855  -7.400  -1.762  0.00  0.00    -0.646 OA
ENDBRANCH   5   6
BRANCH   5   9
HETATM    9  C           1     -20.905  -8.745  -4.091  0.00  0.00     0.038 C 
BRANCH   9  10
HETATM   10  C           1     -19.620  -8.678  -4.906  0.00  0.00     0.030 C 
BRANCH  10  11
HETATM   11  C           1     -18.503  -9.392  -4.155  0.00  0.00     0.230 C 
BRANCH  11  12
HETATM   12  N           1     -18.713  -9.234  -2.678  0.00  0.00    -0.079 N 
HETATM   13  H           1     -18.784  -8.219  -2.443  0.00  0.00     0.274 HD
HETATM   14  H           1     -19.595  -9.720  -2.398  0.00  0.00     0.274 HD
HETATM   15  H           1     -17.906  -9.654  -2.164  0.00  0.00     0.274 HD
ENDBRANCH  11  12
ENDBRANCH  10  11
ENDBRANCH   9  10
ENDBRANCH   5   9
ENDBRANCH   3   5
BRANCH   4  16
HETATM   16  C           1     -20.627  -4.615  -6.549  0.00  0.00     0.275 C 
BRANCH  16  17
HETATM   17  C           1     -21.576  -3.704  -7.319  0.00  0.00     0.053 C 
BRANCH  17  18
HETATM   18  C           1     -21.630  -4.142  -8.776  0.00  0.00     0.076 C 
BRANCH  18  19
HETATM   19  S           1     -23.353  -4.137  -9.347  0.00  0.00    -0.173 SA
HETATM   20  C           1     -22.989  -4.528 -11.082  0.00  0.00     0.089 C 
ENDBRANCH  18  19
ENDBRANCH  17  18
ENDBRANCH  16  17
BRANCH  16  21
HETATM   21  N           1     -19.786  -5.392  -7.519  0.00  0.00    -0.066 N 
HETATM   22  H           1     -19.519  -6.308  -7.094  0.00  0.00     0.275 HD
HETATM   23  H           1     -20.331  -5.559  -8.394  0.00  0.00     0.275 HD
HETATM   24  H           1     -18.922  -4.848  -7.743  0.00  0.00     0.275 HD
ENDBRANCH  16  21
ENDBRANCH   4  16
TORSDOF 11
ENDMDL
MODEL 9
REMARK VINA RESULT:      -4.9      3.041      4.580
REMARK  11 active torsions:
REMARK  status: ('A' for Active; 'I' for Inactive)
REMARK    1  A    between atoms: C_1  and  C_14 
REMARK    2  A    between atoms: C_1  and  C_24 
REMARK    3  A    between atoms: C_2  and  C_19 
REMARK    4  A    between atoms: N_6  and  C_14 
REMARK    5  A    between atoms: N_10  and  C_15 
REMARK    6  A    between atoms: C_12  and  C_16 
REMARK    7  A    between atoms: C_12  and  C_19 
REMARK    8  A    between atoms: N_13  and  C_19 
REMARK       I    between atoms: N_13  and  C_18 
REMARK    9  A    between atoms: C_14  and  C_18 
REMARK   10  A    between atoms: C_15  and  C_16 
REMARK   11  A    between atoms: S_23  and  C_24 
ROOT
HETATM    1  O           1     -22.217  -5.211 -11.790  0.00  0.00    -0.271 OA
HETATM    2  H           1     -21.712  -2.216 -12.574  0.00  0.00     0.163 HD
HETATM    3  N           1     -22.169  -3.119 -12.568  0.00  0.00    -0.345 N 
HETATM    4  C           1     -21.671  -4.133 -11.797  0.00  0.00     0.249 C 
ENDROOT
BRANCH   3   5
HETATM    5  C           1     -23.352  -3.337 -13.378  0.00  0.00     0.185 C 
BRANCH   5   6
HETATM    6  C           1     -23.337  -2.392 -14.554  0.00  0.00     0.196 C 
HETATM    7  O           1     -24.188  -1.478 -14.631  0.00  0.00    -0.646 OA
HETATM    8  O           1     -22.475  -2.520 -15.449  0.00  0.00    -0.646 OA
ENDBRANCH   5   6
BRANCH   5   9
HETATM    9  C           1     -24.596  -3.083 -12.537  0.00  0.00     0.038 C 
BRANCH   9  10
HETATM   10  C           1     -24.184  -2.755 -11.108  0.00  0.00     0.030 C 
BRANCH  10  11
HETATM   11  C           1     -24.964  -3.633 -10.139  0.00  0.00     0.230 C 
BRANCH  11  12
HETATM   12  N           1     -24.319  -3.580  -8.785  0.00  0.00    -0.079 N 
HETATM   13  H           1     -24.325  -4.533  -8.359  0.00  0.00     0.274 HD
HETATM   14  H           1     -23.333  -3.247  -8.883  0.00  0.00     0.274 HD
HETATM   15  H           1     -24.850  -2.921  -8.172  0.00  0.00     0.274 HD
ENDBRANCH  11  12
ENDBRANCH  10  11
ENDBRANCH   9  10
ENDBRANCH   5   9
ENDBRANCH   3   5
BRANCH   4  16
HETATM   16  C           1     -20.440  -3.905 -10.954  0.00  0.00     0.275 C 
BRANCH  16  17
HETATM   17  C           1     -20.807  -4.010  -9.479  0.00  0.00     0.053 C 
BRANCH  17  18
HETATM   18  C           1     -19.813  -4.922  -8.772  0.00  0.00     0.076 C 
BRANCH  18  19
HETATM   19  S           1     -19.970  -4.715  -6.977  0.00  0.00    -0.173 SA
HETATM   20  C           1     -21.051  -6.147  -6.704  0.00  0.00     0.089 C 
ENDBRANCH  18  19
ENDBRANCH  17  18
ENDBRANCH  16  17
BRANCH  16  21
HETATM   21  N           1     -19.888  -2.539 -11.234  0.00  0.00    -0.066 N 
HETATM   22  H           1     -19.607  -2.474 -12.239  0.00  0.00     0.275 HD
HETATM   23  H           1     -20.620  -1.821 -11.031  0.00  0.00     0.275 HD
HETATM   24  H           1     -19.054  -2.369 -10.628  0.00  0.00     0.275 HD
ENDBRANCH  16  21
ENDBRANCH   4  16
TORSDOF 11
ENDMDL
