MODEL 1
REMARK VINA RESULT:      -6.7      0.000      0.000
REMARK  11 active torsions:
REMARK  status: ('A' for Active; 'I' for Inactive)
REMARK    1  A    between atoms: N_1  and  C_23 
REMARK    2  A    between atoms: C_6  and  C_7 
REMARK    3  A    between atoms: C_7  and  C_28 
REMARK    4  A    between atoms: C_10  and  C_19 
REMARK    5  A    between atoms: C_10  and  N_14 
REMARK    6  A    between atoms: C_19  and  C_25 
REMARK    7  A    between atoms: N_21  and  C_28 
REMARK       I    between atoms: N_21  and  C_22 
REMARK    8  A    between atoms: C_22  and  C_23 
REMARK    9  A    between atoms: C_23  and  C_24 
REMARK   10  A    between atoms: C_24  and  C_25 
REMARK   11  A    between atoms: C_26  and  C_28 
ROOT
HETATM    1  O           1     -21.175  -3.094  -6.877  0.00  0.00    -0.271 OA
HETATM    2  H           1     -23.599  -4.481  -7.335  0.00  0.00     0.163 HD
HETATM    3  N           1     -22.851  -4.134  -7.922  0.00  0.00    -0.344 N 
HETATM    4  C           1     -21.569  -4.085  -7.443  0.00  0.00     0.249 C 
ENDROOT
BRANCH   4   5
HETATM    5  C           1     -20.652  -5.270  -7.621  0.00  0.00     0.274 C 
BRANCH   5   6
HETATM    6  N           1     -19.244  -4.863  -7.301  0.00  0.00    -0.067 N 
HETATM    7  H           1     -19.102  -4.885  -6.266  0.00  0.00     0.275 HD
HETATM    8  H           1     -18.578  -5.527  -7.758  0.00  0.00     0.275 HD
HETATM    9  H           1     -19.072  -3.896  -7.656  0.00  0.00     0.275 HD
ENDBRANCH   5   6
BRANCH   5  10
HETATM   10  C           1     -21.081  -6.391  -6.683  0.00  0.00     0.043 C 
BRANCH  10  11
HETATM   11  C           1     -20.780  -5.994  -5.244  0.00  0.00     0.006 C 
BRANCH  11  12
HETATM   12  C           1     -21.857  -6.555  -4.326  0.00  0.00     0.421 C 
BRANCH  12  13
HETATM   13  C           1     -21.357  -6.538  -2.887  0.00  0.00     0.231 C 
BRANCH  13  14
HETATM   14  N           1     -22.378  -5.873  -2.011  0.00  0.00    -0.079 N 
HETATM   15  H           1     -23.335  -6.101  -2.359  0.00  0.00     0.274 HD
HETATM   16  H           1     -22.235  -4.838  -2.034  0.00  0.00     0.274 HD
HETATM   17  H           1     -22.271  -6.216  -1.030  0.00  0.00     0.274 HD
ENDBRANCH  13  14
ENDBRANCH  12  13
ENDBRANCH  11  12
ENDBRANCH  10  11
ENDBRANCH   5  10
ENDBRANCH   4   5
BRANCH   3  18
HETATM   18  C           1     -23.137  -3.691  -9.273  0.00  0.00     0.191 C 
BRANCH  18  19
HETATM   19  C           1     -22.423  -4.598 -10.266  0.00  0.00     0.094 C 
BRANCH  19  20
HETATM   20  C           1     -22.666  -4.104 -11.658  0.00  0.00     0.034 A 
HETATM   21  C           1     -21.865  -3.203 -12.318  0.00  0.00     0.212 A 
HETATM   22  N           1     -22.450  -3.038 -13.544  0.00  0.00    -0.073 N 
HETATM   23  C           1     -23.563  -3.829 -13.576  0.00  0.00     0.277 A 
HETATM   24  H           1     -22.108  -2.415 -14.317  0.00  0.00     0.272 HD
HETATM   25  N           1     -23.718  -4.486 -12.449  0.00  0.00    -0.349 N 
ATOM     26  HN          1     -24.464  -5.141 -12.213  1.00  0.00     0.166 HD
ENDBRANCH  19  20
ENDBRANCH  18  19
BRANCH  18  27
HETATM   27  C           1     -24.625  -3.749  -9.517  0.00  0.00     0.197 C 
HETATM   28  O           1     -25.290  -2.692  -9.571  0.00  0.00    -0.646 OA
HETATM   29  O           1     -25.192  -4.853  -9.664  0.00  0.00    -0.646 OA
ENDBRANCH  18  27
ENDBRANCH   3  18
TORSDOF 11
ENDMDL
MODEL 2
REMARK VINA RESULT:      -6.3      3.780      7.895
REMARK  11 active torsions:
REMARK  status: ('A' for Active; 'I' for Inactive)
REMARK    1  A    between atoms: N_1  and  C_23 
REMARK    2  A    between atoms: C_6  and  C_7 
REMARK    3  A    between atoms: C_7  and  C_28 
REMARK    4  A    between atoms: C_10  and  C_19 
REMARK    5  A    between atoms: C_10  and  N_14 
REMARK    6  A    between atoms: C_19  and  C_25 
REMARK    7  A    between atoms: N_21  and  C_28 
REMARK       I    between atoms: N_21  and  C_22 
REMARK    8  A    between atoms: C_22  and  C_23 
REMARK    9  A    between atoms: C_23  and  C_24 
REMARK   10  A    between atoms: C_24  and  C_25 
REMARK   11  A    between atoms: C_26  and  C_28 
ROOT
HETATM    1  O           1     -22.756  -6.168  -4.779  0.00  0.00    -0.271 OA
HETATM    2  H           1     -21.233  -5.682  -2.444  0.00  0.00     0.163 HD
HETATM    3  N           1     -21.404  -6.488  -3.031  0.00  0.00    -0.344 N 
HETATM    4  C           1     -21.630  -6.324  -4.372  0.00  0.00     0.249 C 
ENDROOT
BRANCH   4   5
HETATM    5  C           1     -20.472  -6.337  -5.339  0.00  0.00     0.274 C 
BRANCH   5   6
HETATM    6  N           1     -20.867  -7.078  -6.581  0.00  0.00    -0.067 N 
HETATM    7  H           1     -21.885  -6.929  -6.768  0.00  0.00     0.275 HD
HETATM    8  H           1     -20.309  -6.723  -7.390  0.00  0.00     0.275 HD
HETATM    9  H           1     -20.684  -8.098  -6.450  0.00  0.00     0.275 HD
ENDBRANCH   5   6
BRANCH   5  10
HETATM   10  C           1     -20.096  -4.905  -5.701  0.00  0.00     0.043 C 
BRANCH  10  11
HETATM   11  C           1     -20.348  -4.674  -7.185  0.00  0.00     0.006 C 
BRANCH  11  12
HETATM   12  C           1     -21.425  -3.611  -7.358  0.00  0.00     0.421 C 
BRANCH  12  13
HETATM   13  C           1     -22.661  -4.238  -7.991  0.00  0.00     0.231 C 
BRANCH  13  14
HETATM   14  N           1     -23.699  -4.474  -6.933  0.00  0.00    -0.079 N 
HETATM   15  H           1     -24.423  -5.132  -7.299  0.00  0.00     0.274 HD
HETATM   16  H           1     -24.150  -3.567  -6.679  0.00  0.00     0.274 HD
HETATM   17  H           1     -23.246  -4.887  -6.087  0.00  0.00     0.274 HD
ENDBRANCH  13  14
ENDBRANCH  12  13
ENDBRANCH  11  12
ENDBRANCH  10  11
ENDBRANCH   5  10
ENDBRANCH   4   5
BRANCH   3  18
HETATM   18  C           1     -21.408  -7.818  -2.453  0.00  0.00     0.191 C 
BRANCH  18  19
HETATM   19  C           1     -19.976  -8.250  -2.165  0.00  0.00     0.094 C 
BRANCH  19  20
HETATM   20  C           1     -19.490  -9.138  -3.268  0.00  0.00     0.034 A 
HETATM   21  C           1     -18.167  -9.398  -3.536  0.00  0.00     0.212 A 
HETATM   22  N           1     -18.183 -10.244  -4.611  0.00  0.00    -0.073 N 
HETATM   23  C           1     -19.490 -10.458  -4.945  0.00  0.00     0.277 A 
HETATM   24  H           1     -17.344 -10.654  -5.091  0.00  0.00     0.272 HD
HETATM   25  N           1     -20.303  -9.801  -4.150  0.00  0.00    -0.349 N 
ATOM     26  HN          1     -21.322  -9.787  -4.182  1.00  0.00     0.166 HD
ENDBRANCH  19  20
ENDBRANCH  18  19
BRANCH  18  27
HETATM   27  C           1     -22.198  -7.805  -1.167  0.00  0.00     0.197 C 
HETATM   28  O           1     -22.708  -6.739  -0.759  0.00  0.00    -0.646 OA
HETATM   29  O           1     -22.343  -8.858  -0.511  0.00  0.00    -0.646 OA
ENDBRANCH  18  27
ENDBRANCH   3  18
TORSDOF 11
ENDMDL
MODEL 3
REMARK VINA RESULT:      -6.2      2.571      3.351
REMARK  11 active torsions:
REMARK  status: ('A' for Active; 'I' for Inactive)
REMARK    1  A    between atoms: N_1  and  C_23 
REMARK    2  A    between atoms: C_6  and  C_7 
REMARK    3  A    between atoms: C_7  and  C_28 
REMARK    4  A    between atoms: C_10  and  C_19 
REMARK    5  A    between atoms: C_10  and  N_14 
REMARK    6  A    between atoms: C_19  and  C_25 
REMARK    7  A    between atoms: N_21  and  C_28 
REMARK       I    between atoms: N_21  and  C_22 
REMARK    8  A    between atoms: C_22  and  C_23 
REMARK    9  A    between atoms: C_23  and  C_24 
REMARK   10  A    between atoms: C_24  and  C_25 
REMARK   11  A    between atoms: C_26  and  C_28 
ROOT
HETATM    1  O           1     -20.295  -4.990  -4.858  0.00  0.00    -0.271 OA
HETATM    2  H           1     -22.768  -4.193  -5.980  0.00  0.00     0.163 HD
HETATM    3  N           1     -22.020  -4.812  -6.265  0.00  0.00    -0.344 N 
HETATM    4  C           1     -21.293  -5.488  -5.321  0.00  0.00     0.249 C 
ENDROOT
BRANCH   4   5
HETATM    5  C           1     -21.740  -6.853  -4.861  0.00  0.00     0.274 C 
BRANCH   5   6
HETATM    6  N           1     -21.109  -7.903  -5.727  0.00  0.00    -0.067 N 
HETATM    7  H           1     -21.513  -8.838  -5.492  0.00  0.00     0.275 HD
HETATM    8  H           1     -21.297  -7.685  -6.731  0.00  0.00     0.275 HD
HETATM    9  H           1     -20.078  -7.918  -5.559  0.00  0.00     0.275 HD
ENDBRANCH   5   6
BRANCH   5  10
HETATM   10  C           1     -21.314  -7.067  -3.413  0.00  0.00     0.043 C 
BRANCH  10  11
HETATM   11  C           1     -22.195  -6.228  -2.496  0.00  0.00     0.006 C 
BRANCH  11  12
HETATM   12  C           1     -22.236  -6.862  -1.112  0.00  0.00     0.421 C 
BRANCH  12  13
HETATM   13  C           1     -21.299  -8.063  -1.076  0.00  0.00     0.231 C 
BRANCH  13  14
HETATM   14  N           1     -21.197  -8.575   0.331  0.00  0.00    -0.079 N 
HETATM   15  H           1     -22.151  -8.806   0.686  0.00  0.00     0.274 HD
HETATM   16  H           1     -20.767  -7.841   0.938  0.00  0.00     0.274 HD
HETATM   17  H           1     -20.601  -9.433   0.346  0.00  0.00     0.274 HD
ENDBRANCH  13  14
ENDBRANCH  12  13
ENDBRANCH  11  12
ENDBRANCH  10  11
ENDBRANCH   5  10
ENDBRANCH   4   5
BRANCH   3  18
HETATM   18  C           1     -21.718  -4.985  -7.673  0.00  0.00     0.191 C 
BRANCH  18  19
HETATM   19  C           1     -22.232  -3.782  -8.453  0.00  0.00     0.094 C 
BRANCH  19  20
HETATM   20  C           1     -22.540  -4.193  -9.859  0.00  0.00     0.034 A 
HETATM   21  C           1     -21.697  -4.007 -10.929  0.00  0.00     0.212 A 
HETATM   22  N           1     -22.370  -4.523 -12.004  0.00  0.00    -0.073 N 
HETATM   23  C           1     -23.570  -4.990 -11.550  0.00  0.00     0.277 A 
HETATM   24  H           1     -22.026  -4.553 -12.995  0.00  0.00     0.272 HD
HETATM   25  N           1     -23.700  -4.804 -10.256  0.00  0.00    -0.349 N 
ATOM     26  HN          1     -24.496  -5.060  -9.671  1.00  0.00     0.166 HD
ENDBRANCH  19  20
ENDBRANCH  18  19
BRANCH  18  27
HETATM   27  C           1     -20.224  -5.103  -7.856  0.00  0.00     0.197 C 
HETATM   28  O           1     -19.530  -4.073  -7.992  0.00  0.00    -0.646 OA
HETATM   29  O           1     -19.683  -6.229  -7.873  0.00  0.00    -0.646 OA
ENDBRANCH  18  27
ENDBRANCH   3  18
TORSDOF 11
ENDMDL
MODEL 4
REMARK VINA RESULT:      -6.0      3.151      7.956
REMARK  11 active torsions:
REMARK  status: ('A' for Active; 'I' for Inactive)
REMARK    1  A    between atoms: N_1  and  C_23 
REMARK    2  A    between atoms: C_6  and  C_7 
REMARK    3  A    between atoms: C_7  and  C_28 
REMARK    4  A    between atoms: C_10  and  C_19 
REMARK    5  A    between atoms: C_10  and  N_14 
REMARK    6  A    between atoms: C_19  and  C_25 
REMARK    7  A    between atoms: N_21  and  C_28 
REMARK       I    between atoms: N_21  and  C_22 
REMARK    8  A    between atoms: C_22  and  C_23 
REMARK    9  A    between atoms: C_23  and  C_24 
REMARK   10  A    between atoms: C_24  and  C_25 
REMARK   11  A    between atoms: C_26  and  C_28 
ROOT
HETATM    1  O           1     -19.341  -6.551  -7.310  0.00  0.00    -0.271 OA
HETATM    2  H           1     -21.566  -8.028  -6.375  0.00  0.00     0.163 HD
HETATM    3  N           1     -20.797  -7.537  -5.935  0.00  0.00    -0.344 N 
HETATM    4  C           1     -20.259  -6.430  -6.534  0.00  0.00     0.249 C 
ENDROOT
BRANCH   4   5
HETATM    5  C           1     -20.814  -5.062  -6.227  0.00  0.00     0.274 C 
BRANCH   5   6
HETATM    6  N           1     -20.073  -4.473  -5.063  0.00  0.00    -0.067 N 
HETATM    7  H           1     -20.082  -3.430  -5.136  0.00  0.00     0.275 HD
HETATM    8  H           1     -20.537  -4.763  -4.173  0.00  0.00     0.275 HD
HETATM    9  H           1     -19.086  -4.814  -5.071  0.00  0.00     0.275 HD
ENDBRANCH   5   6
BRANCH   5  10
HETATM   10  C           1     -20.646  -4.160  -7.443  0.00  0.00     0.043 C 
BRANCH  10  11
HETATM   11  C           1     -22.016  -3.712  -7.937  0.00  0.00     0.006 C 
BRANCH  11  12
HETATM   12  C           1     -22.460  -4.608  -9.084  0.00  0.00     0.421 C 
BRANCH  12  13
HETATM   13  C           1     -23.472  -3.866  -9.948  0.00  0.00     0.231 C 
BRANCH  13  14
HETATM   14  N           1     -24.582  -3.345  -9.082  0.00  0.00    -0.079 N 
HETATM   15  H           1     -25.498  -3.511  -9.556  0.00  0.00     0.274 HD
HETATM   16  H           1     -24.451  -2.320  -8.926  0.00  0.00     0.274 HD
HETATM   17  H           1     -24.568  -3.842  -8.163  0.00  0.00     0.274 HD
ENDBRANCH  13  14
ENDBRANCH  12  13
ENDBRANCH  11  12
ENDBRANCH  10  11
ENDBRANCH   5  10
ENDBRANCH   4   5
BRANCH   3  18
HETATM   18  C           1     -20.267  -8.006  -4.670  0.00  0.00     0.191 C 
BRANCH  18  19
HETATM   19  C           1     -21.386  -8.645  -3.857  0.00  0.00     0.094 C 
BRANCH  19  20
HETATM   20  C           1     -21.743  -7.752  -2.710  0.00  0.00     0.034 A 
HETATM   21  C           1     -21.886  -6.388  -2.798  0.00  0.00     0.212 A 
HETATM   22  N           1     -22.211  -5.983  -1.532  0.00  0.00    -0.073 N 
HETATM   23  C           1     -22.249  -7.097  -0.743  0.00  0.00     0.277 A 
HETATM   24  H           1     -22.396  -4.996  -1.224  0.00  0.00     0.272 HD
HETATM   25  N           1     -21.970  -8.181  -1.429  0.00  0.00    -0.349 N 
ATOM     26  HN          1     -21.931  -9.140  -1.081  1.00  0.00     0.166 HD
ENDBRANCH  19  20
ENDBRANCH  18  19
BRANCH  18  27
HETATM   27  C           1     -19.185  -9.027  -4.925  0.00  0.00     0.197 C 
HETATM   28  O           1     -19.215  -9.721  -5.964  0.00  0.00    -0.646 OA
HETATM   29  O           1     -18.260  -9.178  -4.099  0.00  0.00    -0.646 OA
ENDBRANCH  18  27
ENDBRANCH   3  18
TORSDOF 11
ENDMDL
MODEL 5
REMARK VINA RESULT:      -5.6      4.145      9.106
REMARK  11 active torsions:
REMARK  status: ('A' for Active; 'I' for Inactive)
REMARK    1  A    between atoms: N_1  and  C_23 
REMARK    2  A    between atoms: C_6  and  C_7 
REMARK    3  A    between atoms: C_7  and  C_28 
REMARK    4  A    between atoms: C_10  and  C_19 
REMARK    5  A    between atoms: C_10  and  N_14 
REMARK    6  A    between atoms: C_19  and  C_25 
REMARK    7  A    between atoms: N_21  and  C_28 
REMARK       I    between atoms: N_21  and  C_22 
REMARK    8  A    between atoms: C_22  and  C_23 
REMARK    9  A    between atoms: C_23  and  C_24 
REMARK   10  A    between atoms: C_24  and  C_25 
REMARK   11  A    between atoms: C_26  and  C_28 
ROOT
HETATM    1  O           1     -21.385  -9.191  -5.825  0.00  0.00    -0.271 OA
HETATM    2  H           1     -22.378  -8.983  -3.183  0.00  0.00     0.163 HD
HETATM    3  N           1     -21.500  -8.762  -3.637  0.00  0.00    -0.344 N 
HETATM    4  C           1     -21.487  -8.367  -4.947  0.00  0.00     0.249 C 
ENDROOT
BRANCH   4   5
HETATM    5  C           1     -21.601  -6.904  -5.295  0.00  0.00     0.274 C 
BRANCH   5   6
HETATM    6  N           1     -22.196  -6.160  -4.136  0.00  0.00    -0.067 N 
HETATM    7  H           1     -21.494  -5.485  -3.758  0.00  0.00     0.275 HD
HETATM    8  H           1     -23.043  -5.638  -4.457  0.00  0.00     0.275 HD
HETATM    9  H           1     -22.465  -6.838  -3.389  0.00  0.00     0.275 HD
ENDBRANCH   5   6
BRANCH   5  10
HETATM   10  C           1     -20.216  -6.344  -5.599  0.00  0.00     0.043 C 
BRANCH  10  11
HETATM   11  C           1     -20.354  -5.054  -6.397  0.00  0.00     0.006 C 
BRANCH  11  12
HETATM   12  C           1     -21.382  -5.249  -7.503  0.00  0.00     0.421 C 
BRANCH  12  13
HETATM   13  C           1     -22.118  -3.938  -7.750  0.00  0.00     0.231 C 
BRANCH  13  14
HETATM   14  N           1     -23.598  -4.181  -7.721  0.00  0.00    -0.079 N 
HETATM   15  H           1     -24.075  -3.486  -8.337  0.00  0.00     0.274 HD
HETATM   16  H           1     -23.949  -4.079  -6.743  0.00  0.00     0.274 HD
HETATM   17  H           1     -23.798  -5.148  -8.063  0.00  0.00     0.274 HD
ENDBRANCH  13  14
ENDBRANCH  12  13
ENDBRANCH  11  12
ENDBRANCH  10  11
ENDBRANCH   5  10
ENDBRANCH   4   5
BRANCH   3  18
HETATM   18  C           1     -20.256  -8.864  -2.898  0.00  0.00     0.191 C 
BRANCH  18  19
HETATM   19  C           1     -20.308  -7.938  -1.690  0.00  0.00     0.094 C 
BRANCH  19  20
HETATM   20  C           1     -21.552  -8.212  -0.903  0.00  0.00     0.034 A 
HETATM   21  C           1     -22.467  -7.256  -0.531  0.00  0.00     0.212 A 
HETATM   22  N           1     -23.430  -7.937   0.162  0.00  0.00    -0.073 N 
HETATM   23  C           1     -23.066  -9.253   0.183  0.00  0.00     0.277 A 
HETATM   24  H           1     -24.291  -7.524   0.598  0.00  0.00     0.272 HD
HETATM   25  N           1     -21.933  -9.449  -0.453  0.00  0.00    -0.349 N 
ATOM     26  HN          1     -21.442 -10.333  -0.585  1.00  0.00     0.166 HD
ENDBRANCH  19  20
ENDBRANCH  18  19
BRANCH  18  27
HETATM   27  C           1     -20.063 -10.287  -2.433  0.00  0.00     0.197 C 
HETATM   28  O           1     -19.116 -10.570  -1.669  0.00  0.00    -0.646 OA
HETATM   29  O           1     -20.848 -11.181  -2.813  0.00  0.00    -0.646 OA
ENDBRANCH  18  27
ENDBRANCH   3  18
TORSDOF 11
ENDMDL
MODEL 6
REMARK VINA RESULT:      -5.5      4.927      7.005
REMARK  11 active torsions:
REMARK  status: ('A' for Active; 'I' for Inactive)
REMARK    1  A    between atoms: N_1  and  C_23 
REMARK    2  A    between atoms: C_6  and  C_7 
REMARK    3  A    between atoms: C_7  and  C_28 
REMARK    4  A    between atoms: C_10  and  C_19 
REMARK    5  A    between atoms: C_10  and  N_14 
REMARK    6  A    between atoms: C_19  and  C_25 
REMARK    7  A    between atoms: N_21  and  C_28 
REMARK       I    between atoms: N_21  and  C_22 
REMARK    8  A    between atoms: C_22  and  C_23 
REMARK    9  A    between atoms: C_23  and  C_24 
REMARK   10  A    between atoms: C_24  and  C_25 
REMARK   11  A    between atoms: C_26  and  C_28 
ROOT
HETATM    1  O           1     -19.859 -10.088  -2.604  0.00  0.00    -0.271 OA
HETATM    2  H           1     -22.408  -9.274  -3.527  0.00  0.00     0.163 HD
HETATM    3  N           1     -21.477  -8.878  -3.555  0.00  0.00    -0.344 N 
HETATM    4  C           1     -20.384  -9.699  -3.621  0.00  0.00     0.249 C 
ENDROOT
BRANCH   4   5
HETATM    5  C           1     -19.836 -10.119  -4.962  0.00  0.00     0.274 C 
BRANCH   5   6
HETATM    6  N           1     -20.921 -10.036  -5.994  0.00  0.00    -0.067 N 
HETATM    7  H           1     -20.780  -9.182  -6.580  0.00  0.00     0.275 HD
HETATM    8  H           1     -20.888 -10.885  -6.602  0.00  0.00     0.275 HD
HETATM    9  H           1     -21.849  -9.982  -5.518  0.00  0.00     0.275 HD
ENDBRANCH   5   6
BRANCH   5  10
HETATM   10  C           1     -18.690  -9.195  -5.356  0.00  0.00     0.043 C 
BRANCH  10  11
HETATM   11  C           1     -17.499 -10.027  -5.813  0.00  0.00     0.006 C 
BRANCH  11  12
HETATM   12  C           1     -16.356  -9.867  -4.820  0.00  0.00     0.421 C 
BRANCH  12  13
HETATM   13  C           1     -16.426 -10.978  -3.780  0.00  0.00     0.231 C 
BRANCH  13  14
HETATM   14  N           1     -16.858 -10.404  -2.462  0.00  0.00    -0.079 N 
HETATM   15  H           1     -17.846 -10.684  -2.270  0.00  0.00     0.274 HD
HETATM   16  H           1     -16.791  -9.362  -2.498  0.00  0.00     0.274 HD
HETATM   17  H           1     -16.237 -10.767  -1.705  0.00  0.00     0.274 HD
ENDBRANCH  13  14
ENDBRANCH  12  13
ENDBRANCH  11  12
ENDBRANCH  10  11
ENDBRANCH   5  10
ENDBRANCH   4   5
BRANCH   3  18
HETATM   18  C           1     -21.301  -7.439  -3.527  0.00  0.00     0.191 C 
BRANCH  18  19
HETATM   19  C           1     -22.086  -6.809  -4.670  0.00  0.00     0.094 C 
BRANCH  19  20
HETATM   20  C           1     -21.138  -6.151  -5.624  0.00  0.00     0.034 A 
HETATM   21  C           1     -20.442  -4.995  -5.360  0.00  0.00     0.212 A 
HETATM   22  N           1     -19.708  -4.757  -6.490  0.00  0.00    -0.073 N 
HETATM   23  C           1     -19.984  -5.759  -7.376  0.00  0.00     0.277 A 
HETATM   24  H           1     -19.053  -3.952  -6.647  0.00  0.00     0.272 HD
HETATM   25  N           1     -20.846  -6.616  -6.879  0.00  0.00    -0.349 N 
ATOM     26  HN          1     -21.219  -7.452  -7.331  1.00  0.00     0.166 HD
ENDBRANCH  19  20
ENDBRANCH  18  19
BRANCH  18  27
HETATM   27  C           1     -21.807  -6.896  -2.212  0.00  0.00     0.197 C 
HETATM   28  O           1     -22.567  -5.905  -2.197  0.00  0.00    -0.646 OA
HETATM   29  O           1     -21.465  -7.438  -1.139  0.00  0.00    -0.646 OA
ENDBRANCH  18  27
ENDBRANCH   3  18
TORSDOF 11
ENDMDL
MODEL 7
REMARK VINA RESULT:      -5.5      4.712      6.702
REMARK  11 active torsions:
REMARK  status: ('A' for Active; 'I' for Inactive)
REMARK    1  A    between atoms: N_1  and  C_23 
REMARK    2  A    between atoms: C_6  and  C_7 
REMARK    3  A    between atoms: C_7  and  C_28 
REMARK    4  A    between atoms: C_10  and  C_19 
REMARK    5  A    between atoms: C_10  and  N_14 
REMARK    6  A    between atoms: C_19  and  C_25 
REMARK    7  A    between atoms: N_21  and  C_28 
REMARK       I    between atoms: N_21  and  C_22 
REMARK    8  A    between atoms: C_22  and  C_23 
REMARK    9  A    between atoms: C_23  and  C_24 
REMARK   10  A    between atoms: C_24  and  C_25 
REMARK   11  A    between atoms: C_26  and  C_28 
ROOT
HETATM    1  O           1     -19.837  -8.472  -1.923  0.00  0.00    -0.271 OA
HETATM    2  H           1     -20.067  -6.442  -3.881  0.00  0.00     0.163 HD
HETATM    3  N           1     -20.654  -7.206  -3.570  0.00  0.00    -0.344 N 
HETATM    4  C           1     -20.615  -7.613  -2.264  0.00  0.00     0.249 C 
ENDROOT
BRANCH   4   5
HETATM    5  C           1     -21.541  -6.987  -1.250  0.00  0.00     0.274 C 
BRANCH   5   6
HETATM    6  N           1     -22.427  -5.988  -1.934  0.00  0.00    -0.067 N 
HETATM    7  H           1     -23.387  -6.388  -2.039  0.00  0.00     0.275 HD
HETATM    8  H           1     -22.474  -5.116  -1.359  0.00  0.00     0.275 HD
HETATM    9  H           1     -22.037  -5.765  -2.876  0.00  0.00     0.275 HD
ENDBRANCH   5   6
BRANCH   5  10
HETATM   10  C           1     -22.399  -8.071  -0.609  0.00  0.00     0.043 C 
BRANCH  10  11
HETATM   11  C           1     -22.202  -8.048   0.901  0.00  0.00     0.006 C 
BRANCH  11  12
HETATM   12  C           1     -21.130  -9.058   1.288  0.00  0.00     0.421 C 
BRANCH  12  13
HETATM   13  C           1     -21.389 -10.375   0.568  0.00  0.00     0.231 C 
BRANCH  13  14
HETATM   14  N           1     -20.116 -10.859  -0.062  0.00  0.00    -0.079 N 
HETATM   15  H           1     -19.803 -11.733   0.416  0.00  0.00     0.274 HD
HETATM   16  H           1     -19.378 -10.126   0.034  0.00  0.00     0.274 HD
HETATM   17  H           1     -20.281 -11.055  -1.075  0.00  0.00     0.274 HD
ENDBRANCH  13  14
ENDBRANCH  12  13
ENDBRANCH  11  12
ENDBRANCH  10  11
ENDBRANCH   5  10
ENDBRANCH   4   5
BRANCH   3  18
HETATM   18  C           1     -21.538  -7.868  -4.509  0.00  0.00     0.191 C 
BRANCH  18  19
HETATM   19  C           1     -22.226  -6.825  -5.380  0.00  0.00     0.094 C 
BRANCH  19  20
HETATM   20  C           1     -21.192  -6.022  -6.108  0.00  0.00     0.034 A 
HETATM   21  C           1     -20.571  -4.906  -5.602  0.00  0.00     0.212 A 
HETATM   22  N           1     -19.715  -4.498  -6.588  0.00  0.00    -0.073 N 
HETATM   23  C           1     -19.851  -5.366  -7.633  0.00  0.00     0.277 A 
HETATM   24  H           1     -19.072  -3.668  -6.549  0.00  0.00     0.272 HD
HETATM   25  N           1     -20.738  -6.299  -7.371  0.00  0.00    -0.349 N 
ATOM     26  HN          1     -21.027  -7.066  -7.978  1.00  0.00     0.166 HD
ENDBRANCH  19  20
ENDBRANCH  18  19
BRANCH  18  27
HETATM   27  C           1     -20.736  -8.802  -5.382  0.00  0.00     0.197 C 
HETATM   28  O           1     -19.510  -8.615  -5.534  0.00  0.00    -0.646 OA
HETATM   29  O           1     -21.297  -9.762  -5.952  0.00  0.00    -0.646 OA
ENDBRANCH  18  27
ENDBRANCH   3  18
TORSDOF 11
ENDMDL
MODEL 8
REMARK VINA RESULT:      -5.5      3.600      8.554
REMARK  11 active torsions:
REMARK  status: ('A' for Active; 'I' for Inactive)
REMARK    1  A    between atoms: N_1  and  C_23 
REMARK    2  A    between atoms: C_6  and  C_7 
REMARK    3  A    between atoms: C_7  and  C_28 
REMARK    4  A    between atoms: C_10  and  C_19 
REMARK    5  A    between atoms: C_10  and  N_14 
REMARK    6  A    between atoms: C_19  and  C_25 
REMARK    7  A    between atoms: N_21  and  C_28 
REMARK       I    between atoms: N_21  and  C_22 
REMARK    8  A    between atoms: C_22  and  C_23 
REMARK    9  A    between atoms: C_23  and  C_24 
REMARK   10  A    between atoms: C_24  and  C_25 
REMARK   11  A    between atoms: C_26  and  C_28 
ROOT
HETATM    1  O           1     -21.224  -8.552  -6.030  0.00  0.00    -0.271 OA
HETATM    2  H           1     -23.032  -7.100  -4.406  0.00  0.00     0.163 HD
HETATM    3  N           1     -22.094  -7.463  -4.285  0.00  0.00    -0.344 N 
HETATM    4  C           1     -21.248  -7.548  -5.358  0.00  0.00     0.249 C 
ENDROOT
BRANCH   4   5
HETATM    5  C           1     -20.348  -6.387  -5.702  0.00  0.00     0.274 C 
BRANCH   5   6
HETATM    6  N           1     -19.446  -6.774  -6.837  0.00  0.00    -0.067 N 
HETATM    7  H           1     -19.873  -7.567  -7.367  0.00  0.00     0.275 HD
HETATM    8  H           1     -19.321  -5.956  -7.475  0.00  0.00     0.275 HD
HETATM    9  H           1     -18.518  -7.068  -6.459  0.00  0.00     0.275 HD
ENDBRANCH   5   6
BRANCH   5  10
HETATM   10  C           1     -21.196  -5.190  -6.113  0.00  0.00     0.043 C 
BRANCH  10  11
HETATM   11  C           1     -20.712  -4.663  -7.458  0.00  0.00     0.006 C 
BRANCH  11  12
HETATM   12  C           1     -21.768  -4.935  -8.520  0.00  0.00     0.421 C 
BRANCH  12  13
HETATM   13  C           1     -22.602  -3.680  -8.742  0.00  0.00     0.231 C 
BRANCH  13  14
HETATM   14  N           1     -24.007  -3.925  -8.275  0.00  0.00    -0.079 N 
HETATM   15  H           1     -24.031  -3.923  -7.231  0.00  0.00     0.274 HD
HETATM   16  H           1     -24.336  -4.852  -8.629  0.00  0.00     0.274 HD
HETATM   17  H           1     -24.631  -3.171  -8.641  0.00  0.00     0.274 HD
ENDBRANCH  13  14
ENDBRANCH  12  13
ENDBRANCH  11  12
ENDBRANCH  10  11
ENDBRANCH   5  10
ENDBRANCH   4   5
BRANCH   3  18
HETATM   18  C           1     -21.648  -7.893  -2.974  0.00  0.00     0.191 C 
BRANCH  18  19
HETATM   19  C           1     -20.144  -8.136  -3.006  0.00  0.00     0.094 C 
BRANCH  19  20
HETATM   20  C           1     -19.825  -9.386  -2.246  0.00  0.00     0.034 A 
HETATM   21  C           1     -18.779 -10.230  -2.534  0.00  0.00     0.212 A 
HETATM   22  N           1     -18.861 -11.228  -1.602  0.00  0.00    -0.073 N 
HETATM   23  C           1     -19.933 -10.954  -0.802  0.00  0.00     0.277 A 
HETATM   24  H           1     -18.218 -12.054  -1.518  0.00  0.00     0.272 HD
HETATM   25  N           1     -20.535  -9.846  -1.167  0.00  0.00    -0.349 N 
ATOM     26  HN          1     -21.357  -9.418  -0.740  1.00  0.00     0.166 HD
ENDBRANCH  19  20
ENDBRANCH  18  19
BRANCH  18  27
HETATM   27  C           1     -21.962  -6.821  -1.960  0.00  0.00     0.197 C 
HETATM   28  O           1     -22.008  -5.623  -2.311  0.00  0.00    -0.646 OA
HETATM   29  O           1     -22.177  -7.131  -0.768  0.00  0.00    -0.646 OA
ENDBRANCH  18  27
ENDBRANCH   3  18
TORSDOF 11
ENDMDL
MODEL 9
REMARK VINA RESULT:      -5.4      4.659      9.865
REMARK  11 active torsions:
REMARK  status: ('A' for Active; 'I' for Inactive)
REMARK    1  A    between atoms: N_1  and  C_23 
REMARK    2  A    between atoms: C_6  and  C_7 
REMARK    3  A    between atoms: C_7  and  C_28 
REMARK    4  A    between atoms: C_10  and  C_19 
REMARK    5  A    between atoms: C_10  and  N_14 
REMARK    6  A    between atoms: C_19  and  C_25 
REMARK    7  A    between atoms: N_21  and  C_28 
REMARK       I    between atoms: N_21  and  C_22 
REMARK    8  A    between atoms: C_22  and  C_23 
REMARK    9  A    between atoms: C_23  and  C_24 
REMARK   10  A    between atoms: C_24  and  C_25 
REMARK   11  A    between atoms: C_26  and  C_28 
ROOT
HETATM    1  O           1     -22.306  -5.641  -2.326  0.00  0.00    -0.271 OA
HETATM    2  H           1     -20.081  -7.282  -1.724  0.00  0.00     0.163 HD
HETATM    3  N           1     -21.062  -7.448  -1.913  0.00  0.00    -0.344 N 
HETATM    4  C           1     -21.745  -6.618  -2.761  0.00  0.00     0.249 C 
ENDROOT
BRANCH   4   5
HETATM    5  C           1     -21.797  -6.925  -4.237  0.00  0.00     0.274 C 
BRANCH   5   6
HETATM    6  N           1     -23.007  -6.275  -4.840  0.00  0.00    -0.067 N 
HETATM    7  H           1     -23.576  -5.829  -4.085  0.00  0.00     0.275 HD
HETATM    8  H           1     -22.704  -5.545  -5.525  0.00  0.00     0.275 HD
HETATM    9  H           1     -23.582  -6.996  -5.329  0.00  0.00     0.275 HD
ENDBRANCH   5   6
BRANCH   5  10
HETATM   10  C           1     -20.542  -6.386  -4.913  0.00  0.00     0.043 C 
BRANCH  10  11
HETATM   11  C           1     -20.922  -5.260  -5.866  0.00  0.00     0.006 C 
BRANCH  11  12
HETATM   12  C           1     -20.559  -5.656  -7.290  0.00  0.00     0.421 C 
BRANCH  12  13
HETATM   13  C           1     -21.146  -4.644  -8.266  0.00  0.00     0.231 C 
BRANCH  13  14
HETATM   14  N           1     -22.134  -3.772  -7.547  0.00  0.00    -0.079 N 
HETATM   15  H           1     -21.649  -2.917  -7.195  0.00  0.00     0.274 HD
HETATM   16  H           1     -22.541  -4.298  -6.742  0.00  0.00     0.274 HD
HETATM   17  H           1     -22.897  -3.497  -8.205  0.00  0.00     0.274 HD
ENDBRANCH  13  14
ENDBRANCH  12  13
ENDBRANCH  11  12
ENDBRANCH  10  11
ENDBRANCH   5  10
ENDBRANCH   4   5
BRANCH   3  18
HETATM   18  C           1     -21.742  -8.565  -1.287  0.00  0.00     0.191 C 
BRANCH  18  19
HETATM   19  C           1     -20.772  -9.730  -1.139  0.00  0.00     0.094 C 
BRANCH  19  20
HETATM   20  C           1     -21.504 -10.925  -0.611  0.00  0.00     0.034 A 
HETATM   21  C           1     -22.414 -11.664  -1.329  0.00  0.00     0.212 A 
HETATM   22  N           1     -22.831 -12.645  -0.472  0.00  0.00    -0.073 N 
HETATM   23  C           1     -22.170 -12.464   0.710  0.00  0.00     0.277 A 
HETATM   24  H           1     -23.531 -13.398  -0.683  0.00  0.00     0.272 HD
HETATM   25  N           1     -21.361 -11.431   0.654  0.00  0.00    -0.349 N 
ATOM     26  HN          1     -20.755 -11.079   1.396  1.00  0.00     0.166 HD
ENDBRANCH  19  20
ENDBRANCH  18  19
BRANCH  18  27
HETATM   27  C           1     -22.241  -8.149   0.076  0.00  0.00     0.197 C 
HETATM   28  O           1     -21.475  -8.200   1.062  0.00  0.00    -0.646 OA
HETATM   29  O           1     -23.418  -7.755   0.217  0.00  0.00    -0.646 OA
ENDBRANCH  18  27
ENDBRANCH   3  18
TORSDOF 11
ENDMDL
