MODEL 1
REMARK VINA RESULT:      -7.3      0.000      0.000
REMARK  11 active torsions:
REMARK  status: ('A' for Active; 'I' for Inactive)
REMARK       I    between atoms: C_1  and  N_10 
REMARK    1  A    between atoms: C_1  and  C_2 
REMARK    2  A    between atoms: C_2  and  C_3 
REMARK    3  A    between atoms: C_2  and  N_15 
REMARK    4  A    between atoms: C_3  and  C_23 
REMARK    5  A    between atoms: N_10  and  C_12 
REMARK    6  A    between atoms: C_11  and  C_18 
REMARK    7  A    between atoms: C_11  and  C_12 
REMARK    8  A    between atoms: C_12  and  C_28 
REMARK    9  A    between atoms: C_14  and  O_20 
REMARK   10  A    between atoms: C_16  and  N_25 
REMARK   11  A    between atoms: C_16  and  C_18 
ROOT
HETATM    1  C           1     -35.422  -1.954 -10.727  0.00  0.00     0.249 C 
HETATM    2  O           1     -34.405  -1.617 -10.172  0.00  0.00    -0.271 OA
HETATM    3  N           1     -35.539  -3.222 -11.233  0.00  0.00    -0.345 N 
HETATM    4  H           1     -36.392  -3.505 -11.698  0.00  0.00     0.163 HD
ENDROOT
BRANCH   1   5
HETATM    5  C           1     -36.567  -0.980 -10.864  0.00  0.00     0.278 C 
BRANCH   5   6
HETATM    6  C           1     -36.098   0.249 -11.634  0.00  0.00     0.081 C 
BRANCH   6   7
HETATM    7  C           1     -36.281   0.017 -13.101  0.00  0.00    -0.056 A 
HETATM    8  C           1     -37.564  -0.111 -13.634  0.00  0.00     0.010 A 
HETATM    9  C           1     -37.733  -0.327 -15.002  0.00  0.00     0.037 A 
HETATM   10  C           1     -36.619  -0.415 -15.837  0.00  0.00     0.065 A 
HETATM   11  C           1     -35.337  -0.289 -15.304  0.00  0.00     0.037 A 
HETATM   12  C           1     -35.167  -0.072 -13.936  0.00  0.00     0.010 A 
BRANCH  10  13
HETATM   13  O           1     -36.783  -0.626 -17.165  0.00  0.00    -0.361 OA
HETATM   14  H           1     -37.604  -1.131 -17.289  0.00  0.00     0.217 HD
ENDBRANCH  10  13
ENDBRANCH   6   7
ENDBRANCH   5   6
BRANCH   5  15
HETATM   15  N           1     -37.035  -0.565  -9.501  0.00  0.00    -0.066 N 
HETATM   16  H           1     -38.069  -0.702  -9.431  0.00  0.00     0.275 HD
HETATM   17  H           1     -36.558  -1.148  -8.776  0.00  0.00     0.275 HD
HETATM   18  H           1     -36.806   0.442  -9.345  0.00  0.00     0.275 HD
ENDBRANCH   5  15
ENDBRANCH   1   5
BRANCH   3  19
HETATM   19  C           1     -34.440  -4.158 -11.102  0.00  0.00     0.185 C 
BRANCH  19  20
HETATM   20  C           1     -34.978  -5.582 -11.135  0.00  0.00     0.038 C 
BRANCH  20  21
HETATM   21  C           1     -33.976  -6.520 -10.476  0.00  0.00     0.030 C 
BRANCH  21  22
HETATM   22  C           1     -34.636  -7.867 -10.217  0.00  0.00     0.230 C 
BRANCH  22  23
HETATM   23  N           1     -33.590  -8.944 -10.207  0.00  0.00    -0.079 N 
HETATM   24  H           1     -33.466  -9.299  -9.231  0.00  0.00     0.274 HD
HETATM   25  H           1     -32.685  -8.555 -10.552  0.00  0.00     0.274 HD
HETATM   26  H           1     -33.893  -9.728 -10.827  0.00  0.00     0.274 HD
ENDBRANCH  22  23
ENDBRANCH  21  22
ENDBRANCH  20  21
ENDBRANCH  19  20
BRANCH  19  27
HETATM   27  C           1     -33.473  -3.959 -12.244  0.00  0.00     0.196 C 
HETATM   28  O           1     -32.247  -4.111 -12.058  0.00  0.00    -0.646 OA
HETATM   29  O           1     -33.901  -3.644 -13.376  0.00  0.00    -0.646 OA
ENDBRANCH  19  27
ENDBRANCH   3  19
TORSDOF 11
ENDMDL
MODEL 2
REMARK VINA RESULT:      -7.3     12.705     16.136
REMARK  11 active torsions:
REMARK  status: ('A' for Active; 'I' for Inactive)
REMARK       I    between atoms: C_1  and  N_10 
REMARK    1  A    between atoms: C_1  and  C_2 
REMARK    2  A    between atoms: C_2  and  C_3 
REMARK    3  A    between atoms: C_2  and  N_15 
REMARK    4  A    between atoms: C_3  and  C_23 
REMARK    5  A    between atoms: N_10  and  C_12 
REMARK    6  A    between atoms: C_11  and  C_18 
REMARK    7  A    between atoms: C_11  and  C_12 
REMARK    8  A    between atoms: C_12  and  C_28 
REMARK    9  A    between atoms: C_14  and  O_20 
REMARK   10  A    between atoms: C_16  and  N_25 
REMARK   11  A    between atoms: C_16  and  C_18 
ROOT
HETATM    1  C           1     -21.663  -4.614  -7.703  0.00  0.00     0.249 C 
HETATM    2  O           1     -21.691  -3.490  -7.265  0.00  0.00    -0.271 OA
HETATM    3  N           1     -22.141  -4.872  -8.960  0.00  0.00    -0.345 N 
HETATM    4  H           1     -22.117  -5.815  -9.327  0.00  0.00     0.163 HD
ENDROOT
BRANCH   1   5
HETATM    5  C           1     -21.100  -5.737  -6.865  0.00  0.00     0.278 C 
BRANCH   5   6
HETATM    6  C           1     -20.862  -5.240  -5.445  0.00  0.00     0.081 C 
BRANCH   6   7
HETATM    7  C           1     -21.137  -6.349  -4.477  0.00  0.00    -0.056 A 
HETATM    8  C           1     -21.253  -7.662  -4.934  0.00  0.00     0.010 A 
HETATM    9  C           1     -21.509  -8.694  -4.031  0.00  0.00     0.037 A 
HETATM   10  C           1     -21.648  -8.413  -2.671  0.00  0.00     0.065 A 
HETATM   11  C           1     -21.532  -7.101  -2.215  0.00  0.00     0.037 A 
HETATM   12  C           1     -21.276  -6.068  -3.117  0.00  0.00     0.010 A 
BRANCH  10  13
HETATM   13  O           1     -21.897  -9.416  -1.795  0.00  0.00    -0.361 OA
HETATM   14  H           1     -22.859  -9.477  -1.675  0.00  0.00     0.217 HD
ENDBRANCH  10  13
ENDBRANCH   6   7
ENDBRANCH   5   6
BRANCH   5  15
HETATM   15  N           1     -19.801  -6.198  -7.456  0.00  0.00    -0.066 N 
HETATM   16  H           1     -19.009  -5.859  -6.865  0.00  0.00     0.275 HD
HETATM   17  H           1     -19.786  -7.242  -7.492  0.00  0.00     0.275 HD
HETATM   18  H           1     -19.702  -5.814  -8.423  0.00  0.00     0.275 HD
ENDBRANCH   5  15
ENDBRANCH   1   5
BRANCH   3  19
HETATM   19  C           1     -22.682  -3.794  -9.765  0.00  0.00     0.185 C 
BRANCH  19  20
HETATM   20  C           1     -22.197  -3.940 -11.201  0.00  0.00     0.038 C 
BRANCH  20  21
HETATM   21  C           1     -22.508  -2.665 -11.974  0.00  0.00     0.030 C 
BRANCH  21  22
HETATM   22  C           1     -23.355  -3.004 -13.194  0.00  0.00     0.230 C 
BRANCH  22  23
HETATM   23  N           1     -22.482  -3.044 -14.414  0.00  0.00    -0.079 N 
HETATM   24  H           1     -21.481  -2.942 -14.129  0.00  0.00     0.274 HD
HETATM   25  H           1     -22.742  -2.262 -15.055  0.00  0.00     0.274 HD
HETATM   26  H           1     -22.613  -3.956 -14.905  0.00  0.00     0.274 HD
ENDBRANCH  22  23
ENDBRANCH  21  22
ENDBRANCH  20  21
ENDBRANCH  19  20
BRANCH  19  27
HETATM   27  C           1     -24.189  -3.853  -9.734  0.00  0.00     0.196 C 
HETATM   28  O           1     -24.850  -2.829  -9.456  0.00  0.00    -0.646 OA
HETATM   29  O           1     -24.777  -4.927  -9.988  0.00  0.00    -0.646 OA
ENDBRANCH  19  27
ENDBRANCH   3  19
TORSDOF 11
ENDMDL
MODEL 3
REMARK VINA RESULT:      -7.2     13.502     15.787
REMARK  11 active torsions:
REMARK  status: ('A' for Active; 'I' for Inactive)
REMARK       I    between atoms: C_1  and  N_10 
REMARK    1  A    between atoms: C_1  and  C_2 
REMARK    2  A    between atoms: C_2  and  C_3 
REMARK    3  A    between atoms: C_2  and  N_15 
REMARK    4  A    between atoms: C_3  and  C_23 
REMARK    5  A    between atoms: N_10  and  C_12 
REMARK    6  A    between atoms: C_11  and  C_18 
REMARK    7  A    between atoms: C_11  and  C_12 
REMARK    8  A    between atoms: C_12  and  C_28 
REMARK    9  A    between atoms: C_14  and  O_20 
REMARK   10  A    between atoms: C_16  and  N_25 
REMARK   11  A    between atoms: C_16  and  C_18 
ROOT
HETATM    1  C           1     -21.340  -5.907  -5.683  0.00  0.00     0.249 C 
HETATM    2  O           1     -20.785  -5.195  -4.882  0.00  0.00    -0.271 OA
HETATM    3  N           1     -21.230  -7.269  -5.581  0.00  0.00    -0.345 N 
HETATM    4  H           1     -21.696  -7.866  -6.253  0.00  0.00     0.163 HD
ENDROOT
BRANCH   1   5
HETATM    5  C           1     -22.156  -5.298  -6.797  0.00  0.00     0.278 C 
BRANCH   5   6
HETATM    6  C           1     -21.488  -4.013  -7.270  0.00  0.00     0.081 C 
BRANCH   6   7
HETATM    7  C           1     -21.528  -3.952  -8.766  0.00  0.00    -0.056 A 
HETATM    8  C           1     -20.386  -4.253  -9.508  0.00  0.00     0.010 A 
HETATM    9  C           1     -20.425  -4.196 -10.901  0.00  0.00     0.037 A 
HETATM   10  C           1     -21.605  -3.837 -11.552  0.00  0.00     0.065 A 
HETATM   11  C           1     -22.746  -3.535 -10.810  0.00  0.00     0.037 A 
HETATM   12  C           1     -22.709  -3.592  -9.417  0.00  0.00     0.010 A 
BRANCH  10  13
HETATM   13  O           1     -21.642  -3.781 -12.905  0.00  0.00    -0.361 OA
HETATM   14  H           1     -21.036  -4.459 -13.250  0.00  0.00     0.217 HD
ENDBRANCH  10  13
ENDBRANCH   6   7
ENDBRANCH   5   6
BRANCH   5  15
HETATM   15  N           1     -23.534  -4.987  -6.294  0.00  0.00    -0.066 N 
HETATM   16  H           1     -24.232  -5.182  -7.047  0.00  0.00     0.275 HD
HETATM   17  H           1     -23.744  -5.585  -5.462  0.00  0.00     0.275 HD
HETATM   18  H           1     -23.587  -3.980  -6.022  0.00  0.00     0.275 HD
ENDBRANCH   5  15
ENDBRANCH   1   5
BRANCH   3  19
HETATM   19  C           1     -20.446  -7.855  -4.512  0.00  0.00     0.185 C 
BRANCH  19  20
HETATM   20  C           1     -21.374  -8.313  -3.395  0.00  0.00     0.038 C 
BRANCH  20  21
HETATM   21  C           1     -20.866  -7.780  -2.061  0.00  0.00     0.030 C 
BRANCH  21  22
HETATM   22  C           1     -21.976  -7.000  -1.370  0.00  0.00     0.230 C 
BRANCH  22  23
HETATM   23  N           1     -22.415  -5.868  -2.251  0.00  0.00    -0.079 N 
HETATM   24  H           1     -21.606  -5.229  -2.427  0.00  0.00     0.274 HD
HETATM   25  H           1     -23.181  -5.335  -1.780  0.00  0.00     0.274 HD
HETATM   26  H           1     -22.763  -6.248  -3.160  0.00  0.00     0.274 HD
ENDBRANCH  22  23
ENDBRANCH  21  22
ENDBRANCH  20  21
ENDBRANCH  19  20
BRANCH  19  27
HETATM   27  C           1     -19.677  -9.038  -5.045  0.00  0.00     0.196 C 
HETATM   28  O           1     -18.463  -9.167  -4.776  0.00  0.00    -0.646 OA
HETATM   29  O           1     -20.255  -9.891  -5.753  0.00  0.00    -0.646 OA
ENDBRANCH  19  27
ENDBRANCH   3  19
TORSDOF 11
ENDMDL
MODEL 4
REMARK VINA RESULT:      -7.1     12.753     14.840
REMARK  11 active torsions:
REMARK  status: ('A' for Active; 'I' for Inactive)
REMARK       I    between atoms: C_1  and  N_10 
REMARK    1  A    between atoms: C_1  and  C_2 
REMARK    2  A    between atoms: C_2  and  C_3 
REMARK    3  A    between atoms: C_2  and  N_15 
REMARK    4  A    between atoms: C_3  and  C_23 
REMARK    5  A    between atoms: N_10  and  C_12 
REMARK    6  A    between atoms: C_11  and  C_18 
REMARK    7  A    between atoms: C_11  and  C_12 
REMARK    8  A    between atoms: C_12  and  C_28 
REMARK    9  A    between atoms: C_14  and  O_20 
REMARK   10  A    between atoms: C_16  and  N_25 
REMARK   11  A    between atoms: C_16  and  C_18 
ROOT
HETATM    1  C           1     -21.438  -5.034  -6.173  0.00  0.00     0.249 C 
HETATM    2  O           1     -20.289  -4.866  -5.845  0.00  0.00    -0.271 OA
HETATM    3  N           1     -22.222  -5.927  -5.492  0.00  0.00    -0.345 N 
HETATM    4  H           1     -23.186  -6.067  -5.767  0.00  0.00     0.163 HD
ENDROOT
BRANCH   1   5
HETATM    5  C           1     -22.013  -4.260  -7.335  0.00  0.00     0.278 C 
BRANCH   5   6
HETATM    6  C           1     -21.534  -4.877  -8.643  0.00  0.00     0.081 C 
BRANCH   6   7
HETATM    7  C           1     -22.192  -4.180  -9.793  0.00  0.00    -0.056 A 
HETATM    8  C           1     -23.581  -4.053  -9.831  0.00  0.00     0.010 A 
HETATM    9  C           1     -24.192  -3.404 -10.903  0.00  0.00     0.037 A 
HETATM   10  C           1     -23.416  -2.880 -11.937  0.00  0.00     0.065 A 
HETATM   11  C           1     -22.028  -3.008 -11.899  0.00  0.00     0.037 A 
HETATM   12  C           1     -21.415  -3.657 -10.827  0.00  0.00     0.010 A 
BRANCH  10  13
HETATM   13  O           1     -24.011  -2.250 -12.979  0.00  0.00    -0.361 OA
HETATM   14  H           1     -24.896  -2.633 -13.094  0.00  0.00     0.217 HD
ENDBRANCH  10  13
ENDBRANCH   6   7
ENDBRANCH   5   6
BRANCH   5  15
HETATM   15  N           1     -21.554  -2.833  -7.259  0.00  0.00    -0.066 N 
HETATM   16  H           1     -21.785  -2.345  -8.153  0.00  0.00     0.275 HD
HETATM   17  H           1     -22.038  -2.354  -6.466  0.00  0.00     0.275 HD
HETATM   18  H           1     -20.521  -2.807  -7.105  0.00  0.00     0.275 HD
ENDBRANCH   5  15
ENDBRANCH   1   5
BRANCH   3  19
HETATM   19  C           1     -21.671  -6.671  -4.377  0.00  0.00     0.185 C 
BRANCH  19  20
HETATM   20  C           1     -22.623  -6.589  -3.191  0.00  0.00     0.038 C 
BRANCH  20  21
HETATM   21  C           1     -21.844  -6.207  -1.939  0.00  0.00     0.030 C 
BRANCH  21  22
HETATM   22  C           1     -22.322  -7.052  -0.766  0.00  0.00     0.230 C 
BRANCH  22  23
HETATM   23  N           1     -21.966  -8.490  -1.006  0.00  0.00    -0.079 N 
HETATM   24  H           1     -21.584  -8.597  -1.973  0.00  0.00     0.274 HD
HETATM   25  H           1     -22.820  -9.083  -0.902  0.00  0.00     0.274 HD
HETATM   26  H           1     -21.246  -8.791  -0.311  0.00  0.00     0.274 HD
ENDBRANCH  22  23
ENDBRANCH  21  22
ENDBRANCH  20  21
ENDBRANCH  19  20
BRANCH  19  27
HETATM   27  C           1     -21.490  -8.114  -4.778  0.00  0.00     0.196 C 
HETATM   28  O           1     -21.638  -9.022  -3.931  0.00  0.00    -0.646 OA
HETATM   29  O           1     -21.195  -8.402  -5.958  0.00  0.00    -0.646 OA
ENDBRANCH  19  27
ENDBRANCH   3  19
TORSDOF 11
ENDMDL
MODEL 5
REMARK VINA RESULT:      -6.8      2.825      6.821
REMARK  11 active torsions:
REMARK  status: ('A' for Active; 'I' for Inactive)
REMARK       I    between atoms: C_1  and  N_10 
REMARK    1  A    between atoms: C_1  and  C_2 
REMARK    2  A    between atoms: C_2  and  C_3 
REMARK    3  A    between atoms: C_2  and  N_15 
REMARK    4  A    between atoms: C_3  and  C_23 
REMARK    5  A    between atoms: N_10  and  C_12 
REMARK    6  A    between atoms: C_11  and  C_18 
REMARK    7  A    between atoms: C_11  and  C_12 
REMARK    8  A    between atoms: C_12  and  C_28 
REMARK    9  A    between atoms: C_14  and  O_20 
REMARK   10  A    between atoms: C_16  and  N_25 
REMARK   11  A    between atoms: C_16  and  C_18 
ROOT
HETATM    1  C           1     -36.752  -0.516 -12.623  0.00  0.00     0.249 C 
HETATM    2  O           1     -37.956  -0.601 -12.593  0.00  0.00    -0.271 OA
HETATM    3  N           1     -36.101  -0.418 -13.824  0.00  0.00    -0.345 N 
HETATM    4  H           1     -35.092  -0.347 -13.849  0.00  0.00     0.163 HD
ENDROOT
BRANCH   1   5
HETATM    5  C           1     -35.964  -0.517 -11.336  0.00  0.00     0.278 C 
BRANCH   5   6
HETATM    6  C           1     -36.243  -1.804 -10.570  0.00  0.00     0.081 C 
BRANCH   6   7
HETATM    7  C           1     -35.181  -2.811 -10.884  0.00  0.00    -0.056 A 
HETATM    8  C           1     -33.880  -2.391 -11.159  0.00  0.00     0.010 A 
HETATM    9  C           1     -32.891  -3.330 -11.452  0.00  0.00     0.037 A 
HETATM   10  C           1     -33.203  -4.689 -11.469  0.00  0.00     0.065 A 
HETATM   11  C           1     -34.504  -5.109 -11.195  0.00  0.00     0.037 A 
HETATM   12  C           1     -35.494  -4.170 -10.902  0.00  0.00     0.010 A 
BRANCH  10  13
HETATM   13  O           1     -32.242  -5.602 -11.754  0.00  0.00    -0.361 OA
HETATM   14  H           1     -31.746  -5.779 -10.938  0.00  0.00     0.217 HD
ENDBRANCH  10  13
ENDBRANCH   6   7
ENDBRANCH   5   6
BRANCH   5  15
HETATM   15  N           1     -36.372   0.660 -10.500  0.00  0.00    -0.066 N 
HETATM   16  H           1     -35.982   0.555  -9.536  0.00  0.00     0.275 HD
HETATM   17  H           1     -36.002   1.538 -10.930  0.00  0.00     0.275 HD
HETATM   18  H           1     -37.414   0.707 -10.450  0.00  0.00     0.275 HD
ENDBRANCH   5  15
ENDBRANCH   1   5
BRANCH   3  19
HETATM   19  C           1     -36.859  -0.418 -15.060  0.00  0.00     0.185 C 
BRANCH  19  20
HETATM   20  C           1     -37.123   1.017 -15.494  0.00  0.00     0.038 C 
BRANCH  20  21
HETATM   21  C           1     -35.815   1.797 -15.497  0.00  0.00     0.030 C 
BRANCH  21  22
HETATM   22  C           1     -35.759   2.689 -16.730  0.00  0.00     0.230 C 
BRANCH  22  23
HETATM   23  N           1     -37.039   3.463 -16.847  0.00  0.00    -0.079 N 
HETATM   24  H           1     -36.842   4.399 -17.270  0.00  0.00     0.274 HD
HETATM   25  H           1     -37.458   3.592 -15.899  0.00  0.00     0.274 HD
HETATM   26  H           1     -37.708   2.939 -17.455  0.00  0.00     0.274 HD
ENDBRANCH  22  23
ENDBRANCH  21  22
ENDBRANCH  20  21
ENDBRANCH  19  20
BRANCH  19  27
HETATM   27  C           1     -36.070  -1.130 -16.132  0.00  0.00     0.196 C 
HETATM   28  O           1     -35.087  -1.835 -15.820  0.00  0.00    -0.646 OA
HETATM   29  O           1     -36.401  -1.014 -17.332  0.00  0.00    -0.646 OA
ENDBRANCH  19  27
ENDBRANCH   3  19
TORSDOF 11
ENDMDL
MODEL 6
REMARK VINA RESULT:      -6.7     13.728     15.985
REMARK  11 active torsions:
REMARK  status: ('A' for Active; 'I' for Inactive)
REMARK       I    between atoms: C_1  and  N_10 
REMARK    1  A    between atoms: C_1  and  C_2 
REMARK    2  A    between atoms: C_2  and  C_3 
REMARK    3  A    between atoms: C_2  and  N_15 
REMARK    4  A    between atoms: C_3  and  C_23 
REMARK    5  A    between atoms: N_10  and  C_12 
REMARK    6  A    between atoms: C_11  and  C_18 
REMARK    7  A    between atoms: C_11  and  C_12 
REMARK    8  A    between atoms: C_12  and  C_28 
REMARK    9  A    between atoms: C_14  and  O_20 
REMARK   10  A    between atoms: C_16  and  N_25 
REMARK   11  A    between atoms: C_16  and  C_18 
ROOT
HETATM    1  C           1     -21.646  -5.774  -5.610  0.00  0.00     0.249 C 
HETATM    2  O           1     -22.853  -5.801  -5.601  0.00  0.00    -0.271 OA
HETATM    3  N           1     -20.936  -6.594  -4.774  0.00  0.00    -0.345 N 
HETATM    4  H           1     -19.924  -6.572  -4.782  0.00  0.00     0.163 HD
ENDROOT
BRANCH   1   5
HETATM    5  C           1     -20.918  -4.837  -6.543  0.00  0.00     0.278 C 
BRANCH   5   6
HETATM    6  C           1     -20.657  -5.542  -7.868  0.00  0.00     0.081 C 
BRANCH   6   7
HETATM    7  C           1     -21.221  -4.724  -8.988  0.00  0.00    -0.056 A 
HETATM    8  C           1     -22.564  -4.346  -8.969  0.00  0.00     0.010 A 
HETATM    9  C           1     -23.088  -3.584 -10.013  0.00  0.00     0.037 A 
HETATM   10  C           1     -22.270  -3.200 -11.076  0.00  0.00     0.065 A 
HETATM   11  C           1     -20.929  -3.579 -11.095  0.00  0.00     0.037 A 
HETATM   12  C           1     -20.403  -4.341 -10.051  0.00  0.00     0.010 A 
BRANCH  10  13
HETATM   13  O           1     -22.781  -2.460 -12.090  0.00  0.00    -0.361 OA
HETATM   14  H           1     -22.321  -1.604 -12.098  0.00  0.00     0.217 HD
ENDBRANCH  10  13
ENDBRANCH   6   7
ENDBRANCH   5   6
BRANCH   5  15
HETATM   15  N           1     -19.612  -4.433  -5.927  0.00  0.00    -0.066 N 
HETATM   16  H           1     -18.873  -5.122  -6.193  0.00  0.00     0.275 HD
HETATM   17  H           1     -19.343  -3.484  -6.272  0.00  0.00     0.275 HD
HETATM   18  H           1     -19.709  -4.412  -4.887  0.00  0.00     0.275 HD
ENDBRANCH   5  15
ENDBRANCH   1   5
BRANCH   3  19
HETATM   19  C           1     -21.635  -7.494  -3.877  0.00  0.00     0.185 C 
BRANCH  19  20
HETATM   20  C           1     -20.944  -8.851  -3.879  0.00  0.00     0.038 C 
BRANCH  20  21
HETATM   21  C           1     -19.744  -8.809  -4.816  0.00  0.00     0.030 C 
BRANCH  21  22
HETATM   22  C           1     -18.517  -9.349  -4.094  0.00  0.00     0.230 C 
BRANCH  22  23
HETATM   23  N           1     -18.725  -9.253  -2.611  0.00  0.00    -0.079 N 
HETATM   24  H           1     -19.728  -9.443  -2.387  0.00  0.00     0.274 HD
HETATM   25  H           1     -18.473  -8.293  -2.284  0.00  0.00     0.274 HD
HETATM   26  H           1     -18.121  -9.955  -2.128  0.00  0.00     0.274 HD
ENDBRANCH  22  23
ENDBRANCH  21  22
ENDBRANCH  20  21
ENDBRANCH  19  20
BRANCH  19  27
HETATM   27  C           1     -21.617  -6.923  -2.480  0.00  0.00     0.196 C 
HETATM   28  O           1     -22.327  -5.933  -2.201  0.00  0.00    -0.646 OA
HETATM   29  O           1     -20.894  -7.442  -1.602  0.00  0.00    -0.646 OA
ENDBRANCH  19  27
ENDBRANCH   3  19
TORSDOF 11
ENDMDL
MODEL 7
REMARK VINA RESULT:      -6.5     13.869     16.257
REMARK  11 active torsions:
REMARK  status: ('A' for Active; 'I' for Inactive)
REMARK       I    between atoms: C_1  and  N_10 
REMARK    1  A    between atoms: C_1  and  C_2 
REMARK    2  A    between atoms: C_2  and  C_3 
REMARK    3  A    between atoms: C_2  and  N_15 
REMARK    4  A    between atoms: C_3  and  C_23 
REMARK    5  A    between atoms: N_10  and  C_12 
REMARK    6  A    between atoms: C_11  and  C_18 
REMARK    7  A    between atoms: C_11  and  C_12 
REMARK    8  A    between atoms: C_12  and  C_28 
REMARK    9  A    between atoms: C_14  and  O_20 
REMARK   10  A    between atoms: C_16  and  N_25 
REMARK   11  A    between atoms: C_16  and  C_18 
ROOT
HETATM    1  C           1     -20.585  -6.908  -6.019  0.00  0.00     0.249 C 
HETATM    2  O           1     -19.528  -7.035  -6.587  0.00  0.00    -0.271 OA
HETATM    3  N           1     -20.851  -7.642  -4.893  0.00  0.00    -0.345 N 
HETATM    4  H           1     -21.737  -7.534  -4.417  0.00  0.00     0.163 HD
ENDROOT
BRANCH   1   5
HETATM    5  C           1     -21.614  -5.939  -6.548  0.00  0.00     0.278 C 
BRANCH   5   6
HETATM    6  C           1     -20.926  -4.646  -6.968  0.00  0.00     0.081 C 
BRANCH   6   7
HETATM    7  C           1     -21.112  -4.438  -8.439  0.00  0.00    -0.056 A 
HETATM    8  C           1     -22.349  -4.023  -8.934  0.00  0.00     0.010 A 
HETATM    9  C           1     -22.521  -3.830 -10.305  0.00  0.00     0.037 A 
HETATM   10  C           1     -21.457  -4.050 -11.180  0.00  0.00     0.065 A 
HETATM   11  C           1     -20.222  -4.465 -10.684  0.00  0.00     0.037 A 
HETATM   12  C           1     -20.048  -4.659  -9.313  0.00  0.00     0.010 A 
BRANCH  10  13
HETATM   13  O           1     -21.625  -3.863 -12.511  0.00  0.00    -0.361 OA
HETATM   14  H           1     -21.186  -4.595 -12.975  0.00  0.00     0.217 HD
ENDBRANCH  10  13
ENDBRANCH   6   7
ENDBRANCH   5   6
BRANCH   5  15
HETATM   15  N           1     -22.619  -5.642  -5.474  0.00  0.00    -0.066 N 
HETATM   16  H           1     -22.792  -4.613  -5.432  0.00  0.00     0.275 HD
HETATM   17  H           1     -23.515  -6.136  -5.690  0.00  0.00     0.275 HD
HETATM   18  H           1     -22.252  -5.972  -4.553  0.00  0.00     0.275 HD
ENDBRANCH   5  15
ENDBRANCH   1   5
BRANCH   3  19
HETATM   19  C           1     -19.862  -8.573  -4.386  0.00  0.00     0.185 C 
BRANCH  19  20
HETATM   20  C           1     -19.887  -8.559  -2.863  0.00  0.00     0.038 C 
BRANCH  20  21
HETATM   21  C           1     -20.890  -7.520  -2.380  0.00  0.00     0.030 C 
BRANCH  21  22
HETATM   22  C           1     -21.838  -8.158  -1.374  0.00  0.00     0.230 C 
BRANCH  22  23
HETATM   23  N           1     -21.784  -9.652  -1.513  0.00  0.00    -0.079 N 
HETATM   24  H           1     -22.489  -9.961  -2.221  0.00  0.00     0.274 HD
HETATM   25  H           1     -22.000 -10.096  -0.592  0.00  0.00     0.274 HD
HETATM   26  H           1     -20.829  -9.938  -1.823  0.00  0.00     0.274 HD
ENDBRANCH  22  23
ENDBRANCH  21  22
ENDBRANCH  20  21
ENDBRANCH  19  20
BRANCH  19  27
HETATM   27  C           1     -20.181  -9.962  -4.882  0.00  0.00     0.196 C 
HETATM   28  O           1     -19.671 -10.379  -5.944  0.00  0.00    -0.646 OA
HETATM   29  O           1     -20.954 -10.696  -4.228  0.00  0.00    -0.646 OA
ENDBRANCH  19  27
ENDBRANCH   3  19
TORSDOF 11
ENDMDL
MODEL 8
REMARK VINA RESULT:      -6.5     13.763     17.194
REMARK  11 active torsions:
REMARK  status: ('A' for Active; 'I' for Inactive)
REMARK       I    between atoms: C_1  and  N_10 
REMARK    1  A    between atoms: C_1  and  C_2 
REMARK    2  A    between atoms: C_2  and  C_3 
REMARK    3  A    between atoms: C_2  and  N_15 
REMARK    4  A    between atoms: C_3  and  C_23 
REMARK    5  A    between atoms: N_10  and  C_12 
REMARK    6  A    between atoms: C_11  and  C_18 
REMARK    7  A    between atoms: C_11  and  C_12 
REMARK    8  A    between atoms: C_12  and  C_28 
REMARK    9  A    between atoms: C_14  and  O_20 
REMARK   10  A    between atoms: C_16  and  N_25 
REMARK   11  A    between atoms: C_16  and  C_18 
ROOT
HETATM    1  C           1     -20.931  -6.042  -6.297  0.00  0.00     0.249 C 
HETATM    2  O           1     -20.744  -7.051  -6.933  0.00  0.00    -0.271 OA
HETATM    3  N           1     -21.356  -4.903  -6.928  0.00  0.00    -0.345 N 
HETATM    4  H           1     -21.512  -4.057  -6.395  0.00  0.00     0.163 HD
ENDROOT
BRANCH   1   5
HETATM    5  C           1     -20.696  -6.035  -4.806  0.00  0.00     0.278 C 
BRANCH   5   6
HETATM    6  C           1     -22.013  -6.290  -4.084  0.00  0.00     0.081 C 
BRANCH   6   7
HETATM    7  C           1     -21.741  -6.978  -2.782  0.00  0.00    -0.056 A 
HETATM    8  C           1     -20.823  -8.026  -2.724  0.00  0.00     0.010 A 
HETATM    9  C           1     -20.571  -8.666  -1.510  0.00  0.00     0.037 A 
HETATM   10  C           1     -21.237  -8.257  -0.354  0.00  0.00     0.065 A 
HETATM   11  C           1     -22.156  -7.210  -0.413  0.00  0.00     0.037 A 
HETATM   12  C           1     -22.408  -6.569  -1.627  0.00  0.00     0.010 A 
BRANCH  10  13
HETATM   13  O           1     -20.993  -8.879   0.824  0.00  0.00    -0.361 OA
HETATM   14  H           1     -20.136  -9.331   0.752  0.00  0.00     0.217 HD
ENDBRANCH  10  13
ENDBRANCH   6   7
ENDBRANCH   5   6
BRANCH   5  15
HETATM   15  N           1     -20.151  -4.699  -4.393  0.00  0.00    -0.066 N 
HETATM   16  H           1     -19.340  -4.450  -5.002  0.00  0.00     0.275 HD
HETATM   17  H           1     -20.897  -3.973  -4.493  0.00  0.00     0.275 HD
HETATM   18  H           1     -19.839  -4.744  -3.397  0.00  0.00     0.275 HD
ENDBRANCH   5  15
ENDBRANCH   1   5
BRANCH   3  19
HETATM   19  C           1     -21.581  -4.910  -8.361  0.00  0.00     0.185 C 
BRANCH  19  20
HETATM   20  C           1     -22.749  -3.993  -8.696  0.00  0.00     0.038 C 
BRANCH  20  21
HETATM   21  C           1     -23.518  -4.562  -9.881  0.00  0.00     0.030 C 
BRANCH  21  22
HETATM   22  C           1     -24.444  -3.493 -10.446  0.00  0.00     0.230 C 
BRANCH  22  23
HETATM   23  N           1     -25.733  -3.489  -9.678  0.00  0.00    -0.079 N 
HETATM   24  H           1     -25.573  -3.894  -8.727  0.00  0.00     0.274 HD
HETATM   25  H           1     -26.444  -4.062 -10.184  0.00  0.00     0.274 HD
HETATM   26  H           1     -26.079  -2.507  -9.585  0.00  0.00     0.274 HD
ENDBRANCH  22  23
ENDBRANCH  21  22
ENDBRANCH  20  21
ENDBRANCH  19  20
BRANCH  19  27
HETATM   27  C           1     -20.339  -4.420  -9.065  0.00  0.00     0.196 C 
HETATM   28  O           1     -19.558  -3.638  -8.483  0.00  0.00    -0.646 OA
HETATM   29  O           1     -20.092  -4.800 -10.231  0.00  0.00    -0.646 OA
ENDBRANCH  19  27
ENDBRANCH   3  19
TORSDOF 11
ENDMDL
MODEL 9
REMARK VINA RESULT:      -6.2     13.382     16.823
REMARK  11 active torsions:
REMARK  status: ('A' for Active; 'I' for Inactive)
REMARK       I    between atoms: C_1  and  N_10 
REMARK    1  A    between atoms: C_1  and  C_2 
REMARK    2  A    between atoms: C_2  and  C_3 
REMARK    3  A    between atoms: C_2  and  N_15 
REMARK    4  A    between atoms: C_3  and  C_23 
REMARK    5  A    between atoms: N_10  and  C_12 
REMARK    6  A    between atoms: C_11  and  C_18 
REMARK    7  A    between atoms: C_11  and  C_12 
REMARK    8  A    between atoms: C_12  and  C_28 
REMARK    9  A    between atoms: C_14  and  O_20 
REMARK   10  A    between atoms: C_16  and  N_25 
REMARK   11  A    between atoms: C_16  and  C_18 
ROOT
HETATM    1  C           1     -21.534  -5.807  -6.615  0.00  0.00     0.249 C 
HETATM    2  O           1     -20.981  -6.750  -7.128  0.00  0.00    -0.271 OA
HETATM    3  N           1     -21.960  -4.759  -7.386  0.00  0.00    -0.345 N 
HETATM    4  H           1     -22.424  -3.969  -6.956  0.00  0.00     0.163 HD
ENDROOT
BRANCH   1   5
HETATM    5  C           1     -21.757  -5.784  -5.122  0.00  0.00     0.278 C 
BRANCH   5   6
HETATM    6  C           1     -20.726  -6.674  -4.440  0.00  0.00     0.081 C 
BRANCH   6   7
HETATM    7  C           1     -21.270  -7.157  -3.132  0.00  0.00    -0.056 A 
HETATM    8  C           1     -21.808  -6.248  -2.221  0.00  0.00     0.010 A 
HETATM    9  C           1     -22.316  -6.699  -1.003  0.00  0.00     0.037 A 
HETATM   10  C           1     -22.285  -8.060  -0.695  0.00  0.00     0.065 A 
HETATM   11  C           1     -21.747  -8.968  -1.606  0.00  0.00     0.037 A 
HETATM   12  C           1     -21.239  -8.518  -2.825  0.00  0.00     0.010 A 
BRANCH  10  13
HETATM   13  O           1     -22.777  -8.497   0.489  0.00  0.00    -0.361 OA
HETATM   14  H           1     -22.219  -8.137   1.197  0.00  0.00     0.217 HD
ENDBRANCH  10  13
ENDBRANCH   6   7
ENDBRANCH   5   6
BRANCH   5  15
HETATM   15  N           1     -23.135  -6.292  -4.815  0.00  0.00    -0.066 N 
HETATM   16  H           1     -23.127  -7.337  -4.806  0.00  0.00     0.275 HD
HETATM   17  H           1     -23.436  -5.939  -3.879  0.00  0.00     0.275 HD
HETATM   18  H           1     -23.801  -5.956  -5.546  0.00  0.00     0.275 HD
ENDBRANCH   5  15
ENDBRANCH   1   5
BRANCH   3  19
HETATM   19  C           1     -21.745  -4.781  -8.820  0.00  0.00     0.185 C 
BRANCH  19  20
HETATM   20  C           1     -22.804  -3.928  -9.505  0.00  0.00     0.038 C 
BRANCH  20  21
HETATM   21  C           1     -23.449  -4.726 -10.631  0.00  0.00     0.030 C 
BRANCH  21  22
HETATM   22  C           1     -23.213  -4.015 -11.957  0.00  0.00     0.230 C 
BRANCH  22  23
HETATM   23  N           1     -24.194  -2.888 -12.103  0.00  0.00    -0.079 N 
HETATM   24  H           1     -25.094  -3.148 -11.638  0.00  0.00     0.274 HD
HETATM   25  H           1     -24.367  -2.704 -13.117  0.00  0.00     0.274 HD
HETATM   26  H           1     -23.805  -2.029 -11.654  0.00  0.00     0.274 HD
ENDBRANCH  22  23
ENDBRANCH  21  22
ENDBRANCH  20  21
ENDBRANCH  19  20
BRANCH  19  27
HETATM   27  C           1     -20.376  -4.228  -9.130  0.00  0.00     0.196 C 
HETATM   28  O           1     -19.941  -4.258 -10.302  0.00  0.00    -0.646 OA
HETATM   29  O           1     -19.678  -3.739  -8.215  0.00  0.00    -0.646 OA
ENDBRANCH  19  27
ENDBRANCH   3  19
TORSDOF 11
ENDMDL
