MODEL 1
REMARK VINA RESULT:      -5.8      0.000      0.000
REMARK  7 active torsions:
REMARK  status: ('A' for Active; 'I' for Inactive)
REMARK    1  A    between atoms: N_5  and  C_8 
REMARK    2  A    between atoms: Se_6  and  C_7 
REMARK    3  A    between atoms: C_7  and  C_8 
REMARK    4  A    between atoms: C_8  and  C_9 
REMARK       I    between atoms: C_9  and  N_10 
REMARK    5  A    between atoms: N_10  and  C_14 
REMARK    6  A    between atoms: C_13  and  C_14 
REMARK    7  A    between atoms: C_14  and  C_16 
ROOT
HETATM    1  O           1     -21.576  -3.428  -7.232  0.00  0.00    -0.271 OA
HETATM    2  C           1     -21.606  -4.566  -7.635  0.00  0.00     0.249 C 
HETATM    3  N           1     -22.113  -4.840  -8.876  0.00  0.00    -0.344 N 
HETATM    4  H           1     -22.137  -5.794  -9.215  0.00  0.00     0.163 HD
ENDROOT
BRANCH   2   5
HETATM    5  C           1     -21.083  -5.687  -6.770  0.00  0.00     0.274 C 
BRANCH   5   6
HETATM    6  N           1     -19.876  -6.297  -7.419  0.00  0.00    -0.067 N 
HETATM    7  H           1     -19.535  -7.097  -6.839  0.00  0.00     0.275 HD
HETATM    8  H           1     -20.130  -6.641  -8.372  0.00  0.00     0.275 HD
HETATM    9  H           1     -19.121  -5.579  -7.499  0.00  0.00     0.275 HD
ENDBRANCH   5   6
BRANCH   5  10
HETATM   10  C           1     -20.699  -5.136  -5.403  0.00  0.00     0.045 C 
BRANCH  10  11
HETATM   11 Se           1     -21.400  -6.305  -4.010  0.00  0.00     0.000 Se
HETATM   12  H           1     -21.072  -7.549  -4.727  0.00  0.00     0.000 HD
ENDBRANCH  10  11
ENDBRANCH   5  10
ENDBRANCH   2   5
BRANCH   3  13
HETATM   13  C           1     -22.616  -3.763  -9.708  0.00  0.00     0.189 C 
BRANCH  13  14
HETATM   14  C           1     -24.123  -3.829  -9.757  0.00  0.00     0.197 C 
HETATM   15  O           1     -24.802  -2.814  -9.486  0.00  0.00    -0.646 OA
HETATM   16  O           1     -24.693  -4.897 -10.065  0.00  0.00    -0.646 OA
ENDBRANCH  13  14
BRANCH  13  17
HETATM   17  C           1     -22.056  -3.906 -11.117  0.00  0.00     0.010 C 
HETATM   18  C           1     -22.489  -2.713 -11.958  0.00  0.00     0.012 C 
HETATM   19  C           1     -20.535  -3.959 -11.054  0.00  0.00     0.012 C 
ENDBRANCH  13  17
ENDBRANCH   3  13
TORSDOF 7
ENDMDL
MODEL 2
REMARK VINA RESULT:      -5.5     12.253     14.012
REMARK  7 active torsions:
REMARK  status: ('A' for Active; 'I' for Inactive)
REMARK    1  A    between atoms: N_5  and  C_8 
REMARK    2  A    between atoms: Se_6  and  C_7 
REMARK    3  A    between atoms: C_7  and  C_8 
REMARK    4  A    between atoms: C_8  and  C_9 
REMARK       I    between atoms: C_9  and  N_10 
REMARK    5  A    between atoms: N_10  and  C_14 
REMARK    6  A    between atoms: C_13  and  C_14 
REMARK    7  A    between atoms: C_14  and  C_16 
ROOT
HETATM    1  O           1     -33.637  -2.140 -11.246  0.00  0.00    -0.271 OA
HETATM    2  C           1     -34.398  -2.600 -12.063  0.00  0.00     0.249 C 
HETATM    3  N           1     -35.379  -1.815 -12.604  0.00  0.00    -0.344 N 
HETATM    4  H           1     -36.017  -2.200 -13.290  0.00  0.00     0.163 HD
ENDROOT
BRANCH   2   5
HETATM    5  C           1     -34.266  -4.042 -12.489  0.00  0.00     0.274 C 
BRANCH   5   6
HETATM    6  N           1     -33.716  -4.103 -13.884  0.00  0.00    -0.067 N 
HETATM    7  H           1     -33.142  -3.249 -14.069  0.00  0.00     0.275 HD
HETATM    8  H           1     -33.119  -4.953 -13.986  0.00  0.00     0.275 HD
HETATM    9  H           1     -34.505  -4.146 -14.568  0.00  0.00     0.275 HD
ENDBRANCH   5   6
BRANCH   5  10
HETATM   10  C           1     -33.321  -4.768 -11.540  0.00  0.00     0.045 C 
BRANCH  10  11
HETATM   11 Se           1     -34.272  -6.225 -10.663  0.00  0.00     0.000 Se
HETATM   12  H           1     -33.595  -7.284 -11.430  0.00  0.00     0.000 HD
ENDBRANCH  10  11
ENDBRANCH   5  10
ENDBRANCH   2   5
BRANCH   3  13
HETATM   13  C           1     -35.507  -0.428 -12.195  0.00  0.00     0.189 C 
BRANCH  13  14
HETATM   14  C           1     -36.634  -0.301 -11.201  0.00  0.00     0.197 C 
HETATM   15  O           1     -37.650  -1.021 -11.313  0.00  0.00    -0.646 OA
HETATM   16  O           1     -36.555   0.525 -10.266  0.00  0.00    -0.646 OA
ENDBRANCH  13  14
BRANCH  13  17
HETATM   17  C           1     -35.803   0.435 -13.414  0.00  0.00     0.010 C 
HETATM   18  C           1     -34.549   1.205 -13.806  0.00  0.00     0.012 C 
HETATM   19  C           1     -36.236  -0.455 -14.572  0.00  0.00     0.012 C 
ENDBRANCH  13  17
ENDBRANCH   3  13
TORSDOF 7
ENDMDL
MODEL 3
REMARK VINA RESULT:      -5.3     13.783     15.570
REMARK  7 active torsions:
REMARK  status: ('A' for Active; 'I' for Inactive)
REMARK    1  A    between atoms: N_5  and  C_8 
REMARK    2  A    between atoms: Se_6  and  C_7 
REMARK    3  A    between atoms: C_7  and  C_8 
REMARK    4  A    between atoms: C_8  and  C_9 
REMARK       I    between atoms: C_9  and  N_10 
REMARK    5  A    between atoms: N_10  and  C_14 
REMARK    6  A    between atoms: C_13  and  C_14 
REMARK    7  A    between atoms: C_14  and  C_16 
ROOT
HETATM    1  O           1     -37.562  -0.752 -13.322  0.00  0.00    -0.271 OA
HETATM    2  C           1     -36.446  -0.301 -13.226  0.00  0.00     0.249 C 
HETATM    3  N           1     -35.669  -0.620 -12.146  0.00  0.00    -0.344 N 
HETATM    4  H           1     -34.733  -0.243 -12.066  0.00  0.00     0.163 HD
ENDROOT
BRANCH   2   5
HETATM    5  C           1     -35.908   0.614 -14.299  0.00  0.00     0.274 C 
BRANCH   5   6
HETATM    6  N           1     -34.453   0.322 -14.521  0.00  0.00    -0.067 N 
HETATM    7  H           1     -33.878   0.901 -13.867  0.00  0.00     0.275 HD
HETATM    8  H           1     -34.271  -0.691 -14.343  0.00  0.00     0.275 HD
HETATM    9  H           1     -34.197   0.554 -15.507  0.00  0.00     0.275 HD
ENDBRANCH   5   6
BRANCH   5  10
HETATM   10  C           1     -36.674   0.384 -15.594  0.00  0.00     0.045 C 
BRANCH  10  11
HETATM   11 Se           1     -35.841  -1.065 -16.595  0.00  0.00     0.000 Se
HETATM   12  H           1     -36.406  -0.652 -17.890  0.00  0.00     0.000 HD
ENDBRANCH  10  11
ENDBRANCH   5  10
ENDBRANCH   2   5
BRANCH   3  13
HETATM   13  C           1     -36.186  -1.500 -11.115  0.00  0.00     0.189 C 
BRANCH  13  14
HETATM   14  C           1     -36.707  -0.673  -9.965  0.00  0.00     0.197 C 
HETATM   15  O           1     -35.938  -0.336  -9.039  0.00  0.00    -0.646 OA
HETATM   16  O           1     -37.907  -0.325  -9.938  0.00  0.00    -0.646 OA
ENDBRANCH  13  14
BRANCH  13  17
HETATM   17  C           1     -35.072  -2.412 -10.621  0.00  0.00     0.010 C 
HETATM   18  C           1     -35.404  -3.856 -10.974  0.00  0.00     0.012 C 
HETATM   19  C           1     -33.759  -2.016 -11.285  0.00  0.00     0.012 C 
ENDBRANCH  13  17
ENDBRANCH   3  13
TORSDOF 7
ENDMDL
MODEL 4
REMARK VINA RESULT:      -5.2     12.712     14.578
REMARK  7 active torsions:
REMARK  status: ('A' for Active; 'I' for Inactive)
REMARK    1  A    between atoms: N_5  and  C_8 
REMARK    2  A    between atoms: Se_6  and  C_7 
REMARK    3  A    between atoms: C_7  and  C_8 
REMARK    4  A    between atoms: C_8  and  C_9 
REMARK       I    between atoms: C_9  and  N_10 
REMARK    5  A    between atoms: N_10  and  C_14 
REMARK    6  A    between atoms: C_13  and  C_14 
REMARK    7  A    between atoms: C_14  and  C_16 
ROOT
HETATM    1  O           1     -34.693  -0.342 -13.844  0.00  0.00    -0.271 OA
HETATM    2  C           1     -35.556  -0.740 -13.098  0.00  0.00     0.249 C 
HETATM    3  N           1     -35.418  -1.951 -12.475  0.00  0.00    -0.344 N 
HETATM    4  H           1     -36.141  -2.284 -11.849  0.00  0.00     0.163 HD
ENDROOT
BRANCH   2   5
HETATM    5  C           1     -36.787   0.099 -12.854  0.00  0.00     0.274 C 
BRANCH   5   6
HETATM    6  N           1     -37.640   0.105 -14.088  0.00  0.00    -0.067 N 
HETATM    7  H           1     -38.297  -0.708 -14.062  0.00  0.00     0.275 HD
HETATM    8  H           1     -38.187   0.994 -14.129  0.00  0.00     0.275 HD
HETATM    9  H           1     -37.030   0.032 -14.934  0.00  0.00     0.275 HD
ENDBRANCH   5   6
BRANCH   5  10
HETATM   10  C           1     -37.579  -0.487 -11.693  0.00  0.00     0.045 C 
BRANCH  10  11
HETATM   11 Se           1     -37.058   0.398 -10.037  0.00  0.00     0.000 Se
HETATM   12  H           1     -38.046  -0.313  -9.210  0.00  0.00     0.000 HD
ENDBRANCH  10  11
ENDBRANCH   5  10
ENDBRANCH   2   5
BRANCH   3  13
HETATM   13  C           1     -34.235  -2.757 -12.710  0.00  0.00     0.189 C 
BRANCH  13  14
HETATM   14  C           1     -34.571  -3.873 -13.668  0.00  0.00     0.197 C 
HETATM   15  O           1     -35.101  -4.923 -13.242  0.00  0.00    -0.646 OA
HETATM   16  O           1     -34.320  -3.749 -14.885  0.00  0.00    -0.646 OA
ENDBRANCH  13  14
BRANCH  13  17
HETATM   17  C           1     -33.753  -3.346 -11.391  0.00  0.00     0.010 C 
HETATM   18  C           1     -32.453  -4.105 -11.621  0.00  0.00     0.012 C 
HETATM   19  C           1     -33.516  -2.223 -10.390  0.00  0.00     0.012 C 
ENDBRANCH  13  17
ENDBRANCH   3  13
TORSDOF 7
ENDMDL
MODEL 5
REMARK VINA RESULT:      -5.2     13.048     14.923
REMARK  7 active torsions:
REMARK  status: ('A' for Active; 'I' for Inactive)
REMARK    1  A    between atoms: N_5  and  C_8 
REMARK    2  A    between atoms: Se_6  and  C_7 
REMARK    3  A    between atoms: C_7  and  C_8 
REMARK    4  A    between atoms: C_8  and  C_9 
REMARK       I    between atoms: C_9  and  N_10 
REMARK    5  A    between atoms: N_10  and  C_14 
REMARK    6  A    between atoms: C_13  and  C_14 
REMARK    7  A    between atoms: C_14  and  C_16 
ROOT
HETATM    1  O           1     -35.112  -1.631 -14.514  0.00  0.00    -0.271 OA
HETATM    2  C           1     -35.587  -1.154 -13.512  0.00  0.00     0.249 C 
HETATM    3  N           1     -35.463  -1.808 -12.316  0.00  0.00    -0.344 N 
HETATM    4  H           1     -35.860  -1.408 -11.476  0.00  0.00     0.163 HD
ENDROOT
BRANCH   2   5
HETATM    5  C           1     -36.317   0.166 -13.577  0.00  0.00     0.274 C 
BRANCH   5   6
HETATM    6  N           1     -35.730   1.007 -14.672  0.00  0.00    -0.067 N 
HETATM    7  H           1     -36.093   1.984 -14.594  0.00  0.00     0.275 HD
HETATM    8  H           1     -34.689   1.014 -14.586  0.00  0.00     0.275 HD
HETATM    9  H           1     -36.000   0.609 -15.600  0.00  0.00     0.275 HD
ENDBRANCH   5   6
BRANCH   5  10
HETATM   10  C           1     -37.791  -0.083 -13.864  0.00  0.00     0.045 C 
BRANCH  10  11
HETATM   11 Se           1     -38.075  -0.170 -15.790  0.00  0.00     0.000 Se
HETATM   12  H           1     -36.923   0.688 -16.115  0.00  0.00     0.000 HD
ENDBRANCH  10  11
ENDBRANCH   5  10
ENDBRANCH   2   5
BRANCH   3  13
HETATM   13  C           1     -34.761  -3.076 -12.253  0.00  0.00     0.189 C 
BRANCH  13  14
HETATM   14  C           1     -35.447  -3.980 -11.259  0.00  0.00     0.197 C 
HETATM   15  O           1     -36.391  -3.542 -10.564  0.00  0.00    -0.646 OA
HETATM   16  O           1     -35.073  -5.165 -11.127  0.00  0.00    -0.646 OA
ENDBRANCH  13  14
BRANCH  13  17
HETATM   17  C           1     -33.322  -2.838 -11.815  0.00  0.00     0.010 C 
HETATM   18  C           1     -33.312  -2.223 -10.422  0.00  0.00     0.012 C 
HETATM   19  C           1     -32.573  -4.165 -11.789  0.00  0.00     0.012 C 
ENDBRANCH  13  17
ENDBRANCH   3  13
TORSDOF 7
ENDMDL
MODEL 6
REMARK VINA RESULT:      -5.0      3.337      5.318
REMARK  7 active torsions:
REMARK  status: ('A' for Active; 'I' for Inactive)
REMARK    1  A    between atoms: N_5  and  C_8 
REMARK    2  A    between atoms: Se_6  and  C_7 
REMARK    3  A    between atoms: C_7  and  C_8 
REMARK    4  A    between atoms: C_8  and  C_9 
REMARK       I    between atoms: C_9  and  N_10 
REMARK    5  A    between atoms: N_10  and  C_14 
REMARK    6  A    between atoms: C_13  and  C_14 
REMARK    7  A    between atoms: C_14  and  C_16 
ROOT
HETATM    1  O           1     -23.340  -4.691 -10.233  0.00  0.00    -0.271 OA
HETATM    2  C           1     -22.317  -4.068 -10.384  0.00  0.00     0.249 C 
HETATM    3  N           1     -21.308  -4.173  -9.466  0.00  0.00    -0.344 N 
HETATM    4  H           1     -20.450  -3.652  -9.593  0.00  0.00     0.163 HD
ENDROOT
BRANCH   2   5
HETATM    5  C           1     -22.151  -3.173 -11.588  0.00  0.00     0.274 C 
BRANCH   5   6
HETATM    6  N           1     -21.310  -3.871 -12.617  0.00  0.00    -0.067 N 
HETATM    7  H           1     -21.842  -4.681 -13.010  0.00  0.00     0.275 HD
HETATM    8  H           1     -21.072  -3.203 -13.384  0.00  0.00     0.275 HD
HETATM    9  H           1     -20.430  -4.217 -12.171  0.00  0.00     0.275 HD
ENDBRANCH   5   6
BRANCH   5  10
HETATM   10  C           1     -23.517  -2.858 -12.180  0.00  0.00     0.045 C 
BRANCH  10  11
HETATM   11 Se           1     -23.348  -2.585 -14.102  0.00  0.00     0.000 Se
HETATM   12  H           1     -21.876  -2.644 -14.098  0.00  0.00     0.000 HD
ENDBRANCH  10  11
ENDBRANCH   5  10
ENDBRANCH   2   5
BRANCH   3  13
HETATM   13  C           1     -21.468  -5.034  -8.308  0.00  0.00     0.189 C 
BRANCH  13  14
HETATM   14  C           1     -22.095  -4.249  -7.183  0.00  0.00     0.197 C 
HETATM   15  O           1     -23.096  -4.702  -6.586  0.00  0.00    -0.646 OA
HETATM   16  O           1     -21.615  -3.145  -6.847  0.00  0.00    -0.646 OA
ENDBRANCH  13  14
BRANCH  13  17
HETATM   17  C           1     -20.105  -5.552  -7.869  0.00  0.00     0.010 C 
HETATM   18  C           1     -19.133  -4.385  -7.756  0.00  0.00     0.012 C 
HETATM   19  C           1     -20.234  -6.238  -6.516  0.00  0.00     0.012 C 
ENDBRANCH  13  17
ENDBRANCH   3  13
TORSDOF 7
ENDMDL
MODEL 7
REMARK VINA RESULT:      -4.9     13.503     15.210
REMARK  7 active torsions:
REMARK  status: ('A' for Active; 'I' for Inactive)
REMARK    1  A    between atoms: N_5  and  C_8 
REMARK    2  A    between atoms: Se_6  and  C_7 
REMARK    3  A    between atoms: C_7  and  C_8 
REMARK    4  A    between atoms: C_8  and  C_9 
REMARK       I    between atoms: C_9  and  N_10 
REMARK    5  A    between atoms: N_10  and  C_14 
REMARK    6  A    between atoms: C_13  and  C_14 
REMARK    7  A    between atoms: C_14  and  C_16 
ROOT
HETATM    1  O           1     -34.260   0.143 -13.895  0.00  0.00    -0.271 OA
HETATM    2  C           1     -35.397  -0.263 -13.855  0.00  0.00     0.249 C 
HETATM    3  N           1     -35.687  -1.423 -13.189  0.00  0.00    -0.344 N 
HETATM    4  H           1     -36.640  -1.762 -13.155  0.00  0.00     0.163 HD
ENDROOT
BRANCH   2   5
HETATM    5  C           1     -36.498   0.510 -14.540  0.00  0.00     0.274 C 
BRANCH   5   6
HETATM    6  N           1     -35.906   1.678 -15.272  0.00  0.00    -0.067 N 
HETATM    7  H           1     -36.300   2.567 -14.888  0.00  0.00     0.275 HD
HETATM    8  H           1     -34.869   1.676 -15.152  0.00  0.00     0.275 HD
HETATM    9  H           1     -36.138   1.606 -16.289  0.00  0.00     0.275 HD
ENDBRANCH   5   6
BRANCH   5  10
HETATM   10  C           1     -37.217  -0.397 -15.528  0.00  0.00     0.045 C 
BRANCH  10  11
HETATM   11 Se           1     -35.924  -1.161 -16.770  0.00  0.00     0.000 Se
HETATM   12  H           1     -36.279  -0.258 -17.877  0.00  0.00     0.000 HD
ENDBRANCH  10  11
ENDBRANCH   5  10
ENDBRANCH   2   5
BRANCH   3  13
HETATM   13  C           1     -34.629  -2.166 -12.531  0.00  0.00     0.189 C 
BRANCH  13  14
HETATM   14  C           1     -34.458  -3.502 -13.210  0.00  0.00     0.197 C 
HETATM   15  O           1     -34.533  -4.557 -12.542  0.00  0.00    -0.646 OA
HETATM   16  O           1     -34.240  -3.556 -14.439  0.00  0.00    -0.646 OA
ENDBRANCH  13  14
BRANCH  13  17
HETATM   17  C           1     -34.995  -2.382 -11.069  0.00  0.00     0.010 C 
HETATM   18  C           1     -33.770  -2.132 -10.198  0.00  0.00     0.012 C 
HETATM   19  C           1     -36.104  -1.415 -10.675  0.00  0.00     0.012 C 
ENDBRANCH  13  17
ENDBRANCH   3  13
TORSDOF 7
ENDMDL
MODEL 8
REMARK VINA RESULT:      -4.8      3.307      5.326
REMARK  7 active torsions:
REMARK  status: ('A' for Active; 'I' for Inactive)
REMARK    1  A    between atoms: N_5  and  C_8 
REMARK    2  A    between atoms: Se_6  and  C_7 
REMARK    3  A    between atoms: C_7  and  C_8 
REMARK    4  A    between atoms: C_8  and  C_9 
REMARK       I    between atoms: C_9  and  N_10 
REMARK    5  A    between atoms: N_10  and  C_14 
REMARK    6  A    between atoms: C_13  and  C_14 
REMARK    7  A    between atoms: C_14  and  C_16 
ROOT
HETATM    1  O           1     -21.449  -4.765 -10.055  0.00  0.00    -0.271 OA
HETATM    2  C           1     -22.428  -4.540  -9.386  0.00  0.00     0.249 C 
HETATM    3  N           1     -22.428  -4.835  -8.050  0.00  0.00    -0.344 N 
HETATM    4  H           1     -23.249  -4.644  -7.489  0.00  0.00     0.163 HD
ENDROOT
BRANCH   2   5
HETATM    5  C           1     -23.653  -3.931 -10.024  0.00  0.00     0.274 C 
BRANCH   5   6
HETATM    6  N           1     -24.468  -3.232  -8.976  0.00  0.00    -0.067 N 
HETATM    7  H           1     -24.483  -3.809  -8.104  0.00  0.00     0.275 HD
HETATM    8  H           1     -24.045  -2.300  -8.770  0.00  0.00     0.275 HD
HETATM    9  H           1     -25.445  -3.102  -9.323  0.00  0.00     0.275 HD
ENDBRANCH   5   6
BRANCH   5  10
HETATM   10  C           1     -23.227  -2.928 -11.087  0.00  0.00     0.045 C 
BRANCH  10  11
HETATM   11 Se           1     -24.205  -3.273 -12.737  0.00  0.00     0.000 Se
HETATM   12  H           1     -24.574  -1.863 -12.950  0.00  0.00     0.000 HD
ENDBRANCH  10  11
ENDBRANCH   5  10
ENDBRANCH   2   5
BRANCH   3  13
HETATM   13  C           1     -21.251  -5.419  -7.435  0.00  0.00     0.189 C 
BRANCH  13  14
HETATM   14  C           1     -21.673  -6.322  -6.303  0.00  0.00     0.197 C 
HETATM   15  O           1     -21.152  -7.452  -6.177  0.00  0.00    -0.646 OA
HETATM   16  O           1     -22.543  -5.942  -5.491  0.00  0.00    -0.646 OA
ENDBRANCH  13  14
BRANCH  13  17
HETATM   17  C           1     -20.357  -4.311  -6.896  0.00  0.00     0.010 C 
HETATM   18  C           1     -20.039  -4.584  -5.432  0.00  0.00     0.012 C 
HETATM   19  C           1     -19.063  -4.268  -7.698  0.00  0.00     0.012 C 
ENDBRANCH  13  17
ENDBRANCH   3  13
TORSDOF 7
ENDMDL
MODEL 9
REMARK VINA RESULT:      -4.8     13.908     15.626
REMARK  7 active torsions:
REMARK  status: ('A' for Active; 'I' for Inactive)
REMARK    1  A    between atoms: N_5  and  C_8 
REMARK    2  A    between atoms: Se_6  and  C_7 
REMARK    3  A    between atoms: C_7  and  C_8 
REMARK    4  A    between atoms: C_8  and  C_9 
REMARK       I    between atoms: C_9  and  N_10 
REMARK    5  A    between atoms: N_10  and  C_14 
REMARK    6  A    between atoms: C_13  and  C_14 
REMARK    7  A    between atoms: C_14  and  C_16 
ROOT
HETATM    1  O           1     -34.522   1.079 -13.320  0.00  0.00    -0.271 OA
HETATM    2  C           1     -35.141   0.189 -13.852  0.00  0.00     0.249 C 
HETATM    3  N           1     -35.656  -0.831 -13.100  0.00  0.00    -0.344 N 
HETATM    4  H           1     -36.176  -1.577 -13.545  0.00  0.00     0.163 HD
ENDROOT
BRANCH   2   5
HETATM    5  C           1     -35.345   0.202 -15.347  0.00  0.00     0.274 C 
BRANCH   5   6
HETATM    6  N           1     -35.320  -1.205 -15.867  0.00  0.00    -0.067 N 
HETATM    7  H           1     -34.580  -1.748 -15.367  0.00  0.00     0.275 HD
HETATM    8  H           1     -36.250  -1.653 -15.706  0.00  0.00     0.275 HD
HETATM    9  H           1     -35.112  -1.195 -16.891  0.00  0.00     0.275 HD
ENDBRANCH   5   6
BRANCH   5  10
HETATM   10  C           1     -36.690   0.838 -15.671  0.00  0.00     0.045 C 
BRANCH  10  11
HETATM   11 Se           1     -38.016  -0.559 -15.967  0.00  0.00     0.000 Se
HETATM   12  H           1     -38.445  -0.613 -14.559  0.00  0.00     0.000 HD
ENDBRANCH  10  11
ENDBRANCH   5  10
ENDBRANCH   2   5
BRANCH   3  13
HETATM   13  C           1     -35.460  -0.844 -11.662  0.00  0.00     0.189 C 
BRANCH  13  14
HETATM   14  C           1     -34.531  -1.975 -11.294  0.00  0.00     0.197 C 
HETATM   15  O           1     -34.802  -3.145 -11.644  0.00  0.00    -0.646 OA
HETATM   16  O           1     -33.493  -1.744 -10.638  0.00  0.00    -0.646 OA
ENDBRANCH  13  14
BRANCH  13  17
HETATM   17  C           1     -36.801  -1.040 -10.969  0.00  0.00     0.010 C 
HETATM   18  C           1     -36.662  -0.695  -9.492  0.00  0.00     0.012 C 
HETATM   19  C           1     -37.841  -0.129 -11.608  0.00  0.00     0.012 C 
ENDBRANCH  13  17
ENDBRANCH   3  13
TORSDOF 7
ENDMDL
