MODEL 1
REMARK VINA RESULT:      -5.5      0.000      0.000
REMARK  9 active torsions:
REMARK  status: ('A' for Active; 'I' for Inactive)
REMARK    1  A    between atoms: C_1  and  C_2 
REMARK    2  A    between atoms: C_1  and  S_16 
REMARK    3  A    between atoms: C_2  and  C_3 
REMARK    4  A    between atoms: C_2  and  N_15 
REMARK       I    between atoms: C_3  and  N_18 
REMARK    5  A    between atoms: C_4  and  C_5 
REMARK    6  A    between atoms: C_4  and  C_7 
REMARK    7  A    between atoms: C_4  and  N_18 
REMARK    8  A    between atoms: C_5  and  C_8 
REMARK    9  A    between atoms: C_8  and  Se_9 
ROOT
HETATM    1  C           1     -21.633  -4.602  -7.636  0.00  0.00     0.249 C 
HETATM    2  H           1     -22.282  -5.862  -9.145  0.00  0.00     0.163 HD
HETATM    3  O           1     -21.543  -3.452  -7.276  0.00  0.00    -0.271 OA
HETATM    4  N           1     -22.205  -4.898  -8.844  0.00  0.00    -0.345 N 
ENDROOT
BRANCH   1   5
HETATM    5  C           1     -21.116  -5.712  -6.754  0.00  0.00     0.283 C 
BRANCH   5   6
HETATM    6  C           1     -20.816  -5.159  -5.366  0.00  0.00     0.113 C 
BRANCH   6   7
HETATM    7  S           1     -21.358  -6.351  -4.109  0.00  0.00    -0.180 SA
HETATM    8  H           1     -20.238  -7.096  -4.130  0.00  0.00     0.101 HD
ENDBRANCH   6   7
ENDBRANCH   5   6
BRANCH   5   9
HETATM    9  N           1     -19.861  -6.277  -7.348  0.00  0.00    -0.066 N 
HETATM   10  H           1     -20.002  -6.438  -8.371  0.00  0.00     0.275 HD
HETATM   11  H           1     -19.073  -5.605  -7.205  0.00  0.00     0.275 HD
HETATM   12  H           1     -19.633  -7.185  -6.882  0.00  0.00     0.275 HD
ENDBRANCH   5   9
ENDBRANCH   1   5
BRANCH   4  13
HETATM   13  C           1     -22.703  -3.831  -9.692  0.00  0.00     0.185 C 
BRANCH  13  14
HETATM   14  C           1     -22.190  -4.033 -11.112  0.00  0.00     0.036 C 
BRANCH  14  15
HETATM   15  C           1     -22.346  -2.737 -11.896  0.00  0.00     0.003 C 
BRANCH  15  16
HETATM   16 Se           1     -23.886  -2.877 -13.085  0.00  0.00     0.000 Se
HETATM   17  C           1     -22.847  -2.676 -14.722  0.00  0.00     0.000 C 
ENDBRANCH  15  16
ENDBRANCH  14  15
ENDBRANCH  13  14
BRANCH  13  18
HETATM   18  C           1     -24.212  -3.854  -9.694  0.00  0.00     0.196 C 
HETATM   19  O           1     -24.852  -2.807  -9.455  0.00  0.00    -0.646 OA
HETATM   20  O           1     -24.821  -4.918  -9.933  0.00  0.00    -0.646 OA
ENDBRANCH  13  18
ENDBRANCH   4  13
TORSDOF 9
ENDMDL
MODEL 2
REMARK VINA RESULT:      -5.2     12.257     14.497
REMARK  9 active torsions:
REMARK  status: ('A' for Active; 'I' for Inactive)
REMARK    1  A    between atoms: C_1  and  C_2 
REMARK    2  A    between atoms: C_1  and  S_16 
REMARK    3  A    between atoms: C_2  and  C_3 
REMARK    4  A    between atoms: C_2  and  N_15 
REMARK       I    between atoms: C_3  and  N_18 
REMARK    5  A    between atoms: C_4  and  C_5 
REMARK    6  A    between atoms: C_4  and  C_7 
REMARK    7  A    between atoms: C_4  and  N_18 
REMARK    8  A    between atoms: C_5  and  C_8 
REMARK    9  A    between atoms: C_8  and  Se_9 
ROOT
HETATM    1  C           1     -35.943  -0.809 -13.170  0.00  0.00     0.249 C 
HETATM    2  H           1     -34.120  -1.542 -13.821  0.00  0.00     0.163 HD
HETATM    3  O           1     -36.838  -0.948 -12.369  0.00  0.00    -0.271 OA
HETATM    4  N           1     -34.870  -1.659 -13.151  0.00  0.00    -0.345 N 
ENDROOT
BRANCH   1   5
HETATM    5  C           1     -36.009   0.302 -14.189  0.00  0.00     0.283 C 
BRANCH   5   6
HETATM    6  C           1     -36.966  -0.091 -15.307  0.00  0.00     0.113 C 
BRANCH   6   7
HETATM    7  S           1     -36.043  -0.917 -16.633  0.00  0.00    -0.180 SA
HETATM    8  H           1     -36.145   0.086 -17.522  0.00  0.00     0.101 HD
ENDBRANCH   6   7
ENDBRANCH   5   6
BRANCH   5   9
HETATM    9  N           1     -34.642   0.536 -14.761  0.00  0.00    -0.066 N 
HETATM   10  H           1     -34.082   1.117 -14.097  0.00  0.00     0.275 HD
HETATM   11  H           1     -34.165  -0.383 -14.910  0.00  0.00     0.275 HD
HETATM   12  H           1     -34.727   1.036 -15.675  0.00  0.00     0.275 HD
ENDBRANCH   5   9
ENDBRANCH   1   5
BRANCH   4  13
HETATM   13  C           1     -34.807  -2.726 -12.171  0.00  0.00     0.185 C 
BRANCH  13  14
HETATM   14  C           1     -34.291  -3.995 -12.836  0.00  0.00     0.036 C 
BRANCH  14  15
HETATM   15  C           1     -34.927  -5.210 -12.174  0.00  0.00     0.003 C 
BRANCH  15  16
HETATM   16 Se           1     -33.671  -5.989 -10.902  0.00  0.00     0.000 Se
HETATM   17  C           1     -34.889  -7.390 -10.308  0.00  0.00     0.000 C 
ENDBRANCH  15  16
ENDBRANCH  14  15
ENDBRANCH  13  14
BRANCH  13  18
HETATM   18  C           1     -33.873  -2.328 -11.054  0.00  0.00     0.196 C 
HETATM   19  O           1     -32.678  -2.694 -11.079  0.00  0.00    -0.646 OA
HETATM   20  O           1     -34.293  -1.632 -10.106  0.00  0.00    -0.646 OA
ENDBRANCH  13  18
ENDBRANCH   4  13
TORSDOF 9
ENDMDL
MODEL 3
REMARK VINA RESULT:      -5.2     12.896     15.244
REMARK  9 active torsions:
REMARK  status: ('A' for Active; 'I' for Inactive)
REMARK    1  A    between atoms: C_1  and  C_2 
REMARK    2  A    between atoms: C_1  and  S_16 
REMARK    3  A    between atoms: C_2  and  C_3 
REMARK    4  A    between atoms: C_2  and  N_15 
REMARK       I    between atoms: C_3  and  N_18 
REMARK    5  A    between atoms: C_4  and  C_5 
REMARK    6  A    between atoms: C_4  and  C_7 
REMARK    7  A    between atoms: C_4  and  N_18 
REMARK    8  A    between atoms: C_5  and  C_8 
REMARK    9  A    between atoms: C_8  and  Se_9 
ROOT
HETATM    1  C           1     -36.488  -0.127 -13.414  0.00  0.00     0.249 C 
HETATM    2  H           1     -34.994   0.466 -12.110  0.00  0.00     0.163 HD
HETATM    3  O           1     -37.488  -0.794 -13.538  0.00  0.00    -0.271 OA
HETATM    4  N           1     -35.832  -0.094 -12.214  0.00  0.00    -0.345 N 
ENDROOT
BRANCH   1   5
HETATM    5  C           1     -35.964   0.670 -14.584  0.00  0.00     0.283 C 
BRANCH   5   6
HETATM    6  C           1     -36.652   0.209 -15.863  0.00  0.00     0.113 C 
BRANCH   6   7
HETATM    7  S           1     -35.700  -1.145 -16.608  0.00  0.00    -0.180 SA
HETATM    8  H           1     -36.245  -1.042 -17.833  0.00  0.00     0.101 HD
ENDBRANCH   6   7
ENDBRANCH   5   6
BRANCH   5   9
HETATM    9  N           1     -34.485   0.459 -14.708  0.00  0.00    -0.066 N 
HETATM   10  H           1     -34.129  -0.026 -13.854  0.00  0.00     0.275 HD
HETATM   11  H           1     -34.286  -0.127 -15.551  0.00  0.00     0.275 HD
HETATM   12  H           1     -34.008   1.384 -14.807  0.00  0.00     0.275 HD
ENDBRANCH   5   9
ENDBRANCH   1   5
BRANCH   4  13
HETATM   13  C           1     -36.335  -0.860 -11.090  0.00  0.00     0.185 C 
BRANCH  13  14
HETATM   14  C           1     -35.215  -1.720 -10.521  0.00  0.00     0.036 C 
BRANCH  14  15
HETATM   15  C           1     -35.131  -3.025 -11.301  0.00  0.00     0.003 C 
BRANCH  15  16
HETATM   16 Se           1     -33.262  -3.539 -11.511  0.00  0.00     0.000 Se
HETATM   17  C           1     -33.571  -5.429 -11.153  0.00  0.00     0.000 C 
ENDBRANCH  15  16
ENDBRANCH  14  15
ENDBRANCH  13  14
BRANCH  13  18
HETATM   18  C           1     -36.836   0.084 -10.024  0.00  0.00     0.196 C 
HETATM   19  O           1     -37.802   0.842 -10.264  0.00  0.00    -0.646 OA
HETATM   20  O           1     -36.288   0.108  -8.902  0.00  0.00    -0.646 OA
ENDBRANCH  13  18
ENDBRANCH   4  13
TORSDOF 9
ENDMDL
MODEL 4
REMARK VINA RESULT:      -4.7     14.102     15.760
REMARK  9 active torsions:
REMARK  status: ('A' for Active; 'I' for Inactive)
REMARK    1  A    between atoms: C_1  and  C_2 
REMARK    2  A    between atoms: C_1  and  S_16 
REMARK    3  A    between atoms: C_2  and  C_3 
REMARK    4  A    between atoms: C_2  and  N_15 
REMARK       I    between atoms: C_3  and  N_18 
REMARK    5  A    between atoms: C_4  and  C_5 
REMARK    6  A    between atoms: C_4  and  C_7 
REMARK    7  A    between atoms: C_4  and  N_18 
REMARK    8  A    between atoms: C_5  and  C_8 
REMARK    9  A    between atoms: C_8  and  Se_9 
ROOT
HETATM    1  C           1     -35.322   0.265 -13.706  0.00  0.00     0.249 C 
HETATM    2  H           1     -36.685  -1.257 -13.372  0.00  0.00     0.163 HD
HETATM    3  O           1     -34.598   1.080 -13.183  0.00  0.00    -0.271 OA
HETATM    4  N           1     -36.079  -0.574 -12.933  0.00  0.00    -0.345 N 
ENDROOT
BRANCH   1   5
HETATM    5  C           1     -35.392   0.174 -15.211  0.00  0.00     0.283 C 
BRANCH   5   6
HETATM    6  C           1     -36.733   0.715 -15.692  0.00  0.00     0.113 C 
BRANCH   6   7
HETATM    7  S           1     -37.840  -0.670 -16.080  0.00  0.00    -0.180 SA
HETATM    8  H           1     -37.034  -1.633 -15.600  0.00  0.00     0.101 HD
ENDBRANCH   6   7
ENDBRANCH   5   6
BRANCH   5   9
HETATM    9  N           1     -35.251  -1.258 -15.631  0.00  0.00    -0.066 N 
HETATM   10  H           1     -34.937  -1.831 -14.815  0.00  0.00     0.275 HD
HETATM   11  H           1     -36.173  -1.614 -15.974  0.00  0.00     0.275 HD
HETATM   12  H           1     -34.544  -1.329 -16.398  0.00  0.00     0.275 HD
ENDBRANCH   5   9
ENDBRANCH   1   5
BRANCH   4  13
HETATM   13  C           1     -36.012  -0.487 -11.487  0.00  0.00     0.185 C 
BRANCH  13  14
HETATM   14  C           1     -37.411  -0.263 -10.928  0.00  0.00     0.036 C 
BRANCH  14  15
HETATM   15  C           1     -37.347   0.746  -9.790  0.00  0.00     0.003 C 
BRANCH  15  16
HETATM   16 Se           1     -37.798  -0.138  -8.111  0.00  0.00     0.000 Se
HETATM   17  C           1     -37.148   1.313  -6.983  0.00  0.00     0.000 C 
ENDBRANCH  15  16
ENDBRANCH  14  15
ENDBRANCH  13  14
BRANCH  13  18
HETATM   18  C           1     -35.447  -1.772 -10.933  0.00  0.00     0.196 C 
HETATM   19  O           1     -34.374  -1.757 -10.292  0.00  0.00    -0.646 OA
HETATM   20  O           1     -36.052  -2.850 -11.113  0.00  0.00    -0.646 OA
ENDBRANCH  13  18
ENDBRANCH   4  13
TORSDOF 9
ENDMDL
MODEL 5
REMARK VINA RESULT:      -4.7      1.888      6.600
REMARK  9 active torsions:
REMARK  status: ('A' for Active; 'I' for Inactive)
REMARK    1  A    between atoms: C_1  and  C_2 
REMARK    2  A    between atoms: C_1  and  S_16 
REMARK    3  A    between atoms: C_2  and  C_3 
REMARK    4  A    between atoms: C_2  and  N_15 
REMARK       I    between atoms: C_3  and  N_18 
REMARK    5  A    between atoms: C_4  and  C_5 
REMARK    6  A    between atoms: C_4  and  C_7 
REMARK    7  A    between atoms: C_4  and  N_18 
REMARK    8  A    between atoms: C_5  and  C_8 
REMARK    9  A    between atoms: C_8  and  Se_9 
ROOT
HETATM    1  C           1     -23.172  -4.416  -8.666  0.00  0.00     0.249 C 
HETATM    2  H           1     -21.372  -5.072  -9.450  0.00  0.00     0.163 HD
HETATM    3  O           1     -23.755  -4.094  -7.657  0.00  0.00    -0.271 OA
HETATM    4  N           1     -21.860  -4.802  -8.604  0.00  0.00    -0.345 N 
ENDROOT
BRANCH   1   5
HETATM    5  C           1     -23.891  -4.393  -9.992  0.00  0.00     0.283 C 
BRANCH   5   6
HETATM    6  C           1     -23.141  -3.488 -10.961  0.00  0.00     0.113 C 
BRANCH   6   7
HETATM    7  S           1     -24.188  -3.145 -12.404  0.00  0.00    -0.180 SA
HETATM    8  H           1     -23.258  -3.445 -13.327  0.00  0.00     0.101 HD
ENDBRANCH   6   7
ENDBRANCH   5   6
BRANCH   5   9
HETATM    9  N           1     -25.283  -3.870  -9.796  0.00  0.00    -0.066 N 
HETATM   10  H           1     -25.524  -3.895  -8.779  0.00  0.00     0.275 HD
HETATM   11  H           1     -25.339  -2.886 -10.144  0.00  0.00     0.275 HD
HETATM   12  H           1     -25.958  -4.466 -10.327  0.00  0.00     0.275 HD
ENDBRANCH   5   9
ENDBRANCH   1   5
BRANCH   4  13
HETATM   13  C           1     -21.169  -4.824  -7.330  0.00  0.00     0.185 C 
BRANCH  13  14
HETATM   14  C           1     -21.177  -6.243  -6.774  0.00  0.00     0.036 C 
BRANCH  14  15
HETATM   15  C           1     -22.004  -6.282  -5.496  0.00  0.00     0.003 C 
BRANCH  15  16
HETATM   16 Se           1     -21.056  -7.312  -4.139  0.00  0.00     0.000 Se
HETATM   17  C           1     -21.719  -6.258  -2.640  0.00  0.00     0.000 C 
ENDBRANCH  15  16
ENDBRANCH  14  15
ENDBRANCH  13  14
BRANCH  13  18
HETATM   18  C           1     -19.744  -4.368  -7.524  0.00  0.00     0.196 C 
HETATM   19  O           1     -19.452  -3.621  -8.483  0.00  0.00    -0.646 OA
HETATM   20  O           1     -18.855  -4.736  -6.726  0.00  0.00    -0.646 OA
ENDBRANCH  13  18
ENDBRANCH   4  13
TORSDOF 9
ENDMDL
MODEL 6
REMARK VINA RESULT:      -4.6     11.830     13.495
REMARK  9 active torsions:
REMARK  status: ('A' for Active; 'I' for Inactive)
REMARK    1  A    between atoms: C_1  and  C_2 
REMARK    2  A    between atoms: C_1  and  S_16 
REMARK    3  A    between atoms: C_2  and  C_3 
REMARK    4  A    between atoms: C_2  and  N_15 
REMARK       I    between atoms: C_3  and  N_18 
REMARK    5  A    between atoms: C_4  and  C_5 
REMARK    6  A    between atoms: C_4  and  C_7 
REMARK    7  A    between atoms: C_4  and  N_18 
REMARK    8  A    between atoms: C_5  and  C_8 
REMARK    9  A    between atoms: C_8  and  Se_9 
ROOT
HETATM    1  C           1     -33.953  -4.495 -15.248  0.00  0.00     0.249 C 
HETATM    2  H           1     -32.519  -3.338 -14.305  0.00  0.00     0.163 HD
HETATM    3  O           1     -34.997  -5.089 -15.108  0.00  0.00    -0.271 OA
HETATM    4  N           1     -33.393  -3.836 -14.187  0.00  0.00    -0.345 N 
ENDROOT
BRANCH   1   5
HETATM    5  C           1     -33.269  -4.480 -16.593  0.00  0.00     0.283 C 
BRANCH   5   6
HETATM    6  C           1     -31.764  -4.611 -16.400  0.00  0.00     0.113 C 
BRANCH   6   7
HETATM    7  S           1     -31.178  -6.122 -17.217  0.00  0.00    -0.180 SA
HETATM    8  H           1     -31.477  -5.730 -18.468  0.00  0.00     0.101 HD
ENDBRANCH   6   7
ENDBRANCH   5   6
BRANCH   5   9
HETATM    9  N           1     -33.572  -3.188 -17.292  0.00  0.00    -0.066 N 
HETATM   10  H           1     -32.835  -2.485 -17.060  0.00  0.00     0.275 HD
HETATM   11  H           1     -33.591  -3.346 -18.325  0.00  0.00     0.275 HD
HETATM   12  H           1     -34.504  -2.832 -16.978  0.00  0.00     0.275 HD
ENDBRANCH   5   9
ENDBRANCH   1   5
BRANCH   4  13
HETATM   13  C           1     -34.050  -3.851 -12.894  0.00  0.00     0.185 C 
BRANCH  13  14
HETATM   14  C           1     -33.042  -4.231 -11.818  0.00  0.00     0.036 C 
BRANCH  14  15
HETATM   15  C           1     -33.753  -4.985 -10.702  0.00  0.00     0.003 C 
BRANCH  15  16
HETATM   16 Se           1     -34.858  -6.396 -11.470  0.00  0.00     0.000 Se
HETATM   17  C           1     -34.925  -7.458  -9.838  0.00  0.00     0.000 C 
ENDBRANCH  15  16
ENDBRANCH  14  15
ENDBRANCH  13  14
BRANCH  13  18
HETATM   18  C           1     -34.609  -2.480 -12.600  0.00  0.00     0.196 C 
HETATM   19  O           1     -35.593  -2.055 -13.243  0.00  0.00    -0.646 OA
HETATM   20  O           1     -34.088  -1.770 -11.714  0.00  0.00    -0.646 OA
ENDBRANCH  13  18
ENDBRANCH   4  13
TORSDOF 9
ENDMDL
MODEL 7
REMARK VINA RESULT:      -4.6      9.209     11.538
REMARK  9 active torsions:
REMARK  status: ('A' for Active; 'I' for Inactive)
REMARK    1  A    between atoms: C_1  and  C_2 
REMARK    2  A    between atoms: C_1  and  S_16 
REMARK    3  A    between atoms: C_2  and  C_3 
REMARK    4  A    between atoms: C_2  and  N_15 
REMARK       I    between atoms: C_3  and  N_18 
REMARK    5  A    between atoms: C_4  and  C_5 
REMARK    6  A    between atoms: C_4  and  C_7 
REMARK    7  A    between atoms: C_4  and  N_18 
REMARK    8  A    between atoms: C_5  and  C_8 
REMARK    9  A    between atoms: C_8  and  Se_9 
ROOT
HETATM    1  C           1     -26.526  -6.407 -19.437  0.00  0.00     0.249 C 
HETATM    2  H           1     -25.142  -7.281 -18.171  0.00  0.00     0.163 HD
HETATM    3  O           1     -27.537  -5.747 -19.496  0.00  0.00    -0.271 OA
HETATM    4  N           1     -25.989  -6.728 -18.220  0.00  0.00    -0.345 N 
ENDROOT
BRANCH   1   5
HETATM    5  C           1     -25.856  -6.875 -20.706  0.00  0.00     0.283 C 
BRANCH   5   6
HETATM    6  C           1     -24.681  -7.779 -20.356  0.00  0.00     0.113 C 
BRANCH   6   7
HETATM    7  S           1     -23.736  -8.153 -21.860  0.00  0.00    -0.180 SA
HETATM    8  H           1     -22.600  -7.555 -21.464  0.00  0.00     0.101 HD
ENDBRANCH   6   7
ENDBRANCH   5   6
BRANCH   5   9
HETATM    9  N           1     -25.360  -5.687 -21.475  0.00  0.00    -0.066 N 
HETATM   10  H           1     -24.322  -5.748 -21.581  0.00  0.00     0.275 HD
HETATM   11  H           1     -25.808  -5.671 -22.420  0.00  0.00     0.275 HD
HETATM   12  H           1     -25.605  -4.811 -20.960  0.00  0.00     0.275 HD
ENDBRANCH   5   9
ENDBRANCH   1   5
BRANCH   4  13
HETATM   13  C           1     -26.633  -6.279 -17.000  0.00  0.00     0.185 C 
BRANCH  13  14
HETATM   14  C           1     -27.866  -7.132 -16.734  0.00  0.00     0.036 C 
BRANCH  14  15
HETATM   15  C           1     -28.911  -6.300 -16.003  0.00  0.00     0.003 C 
BRANCH  15  16
HETATM   16 Se           1     -30.530  -6.193 -17.084  0.00  0.00     0.000 Se
HETATM   17  C           1     -30.051  -7.686 -18.242  0.00  0.00     0.000 C 
ENDBRANCH  15  16
ENDBRANCH  14  15
ENDBRANCH  13  14
BRANCH  13  18
HETATM   18  C           1     -25.670  -6.411 -15.846  0.00  0.00     0.196 C 
HETATM   19  O           1     -25.563  -7.501 -15.243  0.00  0.00    -0.646 OA
HETATM   20  O           1     -24.979  -5.432 -15.493  0.00  0.00    -0.646 OA
ENDBRANCH  13  18
ENDBRANCH   4  13
TORSDOF 9
ENDMDL
MODEL 8
REMARK VINA RESULT:      -4.5      3.647      7.680
REMARK  9 active torsions:
REMARK  status: ('A' for Active; 'I' for Inactive)
REMARK    1  A    between atoms: C_1  and  C_2 
REMARK    2  A    between atoms: C_1  and  S_16 
REMARK    3  A    between atoms: C_2  and  C_3 
REMARK    4  A    between atoms: C_2  and  N_15 
REMARK       I    between atoms: C_3  and  N_18 
REMARK    5  A    between atoms: C_4  and  C_5 
REMARK    6  A    between atoms: C_4  and  C_7 
REMARK    7  A    between atoms: C_4  and  N_18 
REMARK    8  A    between atoms: C_5  and  C_8 
REMARK    9  A    between atoms: C_8  and  Se_9 
ROOT
HETATM    1  C           1     -20.961  -5.288  -6.589  0.00  0.00     0.249 C 
HETATM    2  H           1     -21.595  -7.246  -6.812  0.00  0.00     0.163 HD
HETATM    3  O           1     -20.410  -4.503  -5.853  0.00  0.00    -0.271 OA
HETATM    4  N           1     -21.134  -6.587  -6.195  0.00  0.00    -0.345 N 
ENDROOT
BRANCH   1   5
HETATM    5  C           1     -21.455  -4.836  -7.941  0.00  0.00     0.283 C 
BRANCH   5   6
HETATM    6  C           1     -20.268  -4.439  -8.810  0.00  0.00     0.113 C 
BRANCH   6   7
HETATM    7  S           1     -20.836  -4.124 -10.504  0.00  0.00    -0.180 SA
HETATM    8  H           1     -20.503  -2.822 -10.524  0.00  0.00     0.101 HD
ENDBRANCH   6   7
ENDBRANCH   5   6
BRANCH   5   9
HETATM    9  N           1     -22.365  -3.656  -7.770  0.00  0.00    -0.066 N 
HETATM   10  H           1     -21.836  -2.868  -7.331  0.00  0.00     0.275 HD
HETATM   11  H           1     -22.727  -3.356  -8.704  0.00  0.00     0.275 HD
HETATM   12  H           1     -23.167  -3.921  -7.154  0.00  0.00     0.275 HD
ENDBRANCH   5   9
ENDBRANCH   1   5
BRANCH   4  13
HETATM   13  C           1     -20.659  -7.022  -4.896  0.00  0.00     0.185 C 
BRANCH  13  14
HETATM   14  C           1     -21.824  -7.052  -3.915  0.00  0.00     0.036 C 
BRANCH  14  15
HETATM   15  C           1     -21.518  -6.137  -2.737  0.00  0.00     0.003 C 
BRANCH  15  16
HETATM   16 Se           1     -22.262  -6.905  -1.106  0.00  0.00     0.000 Se
HETATM   17  C           1     -20.900  -8.290  -0.943  0.00  0.00     0.000 C 
ENDBRANCH  15  16
ENDBRANCH  14  15
ENDBRANCH  13  14
BRANCH  13  18
HETATM   18  C           1     -20.066  -8.404  -5.015  0.00  0.00     0.196 C 
HETATM   19  O           1     -20.499  -9.335  -4.301  0.00  0.00    -0.646 OA
HETATM   20  O           1     -19.141  -8.620  -5.827  0.00  0.00    -0.646 OA
ENDBRANCH  13  18
ENDBRANCH   4  13
TORSDOF 9
ENDMDL
MODEL 9
REMARK VINA RESULT:      -4.5      3.311      4.634
REMARK  9 active torsions:
REMARK  status: ('A' for Active; 'I' for Inactive)
REMARK    1  A    between atoms: C_1  and  C_2 
REMARK    2  A    between atoms: C_1  and  S_16 
REMARK    3  A    between atoms: C_2  and  C_3 
REMARK    4  A    between atoms: C_2  and  N_15 
REMARK       I    between atoms: C_3  and  N_18 
REMARK    5  A    between atoms: C_4  and  C_5 
REMARK    6  A    between atoms: C_4  and  C_7 
REMARK    7  A    between atoms: C_4  and  N_18 
REMARK    8  A    between atoms: C_5  and  C_8 
REMARK    9  A    between atoms: C_8  and  Se_9 
ROOT
HETATM    1  C           1     -21.257  -6.667  -4.257  0.00  0.00     0.249 C 
HETATM    2  H           1     -21.451  -4.630  -4.566  0.00  0.00     0.163 HD
HETATM    3  O           1     -21.169  -7.747  -4.793  0.00  0.00    -0.271 OA
HETATM    4  N           1     -21.377  -5.534  -5.015  0.00  0.00    -0.345 N 
ENDROOT
BRANCH   1   5
HETATM    5  C           1     -21.234  -6.569  -2.751  0.00  0.00     0.283 C 
BRANCH   5   6
HETATM    6  C           1     -21.109  -7.965  -2.153  0.00  0.00     0.113 C 
BRANCH   6   7
HETATM    7  S           1     -21.964  -8.017  -0.553  0.00  0.00    -0.180 SA
HETATM    8  H           1     -21.064  -7.272   0.112  0.00  0.00     0.101 HD
ENDBRANCH   6   7
ENDBRANCH   5   6
BRANCH   5   9
HETATM    9  N           1     -22.505  -5.933  -2.273  0.00  0.00    -0.066 N 
HETATM   10  H           1     -23.140  -6.669  -1.887  0.00  0.00     0.275 HD
HETATM   11  H           1     -22.287  -5.234  -1.527  0.00  0.00     0.275 HD
HETATM   12  H           1     -22.977  -5.452  -3.073  0.00  0.00     0.275 HD
ENDBRANCH   5   9
ENDBRANCH   1   5
BRANCH   4  13
HETATM   13  C           1     -21.399  -5.628  -6.462  0.00  0.00     0.185 C 
BRANCH  13  14
HETATM   14  C           1     -22.204  -4.468  -7.033  0.00  0.00     0.036 C 
BRANCH  14  15
HETATM   15  C           1     -22.146  -4.511  -8.554  0.00  0.00     0.003 C 
BRANCH  15  16
HETATM   16 Se           1     -23.881  -4.002  -9.285  0.00  0.00     0.000 Se
HETATM   17  C           1     -23.160  -3.341 -10.971  0.00  0.00     0.000 C 
ENDBRANCH  15  16
ENDBRANCH  14  15
ENDBRANCH  13  14
BRANCH  13  18
HETATM   18  C           1     -19.987  -5.570  -6.990  0.00  0.00     0.196 C 
HETATM   19  O           1     -19.327  -4.512  -6.894  0.00  0.00    -0.646 OA
HETATM   20  O           1     -19.476  -6.577  -7.524  0.00  0.00    -0.646 OA
ENDBRANCH  13  18
ENDBRANCH   4  13
TORSDOF 9
ENDMDL
