MODEL 1
REMARK VINA RESULT:      -8.2      0.000      0.000
REMARK  15 active torsions:
REMARK  status: ('A' for Active; 'I' for Inactive)
REMARK       I    between atoms: C_1  and  N_12 
REMARK    1  A    between atoms: C_1  and  C_6 
REMARK    2  A    between atoms: C_4  and  C_5 
REMARK    3  A    between atoms: C_5  and  C_13 
REMARK    4  A    between atoms: C_6  and  C_17 
REMARK    5  A    between atoms: C_6  and  N_19 
REMARK    6  A    between atoms: C_7  and  C_29 
REMARK    7  A    between atoms: C_7  and  C_8 
REMARK    8  A    between atoms: C_7  and  N_12 
REMARK    9  A    between atoms: C_13  and  C_33 
REMARK   10  A    between atoms: C_13  and  N_31 
REMARK   11  A    between atoms: C_17  and  C_25 
REMARK       I    between atoms: N_20  and  C_22 
REMARK       I    between atoms: N_21  and  C_22 
REMARK   12  A    between atoms: N_23  and  C_24 
REMARK   13  A    between atoms: C_24  and  C_25 
REMARK   14  A    between atoms: C_29  and  C_30 
REMARK   15  A    between atoms: C_30  and  N_31 
ROOT
HETATM    1  C           1     -22.503  -4.122  -8.134  0.00  0.00     0.249 C 
HETATM    2  N           1     -22.130  -5.036  -7.185  0.00  0.00    -0.345 N 
HETATM    3  O           1     -21.848  -3.120  -8.298  0.00  0.00    -0.271 OA
HETATM    4  H           1     -22.679  -5.875  -7.048  0.00  0.00     0.163 HD
ENDROOT
BRANCH   2   5
HETATM    5  C           1     -20.951  -4.801  -6.376  0.00  0.00     0.187 C 
BRANCH   5   6
HETATM    6  C           1     -21.060  -5.593  -5.080  0.00  0.00     0.066 C 
BRANCH   6   7
HETATM    7  C           1     -22.052  -6.735  -5.264  0.00  0.00     0.273 C 
BRANCH   7   8
HETATM    8  N           1     -21.340  -7.944  -5.578  0.00  0.00     0.098 N 
HETATM    9  H           1     -20.626  -7.746  -6.280  0.00  0.00     0.317 HD
BRANCH   8  10
HETATM   10  C           1     -20.709  -8.406  -4.370  0.00  0.00     0.324 C 
BRANCH  10  11
HETATM   11  C           1     -21.564  -9.495  -3.736  0.00  0.00     0.085 C 
BRANCH  11  12
HETATM   12  C           1     -21.883  -9.119  -2.322  0.00  0.00    -0.056 A 
HETATM   13  C           1     -22.433 -10.064  -1.455  0.00  0.00     0.007 A 
HETATM   14  C           1     -22.730  -9.712  -0.138  0.00  0.00     0.001 A 
HETATM   15  C           1     -22.476  -8.416   0.312  0.00  0.00     0.000 A 
HETATM   16  C           1     -21.927  -7.472  -0.555  0.00  0.00     0.001 A 
HETATM   17  C           1     -21.629  -7.824  -1.871  0.00  0.00     0.007 A 
ENDBRANCH  11  12
ENDBRANCH  10  11
BRANCH  10  18
HETATM   18  C           1     -19.346  -8.963  -4.698  0.00  0.00     0.207 C 
HETATM   19  O           1     -18.458  -9.002  -3.820  0.00  0.00    -0.646 OA
HETATM   20  O           1     -19.105  -9.387  -5.849  0.00  0.00    -0.646 OA
ENDBRANCH  10  18
ENDBRANCH   8  10
ENDBRANCH   7   8
ENDBRANCH   6   7
ENDBRANCH   5   6
BRANCH   5  21
HETATM   21  C           1     -19.725  -5.245  -7.136  0.00  0.00     0.196 C 
HETATM   22  O           1     -18.812  -4.428  -7.382  0.00  0.00    -0.646 OA
HETATM   23  O           1     -19.622  -6.431  -7.520  0.00  0.00    -0.646 OA
ENDBRANCH   5  21
ENDBRANCH   2   5
BRANCH   1  24
HETATM   24  C           1     -23.731  -4.366  -8.976  0.00  0.00     0.274 C 
BRANCH  24  25
HETATM   25  C           1     -23.314  -4.674 -10.408  0.00  0.00     0.044 C 
BRANCH  25  26
HETATM   26  C           1     -23.975  -3.681 -11.355  0.00  0.00     0.023 C 
BRANCH  26  27
HETATM   27  C           1     -22.906  -2.990 -12.192  0.00  0.00     0.138 C 
BRANCH  27  28
HETATM   28  N           1     -23.544  -2.040 -13.116  0.00  0.00    -0.227 N 
HETATM   29  C           1     -23.292  -2.097 -14.355  0.00  0.00     0.665 C 
HETATM   30  N           1     -22.471  -2.994 -14.812  0.00  0.00    -0.235 N 
HETATM   31  N           1     -23.842  -1.279 -15.150  0.00  0.00    -0.235 N 
HETATM   32  H           1     -22.262  -3.040 -15.835  0.00  0.00     0.174 HD
HETATM   33  H           1     -22.017  -3.669 -14.156  0.00  0.00     0.174 HD
HETATM   34  H           1     -23.633  -1.325 -16.178  0.00  0.00     0.174 HD
HETATM   35  H           1     -24.506  -0.553 -14.782  0.00  0.00     0.174 HD
HETATM   36  H           1     -24.209  -1.316 -12.747  0.00  0.00     0.177 HD
ENDBRANCH  27  28
ENDBRANCH  26  27
ENDBRANCH  25  26
ENDBRANCH  24  25
BRANCH  24  37
HETATM   37  N           1     -24.598  -3.142  -8.962  0.00  0.00    -0.067 N 
HETATM   38  H           1     -24.306  -2.518  -8.176  0.00  0.00     0.275 HD
HETATM   39  H           1     -25.596  -3.422  -8.831  0.00  0.00     0.275 HD
HETATM   40  H           1     -24.495  -2.631  -9.868  0.00  0.00     0.275 HD
ENDBRANCH  24  37
ENDBRANCH   1  24
TORSDOF 15
ENDMDL
MODEL 2
REMARK VINA RESULT:      -8.0      2.563      4.697
REMARK  15 active torsions:
REMARK  status: ('A' for Active; 'I' for Inactive)
REMARK       I    between atoms: C_1  and  N_12 
REMARK    1  A    between atoms: C_1  and  C_6 
REMARK    2  A    between atoms: C_4  and  C_5 
REMARK    3  A    between atoms: C_5  and  C_13 
REMARK    4  A    between atoms: C_6  and  C_17 
REMARK    5  A    between atoms: C_6  and  N_19 
REMARK    6  A    between atoms: C_7  and  C_29 
REMARK    7  A    between atoms: C_7  and  C_8 
REMARK    8  A    between atoms: C_7  and  N_12 
REMARK    9  A    between atoms: C_13  and  C_33 
REMARK   10  A    between atoms: C_13  and  N_31 
REMARK   11  A    between atoms: C_17  and  C_25 
REMARK       I    between atoms: N_20  and  C_22 
REMARK       I    between atoms: N_21  and  C_22 
REMARK   12  A    between atoms: N_23  and  C_24 
REMARK   13  A    between atoms: C_24  and  C_25 
REMARK   14  A    between atoms: C_29  and  C_30 
REMARK   15  A    between atoms: C_30  and  N_31 
ROOT
HETATM    1  C           1     -20.896  -7.320  -5.783  0.00  0.00     0.249 C 
HETATM    2  N           1     -21.474  -8.417  -5.204  0.00  0.00    -0.345 N 
HETATM    3  O           1     -19.703  -7.294  -5.971  0.00  0.00    -0.271 OA
HETATM    4  H           1     -22.474  -8.438  -5.046  0.00  0.00     0.163 HD
ENDROOT
BRANCH   2   5
HETATM    5  C           1     -20.655  -9.548  -4.815  0.00  0.00     0.187 C 
BRANCH   5   6
HETATM    6  C           1     -20.779  -9.771  -3.314  0.00  0.00     0.066 C 
BRANCH   6   7
HETATM    7  C           1     -19.499  -9.315  -2.625  0.00  0.00     0.273 C 
BRANCH   7   8
HETATM    8  N           1     -19.785  -8.189  -1.777  0.00  0.00     0.098 N 
HETATM    9  H           1     -19.580  -7.325  -2.279  0.00  0.00     0.317 HD
BRANCH   8  10
HETATM   10  C           1     -21.185  -8.233  -1.451  0.00  0.00     0.324 C 
BRANCH  10  11
HETATM   11  C           1     -21.351  -8.579   0.024  0.00  0.00     0.085 C 
BRANCH  11  12
HETATM   12  C           1     -22.044  -9.900   0.151  0.00  0.00    -0.056 A 
HETATM   13  C           1     -23.394 -10.015  -0.184  0.00  0.00     0.007 A 
HETATM   14  C           1     -24.039 -11.246  -0.064  0.00  0.00     0.001 A 
HETATM   15  C           1     -23.335 -12.361   0.389  0.00  0.00     0.000 A 
HETATM   16  C           1     -21.987 -12.246   0.724  0.00  0.00     0.001 A 
HETATM   17  C           1     -21.341 -11.016   0.604  0.00  0.00     0.007 A 
ENDBRANCH  11  12
ENDBRANCH  10  11
BRANCH  10  18
HETATM   18  C           1     -21.806  -6.886  -1.724  0.00  0.00     0.207 C 
HETATM   19  O           1     -22.758  -6.482  -1.023  0.00  0.00    -0.646 OA
HETATM   20  O           1     -21.367  -6.173  -2.653  0.00  0.00    -0.646 OA
ENDBRANCH  10  18
ENDBRANCH   8  10
ENDBRANCH   7   8
ENDBRANCH   6   7
ENDBRANCH   5   6
BRANCH   5  21
HETATM   21  C           1     -21.123 -10.781  -5.548  0.00  0.00     0.196 C 
HETATM   22  O           1     -21.974 -11.533  -5.027  0.00  0.00    -0.646 OA
HETATM   23  O           1     -20.658 -11.052  -6.677  0.00  0.00    -0.646 OA
ENDBRANCH   5  21
ENDBRANCH   2   5
BRANCH   1  24
HETATM   24  C           1     -21.748  -6.141  -6.187  0.00  0.00     0.274 C 
BRANCH  24  25
HETATM   25  C           1     -20.890  -4.885  -6.235  0.00  0.00     0.044 C 
BRANCH  25  26
HETATM   26  C           1     -21.550  -3.852  -7.140  0.00  0.00     0.023 C 
BRANCH  26  27
HETATM   27  C           1     -22.305  -4.564  -8.255  0.00  0.00     0.138 C 
BRANCH  27  28
HETATM   28  N           1     -23.640  -3.966  -8.403  0.00  0.00    -0.227 N 
HETATM   29  C           1     -24.266  -4.078  -9.498  0.00  0.00     0.665 C 
HETATM   30  N           1     -23.728  -4.721 -10.492  0.00  0.00    -0.235 N 
HETATM   31  N           1     -25.415  -3.564  -9.625  0.00  0.00    -0.235 N 
HETATM   32  H           1     -24.244  -4.813 -11.396  0.00  0.00     0.174 HD
HETATM   33  H           1     -22.778  -5.145 -10.387  0.00  0.00     0.174 HD
HETATM   34  H           1     -25.934  -3.656 -10.533  0.00  0.00     0.174 HD
HETATM   35  H           1     -25.851  -3.045  -8.822  0.00  0.00     0.174 HD
HETATM   36  H           1     -24.075  -3.448  -7.600  0.00  0.00     0.177 HD
ENDBRANCH  27  28
ENDBRANCH  26  27
ENDBRANCH  25  26
ENDBRANCH  24  25
BRANCH  24  37
HETATM   37  N           1     -22.851  -5.956  -5.187  0.00  0.00    -0.067 N 
HETATM   38  H           1     -22.996  -6.847  -4.661  0.00  0.00     0.275 HD
HETATM   39  H           1     -23.733  -5.698  -5.684  0.00  0.00     0.275 HD
HETATM   40  H           1     -22.591  -5.195  -4.520  0.00  0.00     0.275 HD
ENDBRANCH  24  37
ENDBRANCH   1  24
TORSDOF 15
ENDMDL
MODEL 3
REMARK VINA RESULT:      -7.7      2.410      3.574
REMARK  15 active torsions:
REMARK  status: ('A' for Active; 'I' for Inactive)
REMARK       I    between atoms: C_1  and  N_12 
REMARK    1  A    between atoms: C_1  and  C_6 
REMARK    2  A    between atoms: C_4  and  C_5 
REMARK    3  A    between atoms: C_5  and  C_13 
REMARK    4  A    between atoms: C_6  and  C_17 
REMARK    5  A    between atoms: C_6  and  N_19 
REMARK    6  A    between atoms: C_7  and  C_29 
REMARK    7  A    between atoms: C_7  and  C_8 
REMARK    8  A    between atoms: C_7  and  N_12 
REMARK    9  A    between atoms: C_13  and  C_33 
REMARK   10  A    between atoms: C_13  and  N_31 
REMARK   11  A    between atoms: C_17  and  C_25 
REMARK       I    between atoms: N_20  and  C_22 
REMARK       I    between atoms: N_21  and  C_22 
REMARK   12  A    between atoms: N_23  and  C_24 
REMARK   13  A    between atoms: C_24  and  C_25 
REMARK   14  A    between atoms: C_29  and  C_30 
REMARK   15  A    between atoms: C_30  and  N_31 
ROOT
HETATM    1  C           1     -21.034  -5.272  -6.736  0.00  0.00     0.249 C 
HETATM    2  N           1     -21.099  -6.586  -6.359  0.00  0.00    -0.345 N 
HETATM    3  O           1     -20.570  -4.449  -5.984  0.00  0.00    -0.271 OA
HETATM    4  H           1     -21.488  -7.275  -6.989  0.00  0.00     0.163 HD
ENDROOT
BRANCH   2   5
HETATM    5  C           1     -20.609  -6.991  -5.056  0.00  0.00     0.187 C 
BRANCH   5   6
HETATM    6  C           1     -21.790  -7.308  -4.147  0.00  0.00     0.066 C 
BRANCH   6   7
HETATM    7  C           1     -21.626  -6.569  -2.825  0.00  0.00     0.273 C 
BRANCH   7   8
HETATM    8  N           1     -20.844  -7.369  -1.921  0.00  0.00     0.098 N 
HETATM    9  H           1     -20.455  -6.775  -1.189  0.00  0.00     0.317 HD
BRANCH   8  10
HETATM   10  C           1     -21.721  -8.345  -1.331  0.00  0.00     0.324 C 
BRANCH  10  11
HETATM   11  C           1     -20.966  -9.654  -1.138  0.00  0.00     0.085 C 
BRANCH  11  12
HETATM   12  C           1     -21.921 -10.719  -0.696  0.00  0.00    -0.056 A 
HETATM   13  C           1     -23.116 -10.916  -1.387  0.00  0.00     0.007 A 
HETATM   14  C           1     -24.005 -11.908  -0.974  0.00  0.00     0.001 A 
HETATM   15  C           1     -23.698 -12.704   0.129  0.00  0.00     0.000 A 
HETATM   16  C           1     -22.503 -12.507   0.820  0.00  0.00     0.001 A 
HETATM   17  C           1     -21.614 -11.516   0.407  0.00  0.00     0.007 A 
ENDBRANCH  11  12
ENDBRANCH  10  11
BRANCH  10  18
HETATM   18  C           1     -22.204  -7.840   0.006  0.00  0.00     0.207 C 
HETATM   19  O           1     -21.438  -7.852   0.993  0.00  0.00    -0.646 OA
HETATM   20  O           1     -23.372  -7.411   0.127  0.00  0.00    -0.646 OA
ENDBRANCH  10  18
ENDBRANCH   8  10
ENDBRANCH   7   8
ENDBRANCH   6   7
ENDBRANCH   5   6
BRANCH   5  21
HETATM   21  C           1     -19.744  -8.218  -5.204  0.00  0.00     0.196 C 
HETATM   22  O           1     -19.817  -9.139  -4.362  0.00  0.00    -0.646 OA
HETATM   23  O           1     -18.953  -8.314  -6.167  0.00  0.00    -0.646 OA
ENDBRANCH   5  21
ENDBRANCH   2   5
BRANCH   1  24
HETATM   24  C           1     -21.544  -4.850  -8.093  0.00  0.00     0.274 C 
BRANCH  24  25
HETATM   25  C           1     -20.392  -4.297  -8.920  0.00  0.00     0.044 C 
BRANCH  25  26
HETATM   26  C           1     -20.639  -4.589 -10.395  0.00  0.00     0.023 C 
BRANCH  26  27
HETATM   27  C           1     -20.749  -3.278 -11.161  0.00  0.00     0.138 C 
BRANCH  27  28
HETATM   28  N           1     -22.163  -2.885 -11.261  0.00  0.00    -0.227 N 
HETATM   29  C           1     -22.755  -2.932 -12.379  0.00  0.00     0.665 C 
HETATM   30  N           1     -22.114  -3.328 -13.438  0.00  0.00    -0.235 N 
HETATM   31  N           1     -23.972  -2.595 -12.465  0.00  0.00    -0.235 N 
HETATM   32  H           1     -22.602  -3.367 -14.361  0.00  0.00     0.174 HD
HETATM   33  H           1     -21.109  -3.607 -13.367  0.00  0.00     0.174 HD
HETATM   34  H           1     -24.463  -2.634 -13.392  0.00  0.00     0.174 HD
HETATM   35  H           1     -24.491  -2.275 -11.609  0.00  0.00     0.174 HD
HETATM   36  H           1     -22.681  -2.566 -10.405  0.00  0.00     0.177 HD
ENDBRANCH  27  28
ENDBRANCH  26  27
ENDBRANCH  25  26
ENDBRANCH  24  25
BRANCH  24  37
HETATM   37  N           1     -22.592  -3.790  -7.925  0.00  0.00    -0.067 N 
HETATM   38  H           1     -23.213  -3.778  -8.766  0.00  0.00     0.275 HD
HETATM   39  H           1     -22.132  -2.858  -7.819  0.00  0.00     0.275 HD
HETATM   40  H           1     -23.162  -3.996  -7.074  0.00  0.00     0.275 HD
ENDBRANCH  24  37
ENDBRANCH   1  24
TORSDOF 15
ENDMDL
MODEL 4
REMARK VINA RESULT:      -7.4      1.760      2.212
REMARK  15 active torsions:
REMARK  status: ('A' for Active; 'I' for Inactive)
REMARK       I    between atoms: C_1  and  N_12 
REMARK    1  A    between atoms: C_1  and  C_6 
REMARK    2  A    between atoms: C_4  and  C_5 
REMARK    3  A    between atoms: C_5  and  C_13 
REMARK    4  A    between atoms: C_6  and  C_17 
REMARK    5  A    between atoms: C_6  and  N_19 
REMARK    6  A    between atoms: C_7  and  C_29 
REMARK    7  A    between atoms: C_7  and  C_8 
REMARK    8  A    between atoms: C_7  and  N_12 
REMARK    9  A    between atoms: C_13  and  C_33 
REMARK   10  A    between atoms: C_13  and  N_31 
REMARK   11  A    between atoms: C_17  and  C_25 
REMARK       I    between atoms: N_20  and  C_22 
REMARK       I    between atoms: N_21  and  C_22 
REMARK   12  A    between atoms: N_23  and  C_24 
REMARK   13  A    between atoms: C_24  and  C_25 
REMARK   14  A    between atoms: C_29  and  C_30 
REMARK   15  A    between atoms: C_30  and  N_31 
ROOT
HETATM    1  C           1     -23.203  -4.378  -8.930  0.00  0.00     0.249 C 
HETATM    2  N           1     -22.130  -5.214  -8.771  0.00  0.00    -0.345 N 
HETATM    3  O           1     -23.344  -3.431  -8.195  0.00  0.00    -0.271 OA
HETATM    4  H           1     -22.011  -6.008  -9.388  0.00  0.00     0.163 HD
ENDROOT
BRANCH   2   5
HETATM    5  C           1     -21.163  -4.961  -7.721  0.00  0.00     0.187 C 
BRANCH   5   6
HETATM    6  C           1     -20.839  -6.266  -7.006  0.00  0.00     0.066 C 
BRANCH   6   7
HETATM    7  C           1     -21.092  -6.104  -5.512  0.00  0.00     0.273 C 
BRANCH   7   8
HETATM    8  N           1     -20.417  -7.151  -4.795  0.00  0.00     0.098 N 
HETATM    9  H           1     -19.589  -6.771  -4.336  0.00  0.00     0.317 HD
BRANCH   8  10
HETATM   10  C           1     -21.326  -7.656  -3.801  0.00  0.00     0.324 C 
BRANCH  10  11
HETATM   11  C           1     -20.636  -8.743  -2.987  0.00  0.00     0.085 C 
BRANCH  11  12
HETATM   12  C           1     -21.666  -9.555  -2.264  0.00  0.00    -0.056 A 
HETATM   13  C           1     -22.319 -10.599  -2.920  0.00  0.00     0.007 A 
HETATM   14  C           1     -23.278 -11.353  -2.245  0.00  0.00     0.001 A 
HETATM   15  C           1     -23.584 -11.065  -0.915  0.00  0.00     0.000 A 
HETATM   16  C           1     -22.932 -10.022  -0.261  0.00  0.00     0.001 A 
HETATM   17  C           1     -21.972  -9.267  -0.934  0.00  0.00     0.007 A 
ENDBRANCH  11  12
ENDBRANCH  10  11
BRANCH  10  18
HETATM   18  C           1     -21.743  -6.531  -2.886  0.00  0.00     0.207 C 
HETATM   19  O           1     -22.910  -6.086  -2.932  0.00  0.00    -0.646 OA
HETATM   20  O           1     -20.920  -6.043  -2.082  0.00  0.00    -0.646 OA
ENDBRANCH  10  18
ENDBRANCH   8  10
ENDBRANCH   7   8
ENDBRANCH   6   7
ENDBRANCH   5   6
BRANCH   5  21
HETATM   21  C           1     -19.903  -4.391  -8.325  0.00  0.00     0.196 C 
HETATM   22  O           1     -19.915  -3.946  -9.493  0.00  0.00    -0.646 OA
HETATM   23  O           1     -18.846  -4.364  -7.657  0.00  0.00    -0.646 OA
ENDBRANCH   5  21
ENDBRANCH   2   5
BRANCH   1  24
HETATM   24  C           1     -24.209  -4.641 -10.023  0.00  0.00     0.274 C 
BRANCH  24  25
HETATM   25  C           1     -23.522  -4.556 -11.379  0.00  0.00     0.044 C 
BRANCH  25  26
HETATM   26  C           1     -23.186  -3.103 -11.689  0.00  0.00     0.023 C 
BRANCH  26  27
HETATM   27  C           1     -23.091  -2.914 -13.197  0.00  0.00     0.138 C 
BRANCH  27  28
HETATM   28  N           1     -23.934  -1.780 -13.604  0.00  0.00    -0.227 N 
HETATM   29  C           1     -23.768  -1.244 -14.739  0.00  0.00     0.665 C 
HETATM   30  N           1     -22.853  -1.694 -15.544  0.00  0.00    -0.235 N 
HETATM   31  N           1     -24.495  -0.269 -15.089  0.00  0.00    -0.235 N 
HETATM   32  H           1     -22.715  -1.251 -16.480  0.00  0.00     0.174 HD
HETATM   33  H           1     -22.253  -2.500 -15.254  0.00  0.00     0.174 HD
HETATM   34  H           1     -24.358   0.177 -16.030  0.00  0.00     0.174 HD
HETATM   35  H           1     -25.235   0.096 -14.439  0.00  0.00     0.174 HD
HETATM   36  H           1     -24.674  -1.417 -12.954  0.00  0.00     0.177 HD
ENDBRANCH  27  28
ENDBRANCH  26  27
ENDBRANCH  25  26
ENDBRANCH  24  25
BRANCH  24  37
HETATM   37  N           1     -25.303  -3.617  -9.953  0.00  0.00    -0.067 N 
HETATM   38  H           1     -26.210  -4.090  -9.741  0.00  0.00     0.275 HD
HETATM   39  H           1     -25.375  -3.119 -10.869  0.00  0.00     0.275 HD
HETATM   40  H           1     -25.085  -2.928  -9.198  0.00  0.00     0.275 HD
ENDBRANCH  24  37
ENDBRANCH   1  24
TORSDOF 15
ENDMDL
MODEL 5
REMARK VINA RESULT:      -7.1      2.760      4.993
REMARK  15 active torsions:
REMARK  status: ('A' for Active; 'I' for Inactive)
REMARK       I    between atoms: C_1  and  N_12 
REMARK    1  A    between atoms: C_1  and  C_6 
REMARK    2  A    between atoms: C_4  and  C_5 
REMARK    3  A    between atoms: C_5  and  C_13 
REMARK    4  A    between atoms: C_6  and  C_17 
REMARK    5  A    between atoms: C_6  and  N_19 
REMARK    6  A    between atoms: C_7  and  C_29 
REMARK    7  A    between atoms: C_7  and  C_8 
REMARK    8  A    between atoms: C_7  and  N_12 
REMARK    9  A    between atoms: C_13  and  C_33 
REMARK   10  A    between atoms: C_13  and  N_31 
REMARK   11  A    between atoms: C_17  and  C_25 
REMARK       I    between atoms: N_20  and  C_22 
REMARK       I    between atoms: N_21  and  C_22 
REMARK   12  A    between atoms: N_23  and  C_24 
REMARK   13  A    between atoms: C_24  and  C_25 
REMARK   14  A    between atoms: C_29  and  C_30 
REMARK   15  A    between atoms: C_30  and  N_31 
ROOT
HETATM    1  C           1     -20.750  -7.894  -5.451  0.00  0.00     0.249 C 
HETATM    2  N           1     -21.457  -8.991  -5.039  0.00  0.00    -0.345 N 
HETATM    3  O           1     -19.556  -7.971  -5.614  0.00  0.00    -0.271 OA
HETATM    4  H           1     -22.458  -8.926  -4.902  0.00  0.00     0.163 HD
ENDROOT
BRANCH   2   5
HETATM    5  C           1     -20.774 -10.247  -4.800  0.00  0.00     0.187 C 
BRANCH   5   6
HETATM    6  C           1     -21.500 -11.019  -3.706  0.00  0.00     0.066 C 
BRANCH   6   7
HETATM    7  C           1     -20.640 -12.194  -3.257  0.00  0.00     0.273 C 
BRANCH   7   8
HETATM    8  N           1     -20.650 -12.275  -1.822  0.00  0.00     0.098 N 
HETATM    9  H           1     -20.243 -13.164  -1.528  0.00  0.00     0.317 HD
BRANCH   8  10
HETATM   10  C           1     -19.848 -11.192  -1.318  0.00  0.00     0.324 C 
BRANCH  10  11
HETATM   11  C           1     -20.501 -10.619  -0.066  0.00  0.00     0.085 C 
BRANCH  11  12
HETATM   12  C           1     -21.138  -9.305  -0.393  0.00  0.00    -0.056 A 
HETATM   13  C           1     -20.612  -8.507  -1.410  0.00  0.00     0.007 A 
HETATM   14  C           1     -21.207  -7.282  -1.714  0.00  0.00     0.001 A 
HETATM   15  C           1     -22.328  -6.856  -1.002  0.00  0.00     0.000 A 
HETATM   16  C           1     -22.854  -7.653   0.014  0.00  0.00     0.001 A 
HETATM   17  C           1     -22.260  -8.877   0.318  0.00  0.00     0.007 A 
ENDBRANCH  11  12
ENDBRANCH  10  11
BRANCH  10  18
HETATM   18  C           1     -18.471 -11.704  -0.977  0.00  0.00     0.207 C 
HETATM   19  O           1     -18.303 -12.427   0.028  0.00  0.00    -0.646 OA
HETATM   20  O           1     -17.497 -11.405  -1.701  0.00  0.00    -0.646 OA
ENDBRANCH  10  18
ENDBRANCH   8  10
ENDBRANCH   7   8
ENDBRANCH   6   7
ENDBRANCH   5   6
BRANCH   5  21
HETATM   21  C           1     -20.763 -11.063  -6.069  0.00  0.00     0.196 C 
HETATM   22  O           1     -19.691 -11.247  -6.685  0.00  0.00    -0.646 OA
HETATM   23  O           1     -21.826 -11.554  -6.507  0.00  0.00    -0.646 OA
ENDBRANCH   5  21
ENDBRANCH   2   5
BRANCH   1  24
HETATM   24  C           1     -21.461  -6.586  -5.700  0.00  0.00     0.274 C 
BRANCH  24  25
HETATM   25  C           1     -20.478  -5.434  -5.548  0.00  0.00     0.044 C 
BRANCH  25  26
HETATM   26  C           1     -20.831  -4.331  -6.537  0.00  0.00     0.023 C 
BRANCH  26  27
HETATM   27  C           1     -21.709  -4.902  -7.642  0.00  0.00     0.138 C 
BRANCH  27  28
HETATM   28  N           1     -22.903  -4.058  -7.806  0.00  0.00    -0.227 N 
HETATM   29  C           1     -23.481  -3.991  -8.930  0.00  0.00     0.665 C 
HETATM   30  N           1     -23.020  -4.667  -9.940  0.00  0.00    -0.235 N 
HETATM   31  N           1     -24.508  -3.265  -9.070  0.00  0.00    -0.235 N 
HETATM   32  H           1     -23.497  -4.611 -10.868  0.00  0.00     0.174 HD
HETATM   33  H           1     -22.171  -5.267  -9.824  0.00  0.00     0.174 HD
HETATM   34  H           1     -24.987  -3.208 -10.002  0.00  0.00     0.174 HD
HETATM   35  H           1     -24.881  -2.718  -8.255  0.00  0.00     0.174 HD
HETATM   36  H           1     -23.275  -3.512  -6.989  0.00  0.00     0.177 HD
ENDBRANCH  27  28
ENDBRANCH  26  27
ENDBRANCH  25  26
ENDBRANCH  24  25
BRANCH  24  37
HETATM   37  N           1     -22.575  -6.427  -4.707  0.00  0.00    -0.067 N 
HETATM   38  H           1     -22.444  -5.535  -4.178  0.00  0.00     0.275 HD
HETATM   39  H           1     -22.566  -7.231  -4.040  0.00  0.00     0.275 HD
HETATM   40  H           1     -23.489  -6.402  -5.212  0.00  0.00     0.275 HD
ENDBRANCH  24  37
ENDBRANCH   1  24
TORSDOF 15
ENDMDL
MODEL 6
REMARK VINA RESULT:      -7.1      2.481      4.586
REMARK  15 active torsions:
REMARK  status: ('A' for Active; 'I' for Inactive)
REMARK       I    between atoms: C_1  and  N_12 
REMARK    1  A    between atoms: C_1  and  C_6 
REMARK    2  A    between atoms: C_4  and  C_5 
REMARK    3  A    between atoms: C_5  and  C_13 
REMARK    4  A    between atoms: C_6  and  C_17 
REMARK    5  A    between atoms: C_6  and  N_19 
REMARK    6  A    between atoms: C_7  and  C_29 
REMARK    7  A    between atoms: C_7  and  C_8 
REMARK    8  A    between atoms: C_7  and  N_12 
REMARK    9  A    between atoms: C_13  and  C_33 
REMARK   10  A    between atoms: C_13  and  N_31 
REMARK   11  A    between atoms: C_17  and  C_25 
REMARK       I    between atoms: N_20  and  C_22 
REMARK       I    between atoms: N_21  and  C_22 
REMARK   12  A    between atoms: N_23  and  C_24 
REMARK   13  A    between atoms: C_24  and  C_25 
REMARK   14  A    between atoms: C_29  and  C_30 
REMARK   15  A    between atoms: C_30  and  N_31 
ROOT
HETATM    1  C           1     -20.481  -6.567  -5.418  0.00  0.00     0.249 C 
HETATM    2  N           1     -20.067  -7.822  -5.775  0.00  0.00    -0.345 N 
HETATM    3  O           1     -20.843  -6.348  -4.287  0.00  0.00    -0.271 OA
HETATM    4  H           1     -19.765  -8.005  -6.723  0.00  0.00     0.163 HD
ENDROOT
BRANCH   2   5
HETATM    5  C           1     -20.063  -8.889  -4.794  0.00  0.00     0.187 C 
BRANCH   5   6
HETATM    6  C           1     -21.339  -9.709  -4.931  0.00  0.00     0.066 C 
BRANCH   6   7
HETATM    7  C           1     -21.313 -10.860  -3.933  0.00  0.00     0.273 C 
BRANCH   7   8
HETATM    8  N           1     -22.650 -11.130  -3.476  0.00  0.00     0.098 N 
HETATM    9  H           1     -23.076 -11.840  -4.072  0.00  0.00     0.317 HD
BRANCH   8  10
HETATM   10  C           1     -22.559 -11.626  -2.129  0.00  0.00     0.324 C 
BRANCH  10  11
HETATM   11  C           1     -23.433 -10.775  -1.216  0.00  0.00     0.085 C 
BRANCH  11  12
HETATM   12  C           1     -22.566 -10.039  -0.242  0.00  0.00    -0.056 A 
HETATM   13  C           1     -22.854  -8.714   0.086  0.00  0.00     0.007 A 
HETATM   14  C           1     -22.045  -8.029   0.993  0.00  0.00     0.001 A 
HETATM   15  C           1     -20.950  -8.669   1.573  0.00  0.00     0.000 A 
HETATM   16  C           1     -20.662  -9.993   1.244  0.00  0.00     0.001 A 
HETATM   17  C           1     -21.470 -10.679   0.338  0.00  0.00     0.007 A 
ENDBRANCH  11  12
ENDBRANCH  10  11
BRANCH  10  18
HETATM   18  C           1     -23.035 -13.058  -2.090  0.00  0.00     0.207 C 
HETATM   19  O           1     -22.430 -13.936  -2.740  0.00  0.00    -0.646 OA
HETATM   20  O           1     -24.036 -13.365  -1.407  0.00  0.00    -0.646 OA
ENDBRANCH  10  18
ENDBRANCH   8  10
ENDBRANCH   7   8
ENDBRANCH   6   7
ENDBRANCH   5   6
BRANCH   5  21
HETATM   21  C           1     -18.866  -9.779  -5.026  0.00  0.00     0.196 C 
HETATM   22  O           1     -18.013  -9.927  -4.125  0.00  0.00    -0.646 OA
HETATM   23  O           1     -18.726 -10.367  -6.121  0.00  0.00    -0.646 OA
ENDBRANCH   5  21
ENDBRANCH   2   5
BRANCH   1  24
HETATM   24  C           1     -20.487  -5.455  -6.439  0.00  0.00     0.274 C 
BRANCH  24  25
HETATM   25  C           1     -21.917  -4.993  -6.682  0.00  0.00     0.044 C 
BRANCH  25  26
HETATM   26  C           1     -21.904  -3.693  -7.476  0.00  0.00     0.023 C 
BRANCH  26  27
HETATM   27  C           1     -22.552  -3.922  -8.834  0.00  0.00     0.138 C 
BRANCH  27  28
HETATM   28  N           1     -24.008  -3.749  -8.720  0.00  0.00    -0.227 N 
HETATM   29  C           1     -24.706  -3.554  -9.757  0.00  0.00     0.665 C 
HETATM   30  N           1     -24.137  -3.506 -10.925  0.00  0.00    -0.235 N 
HETATM   31  N           1     -25.959  -3.406  -9.658  0.00  0.00    -0.235 N 
HETATM   32  H           1     -24.713  -3.344 -11.781  0.00  0.00     0.174 HD
HETATM   33  H           1     -23.102  -3.628 -11.007  0.00  0.00     0.174 HD
HETATM   34  H           1     -26.539  -3.243 -10.518  0.00  0.00     0.174 HD
HETATM   35  H           1     -26.420  -3.444  -8.715  0.00  0.00     0.174 HD
HETATM   36  H           1     -24.468  -3.789  -7.776  0.00  0.00     0.177 HD
ENDBRANCH  27  28
ENDBRANCH  26  27
ENDBRANCH  25  26
ENDBRANCH  24  25
BRANCH  24  37
HETATM   37  N           1     -19.899  -5.956  -7.725  0.00  0.00    -0.067 N 
HETATM   38  H           1     -20.594  -5.834  -8.496  0.00  0.00     0.275 HD
HETATM   39  H           1     -19.659  -6.968  -7.629  0.00  0.00     0.275 HD
HETATM   40  H           1     -19.035  -5.412  -7.947  0.00  0.00     0.275 HD
ENDBRANCH  24  37
ENDBRANCH   1  24
TORSDOF 15
ENDMDL
MODEL 7
REMARK VINA RESULT:      -6.9      1.828      2.716
REMARK  15 active torsions:
REMARK  status: ('A' for Active; 'I' for Inactive)
REMARK       I    between atoms: C_1  and  N_12 
REMARK    1  A    between atoms: C_1  and  C_6 
REMARK    2  A    between atoms: C_4  and  C_5 
REMARK    3  A    between atoms: C_5  and  C_13 
REMARK    4  A    between atoms: C_6  and  C_17 
REMARK    5  A    between atoms: C_6  and  N_19 
REMARK    6  A    between atoms: C_7  and  C_29 
REMARK    7  A    between atoms: C_7  and  C_8 
REMARK    8  A    between atoms: C_7  and  N_12 
REMARK    9  A    between atoms: C_13  and  C_33 
REMARK   10  A    between atoms: C_13  and  N_31 
REMARK   11  A    between atoms: C_17  and  C_25 
REMARK       I    between atoms: N_20  and  C_22 
REMARK       I    between atoms: N_21  and  C_22 
REMARK   12  A    between atoms: N_23  and  C_24 
REMARK   13  A    between atoms: C_24  and  C_25 
REMARK   14  A    between atoms: C_29  and  C_30 
REMARK   15  A    between atoms: C_30  and  N_31 
ROOT
HETATM    1  C           1     -22.707  -4.581  -8.696  0.00  0.00     0.249 C 
HETATM    2  N           1     -21.652  -5.394  -8.380  0.00  0.00    -0.345 N 
HETATM    3  O           1     -22.921  -3.588  -8.044  0.00  0.00    -0.271 OA
HETATM    4  H           1     -21.473  -6.227  -8.927  0.00  0.00     0.163 HD
ENDROOT
BRANCH   2   5
HETATM    5  C           1     -20.791  -5.062  -7.263  0.00  0.00     0.187 C 
BRANCH   5   6
HETATM    6  C           1     -20.381  -6.340  -6.542  0.00  0.00     0.066 C 
BRANCH   6   7
HETATM    7  C           1     -20.867  -6.288  -5.099  0.00  0.00     0.273 C 
BRANCH   7   8
HETATM    8  N           1     -21.591  -7.491  -4.793  0.00  0.00     0.098 N 
HETATM    9  H           1     -22.151  -7.767  -5.600  0.00  0.00     0.317 HD
BRANCH   8  10
HETATM   10  C           1     -20.628  -8.520  -4.505  0.00  0.00     0.324 C 
BRANCH  10  11
HETATM   11  C           1     -20.420  -8.613  -2.998  0.00  0.00     0.085 C 
BRANCH  11  12
HETATM   12  C           1     -19.219  -9.459  -2.712  0.00  0.00    -0.056 A 
HETATM   13  C           1     -18.001  -9.176  -3.332  0.00  0.00     0.007 A 
HETATM   14  C           1     -16.883  -9.967  -3.065  0.00  0.00     0.001 A 
HETATM   15  C           1     -16.982 -11.038  -2.177  0.00  0.00     0.000 A 
HETATM   16  C           1     -18.199 -11.320  -1.558  0.00  0.00     0.001 A 
HETATM   17  C           1     -19.317 -10.531  -1.825  0.00  0.00     0.007 A 
ENDBRANCH  11  12
ENDBRANCH  10  11
BRANCH  10  18
HETATM   18  C           1     -21.136  -9.842  -5.025  0.00  0.00     0.207 C 
HETATM   19  O           1     -20.639 -10.340  -6.058  0.00  0.00    -0.646 OA
HETATM   20  O           1     -22.054 -10.439  -4.422  0.00  0.00    -0.646 OA
ENDBRANCH  10  18
ENDBRANCH   8  10
ENDBRANCH   7   8
ENDBRANCH   6   7
ENDBRANCH   5   6
BRANCH   5  21
HETATM   21  C           1     -19.559  -4.353  -7.771  0.00  0.00     0.196 C 
HETATM   22  O           1     -18.483  -4.441  -7.141  0.00  0.00    -0.646 OA
HETATM   23  O           1     -19.615  -3.678  -8.822  0.00  0.00    -0.646 OA
ENDBRANCH   5  21
ENDBRANCH   2   5
BRANCH   1  24
HETATM   24  C           1     -23.605  -4.927  -9.860  0.00  0.00     0.274 C 
BRANCH  24  25
HETATM   25  C           1     -22.985  -4.412 -11.151  0.00  0.00     0.044 C 
BRANCH  25  26
HETATM   26  C           1     -23.834  -3.274 -11.704  0.00  0.00     0.023 C 
BRANCH  26  27
HETATM   27  C           1     -23.339  -2.902 -13.095  0.00  0.00     0.138 C 
BRANCH  27  28
HETATM   28  N           1     -24.083  -1.730 -13.584  0.00  0.00    -0.227 N 
HETATM   29  C           1     -23.818  -1.243 -14.722  0.00  0.00     0.665 C 
HETATM   30  N           1     -22.890  -1.776 -15.458  0.00  0.00    -0.235 N 
HETATM   31  N           1     -24.459  -0.235 -15.142  0.00  0.00    -0.235 N 
HETATM   32  H           1     -22.672  -1.373 -16.397  0.00  0.00     0.174 HD
HETATM   33  H           1     -22.361  -2.608 -15.111  0.00  0.00     0.174 HD
HETATM   34  H           1     -24.241   0.170 -16.085  0.00  0.00     0.174 HD
HETATM   35  H           1     -25.210   0.196 -14.547  0.00  0.00     0.174 HD
HETATM   36  H           1     -24.833  -1.300 -12.988  0.00  0.00     0.177 HD
ENDBRANCH  27  28
ENDBRANCH  26  27
ENDBRANCH  25  26
ENDBRANCH  24  25
BRANCH  24  37
HETATM   37  N           1     -24.948  -4.289  -9.661  0.00  0.00    -0.067 N 
HETATM   38  H           1     -25.698  -4.986  -9.872  0.00  0.00     0.275 HD
HETATM   39  H           1     -25.044  -3.470 -10.303  0.00  0.00     0.275 HD
HETATM   40  H           1     -25.038  -3.969  -8.671  0.00  0.00     0.275 HD
ENDBRANCH  24  37
ENDBRANCH   1  24
TORSDOF 15
ENDMDL
MODEL 8
REMARK VINA RESULT:      -6.7      4.613      8.705
REMARK  15 active torsions:
REMARK  status: ('A' for Active; 'I' for Inactive)
REMARK       I    between atoms: C_1  and  N_12 
REMARK    1  A    between atoms: C_1  and  C_6 
REMARK    2  A    between atoms: C_4  and  C_5 
REMARK    3  A    between atoms: C_5  and  C_13 
REMARK    4  A    between atoms: C_6  and  C_17 
REMARK    5  A    between atoms: C_6  and  N_19 
REMARK    6  A    between atoms: C_7  and  C_29 
REMARK    7  A    between atoms: C_7  and  C_8 
REMARK    8  A    between atoms: C_7  and  N_12 
REMARK    9  A    between atoms: C_13  and  C_33 
REMARK   10  A    between atoms: C_13  and  N_31 
REMARK   11  A    between atoms: C_17  and  C_25 
REMARK       I    between atoms: N_20  and  C_22 
REMARK       I    between atoms: N_21  and  C_22 
REMARK   12  A    between atoms: N_23  and  C_24 
REMARK   13  A    between atoms: C_24  and  C_25 
REMARK   14  A    between atoms: C_29  and  C_30 
REMARK   15  A    between atoms: C_30  and  N_31 
ROOT
HETATM    1  C           1     -20.894 -10.455  -1.963  0.00  0.00     0.249 C 
HETATM    2  N           1     -21.762  -9.471  -1.573  0.00  0.00    -0.345 N 
HETATM    3  O           1     -19.716 -10.353  -1.719  0.00  0.00    -0.271 OA
HETATM    4  H           1     -22.750  -9.556  -1.778  0.00  0.00     0.163 HD
ENDROOT
BRANCH   2   5
HETATM    5  C           1     -21.267  -8.306  -0.867  0.00  0.00     0.187 C 
BRANCH   5   6
HETATM    6  C           1     -21.993  -7.064  -1.366  0.00  0.00     0.066 C 
BRANCH   6   7
HETATM    7  C           1     -21.361  -6.596  -2.671  0.00  0.00     0.273 C 
BRANCH   7   8
HETATM    8  N           1     -22.395  -6.287  -3.622  0.00  0.00     0.098 N 
HETATM    9  H           1     -22.665  -5.308  -3.525  0.00  0.00     0.317 HD
BRANCH   8  10
HETATM   10  C           1     -21.858  -6.508  -4.938  0.00  0.00     0.324 C 
BRANCH  10  11
HETATM   11  C           1     -20.706  -5.543  -5.185  0.00  0.00     0.085 C 
BRANCH  11  12
HETATM   12  C           1     -20.803  -4.994  -6.574  0.00  0.00    -0.056 A 
HETATM   13  C           1     -21.997  -4.424  -7.017  0.00  0.00     0.007 A 
HETATM   14  C           1     -22.087  -3.914  -8.313  0.00  0.00     0.001 A 
HETATM   15  C           1     -20.983  -3.973  -9.164  0.00  0.00     0.000 A 
HETATM   16  C           1     -19.791  -4.543  -8.721  0.00  0.00     0.001 A 
HETATM   17  C           1     -19.700  -5.053  -7.426  0.00  0.00     0.007 A 
ENDBRANCH  11  12
ENDBRANCH  10  11
BRANCH  10  18
HETATM   18  C           1     -21.357  -7.927  -5.043  0.00  0.00     0.207 C 
HETATM   19  O           1     -20.239  -8.160  -5.550  0.00  0.00    -0.646 OA
HETATM   20  O           1     -22.062  -8.871  -4.623  0.00  0.00    -0.646 OA
ENDBRANCH  10  18
ENDBRANCH   8  10
ENDBRANCH   7   8
ENDBRANCH   6   7
ENDBRANCH   5   6
BRANCH   5  21
HETATM   21  C           1     -21.514  -8.473   0.612  0.00  0.00     0.196 C 
HETATM   22  O           1     -20.855  -9.309   1.266  0.00  0.00    -0.646 OA
HETATM   23  O           1     -22.380  -7.775   1.185  0.00  0.00    -0.646 OA
ENDBRANCH   5  21
ENDBRANCH   2   5
BRANCH   1  24
HETATM   24  C           1     -21.409 -11.668  -2.699  0.00  0.00     0.274 C 
BRANCH  24  25
HETATM   25  C           1     -20.546 -11.924  -3.926  0.00  0.00     0.044 C 
BRANCH  25  26
HETATM   26  C           1     -21.423 -12.417  -5.070  0.00  0.00     0.023 C 
BRANCH  26  27
HETATM   27  C           1     -21.044 -11.686  -6.351  0.00  0.00     0.138 C 
BRANCH  27  28
HETATM   28  N           1     -19.973 -12.423  -7.039  0.00  0.00    -0.227 N 
HETATM   29  C           1     -18.826 -11.903  -7.163  0.00  0.00     0.665 C 
HETATM   30  N           1     -18.593 -10.718  -6.683  0.00  0.00    -0.235 N 
HETATM   31  N           1     -17.905 -12.538  -7.755  0.00  0.00    -0.235 N 
HETATM   32  H           1     -17.646 -10.289  -6.786  0.00  0.00     0.174 HD
HETATM   33  H           1     -19.354 -10.194  -6.194  0.00  0.00     0.174 HD
HETATM   34  H           1     -16.953 -12.107  -7.859  0.00  0.00     0.174 HD
HETATM   35  H           1     -18.091 -13.496  -8.144  0.00  0.00     0.174 HD
HETATM   36  H           1     -20.161 -13.381  -7.427  0.00  0.00     0.177 HD
ENDBRANCH  27  28
ENDBRANCH  26  27
ENDBRANCH  25  26
ENDBRANCH  24  25
BRANCH  24  37
HETATM   37  N           1     -22.827 -11.428  -3.126  0.00  0.00    -0.067 N 
HETATM   38  H           1     -23.476 -11.738  -2.368  0.00  0.00     0.275 HD
HETATM   39  H           1     -23.025 -11.970  -3.998  0.00  0.00     0.275 HD
HETATM   40  H           1     -22.967 -10.409  -3.310  0.00  0.00     0.275 HD
ENDBRANCH  24  37
ENDBRANCH   1  24
TORSDOF 15
ENDMDL
MODEL 9
REMARK VINA RESULT:      -6.7      1.755      3.137
REMARK  15 active torsions:
REMARK  status: ('A' for Active; 'I' for Inactive)
REMARK       I    between atoms: C_1  and  N_12 
REMARK    1  A    between atoms: C_1  and  C_6 
REMARK    2  A    between atoms: C_4  and  C_5 
REMARK    3  A    between atoms: C_5  and  C_13 
REMARK    4  A    between atoms: C_6  and  C_17 
REMARK    5  A    between atoms: C_6  and  N_19 
REMARK    6  A    between atoms: C_7  and  C_29 
REMARK    7  A    between atoms: C_7  and  C_8 
REMARK    8  A    between atoms: C_7  and  N_12 
REMARK    9  A    between atoms: C_13  and  C_33 
REMARK   10  A    between atoms: C_13  and  N_31 
REMARK   11  A    between atoms: C_17  and  C_25 
REMARK       I    between atoms: N_20  and  C_22 
REMARK       I    between atoms: N_21  and  C_22 
REMARK   12  A    between atoms: N_23  and  C_24 
REMARK   13  A    between atoms: C_24  and  C_25 
REMARK   14  A    between atoms: C_29  and  C_30 
REMARK   15  A    between atoms: C_30  and  N_31 
ROOT
HETATM    1  C           1     -23.175  -4.270  -9.040  0.00  0.00     0.249 C 
HETATM    2  N           1     -21.992  -4.871  -8.705  0.00  0.00    -0.345 N 
HETATM    3  O           1     -23.728  -3.542  -8.251  0.00  0.00    -0.271 OA
HETATM    4  H           1     -21.529  -5.482  -9.366  0.00  0.00     0.163 HD
ENDROOT
BRANCH   2   5
HETATM    5  C           1     -21.401  -4.633  -7.403  0.00  0.00     0.187 C 
BRANCH   5   6
HETATM    6  C           1     -22.291  -5.237  -6.324  0.00  0.00     0.066 C 
BRANCH   6   7
HETATM    7  C           1     -21.426  -5.731  -5.171  0.00  0.00     0.273 C 
BRANCH   7   8
HETATM    8  N           1     -22.256  -6.387  -4.196  0.00  0.00     0.098 N 
HETATM    9  H           1     -23.126  -6.688  -4.637  0.00  0.00     0.317 HD
BRANCH   8  10
HETATM   10  C           1     -21.539  -7.537  -3.715  0.00  0.00     0.324 C 
BRANCH  10  11
HETATM   11  C           1     -20.190  -7.624  -4.417  0.00  0.00     0.085 C 
BRANCH  11  12
HETATM   12  C           1     -20.006  -9.001  -4.974  0.00  0.00    -0.056 A 
HETATM   13  C           1     -21.118  -9.780  -5.293  0.00  0.00     0.007 A 
HETATM   14  C           1     -20.945 -11.064  -5.811  0.00  0.00     0.001 A 
HETATM   15  C           1     -19.660 -11.568  -6.012  0.00  0.00     0.000 A 
HETATM   16  C           1     -18.548 -10.789  -5.692  0.00  0.00     0.001 A 
HETATM   17  C           1     -18.721  -9.506  -5.174  0.00  0.00     0.007 A 
ENDBRANCH  11  12
ENDBRANCH  10  11
BRANCH  10  18
HETATM   18  C           1     -21.325  -7.408  -2.227  0.00  0.00     0.207 C 
HETATM   19  O           1     -20.218  -7.702  -1.727  0.00  0.00    -0.646 OA
HETATM   20  O           1     -22.256  -7.008  -1.494  0.00  0.00    -0.646 OA
ENDBRANCH  10  18
ENDBRANCH   8  10
ENDBRANCH   7   8
ENDBRANCH   6   7
ENDBRANCH   5   6
BRANCH   5  21
HETATM   21  C           1     -20.036  -5.274  -7.346  0.00  0.00     0.196 C 
HETATM   22  O           1     -19.062  -4.631  -6.899  0.00  0.00    -0.646 OA
HETATM   23  O           1     -19.878  -6.447  -7.747  0.00  0.00    -0.646 OA
ENDBRANCH   5  21
ENDBRANCH   2   5
BRANCH   1  24
HETATM   24  C           1     -23.791  -4.518 -10.396  0.00  0.00     0.274 C 
BRANCH  24  25
HETATM   25  C           1     -22.775  -4.193 -11.483  0.00  0.00     0.044 C 
BRANCH  25  26
HETATM   26  C           1     -23.485  -4.093 -12.827  0.00  0.00     0.023 C 
BRANCH  26  27
HETATM   27  C           1     -22.859  -2.975 -13.649  0.00  0.00     0.138 C 
BRANCH  27  28
HETATM   28  N           1     -23.813  -1.861 -13.771  0.00  0.00    -0.227 N 
HETATM   29  C           1     -23.773  -1.102 -14.783  0.00  0.00     0.665 C 
HETATM   30  N           1     -22.891  -1.305 -15.714  0.00  0.00    -0.235 N 
HETATM   31  N           1     -24.595  -0.145 -14.887  0.00  0.00    -0.235 N 
HETATM   32  H           1     -22.858  -0.678 -16.550  0.00  0.00     0.174 HD
HETATM   33  H           1     -22.212  -2.096 -15.629  0.00  0.00     0.174 HD
HETATM   34  H           1     -24.562   0.486 -15.725  0.00  0.00     0.174 HD
HETATM   35  H           1     -25.309   0.020 -14.134  0.00  0.00     0.174 HD
HETATM   36  H           1     -24.527  -1.698 -13.018  0.00  0.00     0.177 HD
ENDBRANCH  27  28
ENDBRANCH  26  27
ENDBRANCH  25  26
ENDBRANCH  24  25
BRANCH  24  37
HETATM   37  N           1     -24.999  -3.646 -10.563  0.00  0.00    -0.067 N 
HETATM   38  H           1     -25.536  -3.619  -9.667  0.00  0.00     0.275 HD
HETATM   39  H           1     -25.606  -4.032 -11.321  0.00  0.00     0.275 HD
HETATM   40  H           1     -24.697  -2.678 -10.817  0.00  0.00     0.275 HD
ENDBRANCH  24  37
ENDBRANCH   1  24
TORSDOF 15
ENDMDL
