MODEL 1
REMARK VINA RESULT:      -6.7      0.000      0.000
REMARK  9 active torsions:
REMARK  status: ('A' for Active; 'I' for Inactive)
REMARK    1  A    between atoms: C_2  and  C_11 
REMARK    2  A    between atoms: C_4  and  C_5 
REMARK    3  A    between atoms: C_4  and  C_21 
REMARK    4  A    between atoms: C_4  and  N_24 
REMARK       I    between atoms: C_5  and  N_6 
REMARK    5  A    between atoms: N_6  and  C_10 
REMARK    6  A    between atoms: C_9  and  C_10 
REMARK    7  A    between atoms: C_10  and  C_11 
REMARK       I    between atoms: N_17  and  C_18 
REMARK    8  A    between atoms: C_18  and  C_23 
REMARK    9  A    between atoms: C_21  and  C_23 
ROOT
HETATM    1  C           1     -33.354  -2.726 -11.414  0.00  0.00     0.275 C 
ENDROOT
BRANCH   1   2
HETATM    2  C           1     -34.329  -2.345 -12.501  0.00  0.00     0.249 C 
HETATM    3  O           1     -34.542  -3.104 -13.415  0.00  0.00    -0.271 OA
HETATM    4  N           1     -34.974  -1.137 -12.449  0.00  0.00    -0.344 N 
HETATM    5  H           1     -34.795  -0.500 -11.683  0.00  0.00     0.163 HD
BRANCH   4   6
HETATM    6  C           1     -35.910  -0.770 -13.494  0.00  0.00     0.195 C 
BRANCH   6   7
HETATM    7  C           1     -35.232   0.151 -14.477  0.00  0.00     0.197 C 
HETATM    8  O           1     -34.756  -0.307 -15.537  0.00  0.00    -0.646 OA
HETATM    9  O           1     -35.150   1.374 -14.232  0.00  0.00    -0.646 OA
ENDBRANCH   6   7
BRANCH   6  10
HETATM   10  C           1     -37.108  -0.061 -12.873  0.00  0.00     0.149 C 
BRANCH  10  11
HETATM   11  C           1     -37.085  -0.253 -11.376  0.00  0.00     0.175 C 
HETATM   12  O           1     -36.440   0.538 -10.654  0.00  0.00    -0.648 OA
HETATM   13  O           1     -37.712  -1.202 -10.859  0.00  0.00    -0.648 OA
ENDBRANCH  10  11
ENDBRANCH   6  10
ENDBRANCH   4   6
ENDBRANCH   1   2
BRANCH   1  14
HETATM   14  C           1     -33.045  -4.215 -11.508  0.00  0.00     0.052 C 
BRANCH  14  15
HETATM   15  C           1     -33.918  -4.978 -10.521  0.00  0.00     0.105 C 
BRANCH  15  16
HETATM   16  C           1     -34.557  -6.154 -11.217  0.00  0.00     0.215 C 
HETATM   17  O           1     -34.753  -7.181 -10.611  0.00  0.00    -0.274 OA
HETATM   18  N           1     -34.915  -6.057 -12.535  0.00  0.00    -0.370 N 
HETATM   19  H           1     -35.344  -6.846 -13.002  0.00  0.00     0.159 HD
HETATM   20  H           1     -34.751  -5.198 -13.042  0.00  0.00     0.159 HD
ENDBRANCH  15  16
ENDBRANCH  14  15
ENDBRANCH   1  14
BRANCH   1  21
HETATM   21  N           1     -33.956  -2.425 -10.074  0.00  0.00    -0.066 N 
HETATM   22  H           1     -34.883  -2.901  -9.994  0.00  0.00     0.275 HD
HETATM   23  H           1     -34.085  -1.393  -9.973  0.00  0.00     0.275 HD
HETATM   24  H           1     -33.320  -2.772  -9.321  0.00  0.00     0.275 HD
ENDBRANCH   1  21
TORSDOF 9
ENDMDL
MODEL 2
REMARK VINA RESULT:      -5.9     12.391     13.928
REMARK  9 active torsions:
REMARK  status: ('A' for Active; 'I' for Inactive)
REMARK    1  A    between atoms: C_2  and  C_11 
REMARK    2  A    between atoms: C_4  and  C_5 
REMARK    3  A    between atoms: C_4  and  C_21 
REMARK    4  A    between atoms: C_4  and  N_24 
REMARK       I    between atoms: C_5  and  N_6 
REMARK    5  A    between atoms: N_6  and  C_10 
REMARK    6  A    between atoms: C_9  and  C_10 
REMARK    7  A    between atoms: C_10  and  C_11 
REMARK       I    between atoms: N_17  and  C_18 
REMARK    8  A    between atoms: C_18  and  C_23 
REMARK    9  A    between atoms: C_21  and  C_23 
ROOT
HETATM    1  C           1     -20.243  -3.807  -7.742  0.00  0.00     0.275 C 
ENDROOT
BRANCH   1   2
HETATM    2  C           1     -20.653  -4.323  -9.100  0.00  0.00     0.249 C 
HETATM    3  O           1     -19.961  -5.131  -9.673  0.00  0.00    -0.271 OA
HETATM    4  N           1     -21.810  -3.876  -9.681  0.00  0.00    -0.344 N 
HETATM    5  H           1     -22.389  -3.200  -9.201  0.00  0.00     0.163 HD
BRANCH   4   6
HETATM    6  C           1     -22.203  -4.372 -10.986  0.00  0.00     0.195 C 
BRANCH   6   7
HETATM    7  C           1     -22.117  -3.254 -11.996  0.00  0.00     0.197 C 
HETATM    8  O           1     -21.457  -2.226 -11.735  0.00  0.00    -0.646 OA
HETATM    9  O           1     -22.704  -3.358 -13.094  0.00  0.00    -0.646 OA
ENDBRANCH   6   7
BRANCH   6  10
HETATM   10  C           1     -23.634  -4.890 -10.921  0.00  0.00     0.149 C 
BRANCH  10  11
HETATM   11  C           1     -24.447  -4.007 -10.004  0.00  0.00     0.175 C 
HETATM   12  O           1     -24.278  -4.066  -8.767  0.00  0.00    -0.648 OA
HETATM   13  O           1     -25.289  -3.218 -10.483  0.00  0.00    -0.648 OA
ENDBRANCH  10  11
ENDBRANCH   6  10
ENDBRANCH   4   6
ENDBRANCH   1   2
BRANCH   1  14
HETATM   14  C           1     -19.695  -4.957  -6.906  0.00  0.00     0.052 C 
BRANCH  14  15
HETATM   15  C           1     -20.463  -5.042  -5.594  0.00  0.00     0.105 C 
BRANCH  15  16
HETATM   16  C           1     -21.359  -6.255  -5.611  0.00  0.00     0.215 C 
HETATM   17  O           1     -21.143  -7.154  -6.390  0.00  0.00    -0.274 OA
HETATM   18  N           1     -22.416  -6.338  -4.746  0.00  0.00    -0.370 N 
HETATM   19  H           1     -23.017  -7.153  -4.758  0.00  0.00     0.159 HD
HETATM   20  H           1     -22.598  -5.586  -4.095  0.00  0.00     0.159 HD
ENDBRANCH  15  16
ENDBRANCH  14  15
ENDBRANCH   1  14
BRANCH   1  21
HETATM   21  N           1     -21.435  -3.213  -7.053  0.00  0.00    -0.066 N 
HETATM   22  H           1     -21.216  -3.067  -6.041  0.00  0.00     0.275 HD
HETATM   23  H           1     -22.249  -3.862  -7.141  0.00  0.00     0.275 HD
HETATM   24  H           1     -21.671  -2.296  -7.494  0.00  0.00     0.275 HD
ENDBRANCH   1  21
TORSDOF 9
ENDMDL
MODEL 3
REMARK VINA RESULT:      -5.8     12.445     14.756
REMARK  9 active torsions:
REMARK  status: ('A' for Active; 'I' for Inactive)
REMARK    1  A    between atoms: C_2  and  C_11 
REMARK    2  A    between atoms: C_4  and  C_5 
REMARK    3  A    between atoms: C_4  and  C_21 
REMARK    4  A    between atoms: C_4  and  N_24 
REMARK       I    between atoms: C_5  and  N_6 
REMARK    5  A    between atoms: N_6  and  C_10 
REMARK    6  A    between atoms: C_9  and  C_10 
REMARK    7  A    between atoms: C_10  and  C_11 
REMARK       I    between atoms: N_17  and  C_18 
REMARK    8  A    between atoms: C_18  and  C_23 
REMARK    9  A    between atoms: C_21  and  C_23 
ROOT
HETATM    1  C           1     -23.568  -4.448  -9.209  0.00  0.00     0.275 C 
ENDROOT
BRANCH   1   2
HETATM    2  C           1     -22.325  -4.162  -8.403  0.00  0.00     0.249 C 
HETATM    3  O           1     -21.583  -3.267  -8.734  0.00  0.00    -0.271 OA
HETATM    4  N           1     -22.037  -4.916  -7.296  0.00  0.00    -0.344 N 
HETATM    5  H           1     -22.658  -5.665  -7.019  0.00  0.00     0.163 HD
BRANCH   4   6
HETATM    6  C           1     -20.842  -4.641  -6.523  0.00  0.00     0.195 C 
BRANCH   6   7
HETATM    7  C           1     -19.633  -5.157  -7.263  0.00  0.00     0.197 C 
HETATM    8  O           1     -19.635  -6.316  -7.731  0.00  0.00    -0.646 OA
HETATM    9  O           1     -18.631  -4.426  -7.410  0.00  0.00    -0.646 OA
ENDBRANCH   6   7
BRANCH   6  10
HETATM   10  C           1     -20.944  -5.333  -5.169  0.00  0.00     0.149 C 
BRANCH  10  11
HETATM   11  C           1     -22.025  -6.385  -5.223  0.00  0.00     0.175 C 
HETATM   12  O           1     -23.210  -6.078  -4.973  0.00  0.00    -0.648 OA
HETATM   13  O           1     -21.734  -7.564  -5.519  0.00  0.00    -0.648 OA
ENDBRANCH  10  11
ENDBRANCH   6  10
ENDBRANCH   4   6
ENDBRANCH   1   2
BRANCH   1  14
HETATM   14  C           1     -23.233  -4.405 -10.694  0.00  0.00     0.052 C 
BRANCH  14  15
HETATM   15  C           1     -24.071  -3.330 -11.373  0.00  0.00     0.105 C 
BRANCH  15  16
HETATM   16  C           1     -23.483  -3.010 -12.725  0.00  0.00     0.215 C 
HETATM   17  O           1     -24.129  -2.387 -13.533  0.00  0.00    -0.274 OA
HETATM   18  N           1     -22.217  -3.428 -13.036  0.00  0.00    -0.370 N 
HETATM   19  H           1     -21.822  -3.214 -13.943  0.00  0.00     0.159 HD
HETATM   20  H           1     -21.676  -3.951 -12.360  0.00  0.00     0.159 HD
ENDBRANCH  15  16
ENDBRANCH  14  15
ENDBRANCH   1  14
BRANCH   1  21
HETATM   21  N           1     -24.611  -3.415  -8.902  0.00  0.00    -0.066 N 
HETATM   22  H           1     -24.311  -2.852  -8.074  0.00  0.00     0.275 HD
HETATM   23  H           1     -25.519  -3.887  -8.690  0.00  0.00     0.275 HD
HETATM   24  H           1     -24.731  -2.785  -9.727  0.00  0.00     0.275 HD
ENDBRANCH   1  21
TORSDOF 9
ENDMDL
MODEL 4
REMARK VINA RESULT:      -5.7     14.062     16.850
REMARK  9 active torsions:
REMARK  status: ('A' for Active; 'I' for Inactive)
REMARK    1  A    between atoms: C_2  and  C_11 
REMARK    2  A    between atoms: C_4  and  C_5 
REMARK    3  A    between atoms: C_4  and  C_21 
REMARK    4  A    between atoms: C_4  and  N_24 
REMARK       I    between atoms: C_5  and  N_6 
REMARK    5  A    between atoms: N_6  and  C_10 
REMARK    6  A    between atoms: C_9  and  C_10 
REMARK    7  A    between atoms: C_10  and  C_11 
REMARK       I    between atoms: N_17  and  C_18 
REMARK    8  A    between atoms: C_18  and  C_23 
REMARK    9  A    between atoms: C_21  and  C_23 
ROOT
HETATM    1  C           1     -20.433  -5.051  -6.514  0.00  0.00     0.275 C 
ENDROOT
BRANCH   1   2
HETATM    2  C           1     -21.351  -5.824  -5.599  0.00  0.00     0.249 C 
HETATM    3  O           1     -22.544  -5.635  -5.641  0.00  0.00    -0.271 OA
HETATM    4  N           1     -20.833  -6.740  -4.723  0.00  0.00    -0.344 N 
HETATM    5  H           1     -19.834  -6.898  -4.688  0.00  0.00     0.163 HD
BRANCH   4   6
HETATM    6  C           1     -21.716  -7.482  -3.843  0.00  0.00     0.195 C 
BRANCH   6   7
HETATM    7  C           1     -21.651  -6.897  -2.454  0.00  0.00     0.197 C 
HETATM    8  O           1     -22.317  -5.878  -2.173  0.00  0.00    -0.646 OA
HETATM    9  O           1     -20.932  -7.433  -1.584  0.00  0.00    -0.646 OA
ENDBRANCH   6   7
BRANCH   6  10
HETATM   10  C           1     -21.281  -8.941  -3.802  0.00  0.00     0.149 C 
BRANCH  10  11
HETATM   11  C           1     -19.983  -9.100  -4.556  0.00  0.00     0.175 C 
HETATM   12  O           1     -19.997  -9.401  -5.769  0.00  0.00    -0.648 OA
HETATM   13  O           1     -18.894  -8.930  -3.966  0.00  0.00    -0.648 OA
ENDBRANCH  10  11
ENDBRANCH   6  10
ENDBRANCH   4   6
ENDBRANCH   1   2
BRANCH   1  14
HETATM   14  C           1     -21.172  -3.843  -7.074  0.00  0.00     0.052 C 
BRANCH  14  15
HETATM   15  C           1     -21.400  -4.035  -8.568  0.00  0.00     0.105 C 
BRANCH  15  16
HETATM   16  C           1     -22.866  -3.862  -8.879  0.00  0.00     0.215 C 
HETATM   17  O           1     -23.212  -3.510  -9.982  0.00  0.00    -0.274 OA
HETATM   18  N           1     -23.805  -4.104  -7.913  0.00  0.00    -0.370 N 
HETATM   19  H           1     -24.789  -3.988  -8.122  0.00  0.00     0.159 HD
HETATM   20  H           1     -23.516  -4.398  -6.989  0.00  0.00     0.159 HD
ENDBRANCH  15  16
ENDBRANCH  14  15
ENDBRANCH   1  14
BRANCH   1  21
HETATM   21  N           1     -19.993  -5.936  -7.643  0.00  0.00    -0.066 N 
HETATM   22  H           1     -19.759  -6.885  -7.271  0.00  0.00     0.275 HD
HETATM   23  H           1     -19.149  -5.524  -8.101  0.00  0.00     0.275 HD
HETATM   24  H           1     -20.764  -6.016  -8.343  0.00  0.00     0.275 HD
ENDBRANCH   1  21
TORSDOF 9
ENDMDL
MODEL 5
REMARK VINA RESULT:      -5.7      2.830      5.079
REMARK  9 active torsions:
REMARK  status: ('A' for Active; 'I' for Inactive)
REMARK    1  A    between atoms: C_2  and  C_11 
REMARK    2  A    between atoms: C_4  and  C_5 
REMARK    3  A    between atoms: C_4  and  C_21 
REMARK    4  A    between atoms: C_4  and  N_24 
REMARK       I    between atoms: C_5  and  N_6 
REMARK    5  A    between atoms: N_6  and  C_10 
REMARK    6  A    between atoms: C_9  and  C_10 
REMARK    7  A    between atoms: C_10  and  C_11 
REMARK       I    between atoms: N_17  and  C_18 
REMARK    8  A    between atoms: C_18  and  C_23 
REMARK    9  A    between atoms: C_21  and  C_23 
ROOT
HETATM    1  C           1     -36.212   0.302 -14.565  0.00  0.00     0.275 C 
ENDROOT
BRANCH   1   2
HETATM    2  C           1     -36.885  -0.270 -13.342  0.00  0.00     0.249 C 
HETATM    3  O           1     -38.010  -0.702 -13.417  0.00  0.00    -0.271 OA
HETATM    4  N           1     -36.218  -0.301 -12.145  0.00  0.00    -0.344 N 
HETATM    5  H           1     -35.275   0.061 -12.082  0.00  0.00     0.163 HD
BRANCH   4   6
HETATM    6  C           1     -36.864  -0.851 -10.969  0.00  0.00     0.195 C 
BRANCH   6   7
HETATM    7  C           1     -36.934   0.204  -9.894  0.00  0.00     0.197 C 
HETATM    8  O           1     -36.195   0.123  -8.890  0.00  0.00    -0.646 OA
HETATM    9  O           1     -37.731   1.161 -10.008  0.00  0.00    -0.646 OA
ENDBRANCH   6   7
BRANCH   6  10
HETATM   10  C           1     -36.063  -2.043 -10.462  0.00  0.00     0.149 C 
BRANCH  10  11
HETATM   11  C           1     -34.724  -2.082 -11.158  0.00  0.00     0.175 C 
HETATM   12  O           1     -34.593  -2.720 -12.225  0.00  0.00    -0.648 OA
HETATM   13  O           1     -33.747  -1.476 -10.668  0.00  0.00    -0.648 OA
ENDBRANCH  10  11
ENDBRANCH   6  10
ENDBRANCH   4   6
ENDBRANCH   1   2
BRANCH   1  14
HETATM   14  C           1     -36.525  -0.571 -15.773  0.00  0.00     0.052 C 
BRANCH  14  15
HETATM   15  C           1     -35.275  -0.723 -16.628  0.00  0.00     0.105 C 
BRANCH  15  16
HETATM   16  C           1     -34.721  -2.117 -16.470  0.00  0.00     0.215 C 
HETATM   17  O           1     -34.887  -2.719 -15.435  0.00  0.00    -0.274 OA
HETATM   18  N           1     -34.031  -2.701 -17.498  0.00  0.00    -0.370 N 
HETATM   19  H           1     -33.659  -3.637 -17.391  0.00  0.00     0.159 HD
HETATM   20  H           1     -33.891  -2.197 -18.364  0.00  0.00     0.159 HD
ENDBRANCH  15  16
ENDBRANCH  14  15
ENDBRANCH   1  14
BRANCH   1  21
HETATM   21  N           1     -34.729   0.341 -14.348  0.00  0.00    -0.066 N 
HETATM   22  H           1     -34.241   0.024 -15.217  0.00  0.00     0.275 HD
HETATM   23  H           1     -34.475  -0.293 -13.557  0.00  0.00     0.275 HD
HETATM   24  H           1     -34.435   1.317 -14.120  0.00  0.00     0.275 HD
ENDBRANCH   1  21
TORSDOF 9
ENDMDL
MODEL 6
REMARK VINA RESULT:      -5.7      2.414      5.266
REMARK  9 active torsions:
REMARK  status: ('A' for Active; 'I' for Inactive)
REMARK    1  A    between atoms: C_2  and  C_11 
REMARK    2  A    between atoms: C_4  and  C_5 
REMARK    3  A    between atoms: C_4  and  C_21 
REMARK    4  A    between atoms: C_4  and  N_24 
REMARK       I    between atoms: C_5  and  N_6 
REMARK    5  A    between atoms: N_6  and  C_10 
REMARK    6  A    between atoms: C_9  and  C_10 
REMARK    7  A    between atoms: C_10  and  C_11 
REMARK       I    between atoms: N_17  and  C_18 
REMARK    8  A    between atoms: C_18  and  C_23 
REMARK    9  A    between atoms: C_21  and  C_23 
ROOT
HETATM    1  C           1     -35.925  -0.104 -14.595  0.00  0.00     0.275 C 
ENDROOT
BRANCH   1   2
HETATM    2  C           1     -35.888  -1.018 -13.394  0.00  0.00     0.249 C 
HETATM    3  O           1     -36.872  -1.154 -12.708  0.00  0.00    -0.271 OA
HETATM    4  N           1     -34.737  -1.694 -13.084  0.00  0.00    -0.344 N 
HETATM    5  H           1     -33.912  -1.580 -13.658  0.00  0.00     0.163 HD
BRANCH   4   6
HETATM    6  C           1     -34.702  -2.571 -11.929  0.00  0.00     0.195 C 
BRANCH   6   7
HETATM    7  C           1     -34.298  -1.782 -10.709  0.00  0.00     0.197 C 
HETATM    8  O           1     -33.089  -1.665 -10.412  0.00  0.00    -0.646 OA
HETATM    9  O           1     -35.171  -1.242  -9.996  0.00  0.00    -0.646 OA
ENDBRANCH   6   7
BRANCH   6  10
HETATM   10  C           1     -33.692  -3.686 -12.172  0.00  0.00     0.149 C 
BRANCH  10  11
HETATM   11  C           1     -34.383  -5.023 -12.062  0.00  0.00     0.175 C 
HETATM   12  O           1     -35.240  -5.355 -12.909  0.00  0.00    -0.648 OA
HETATM   13  O           1     -34.098  -5.798 -11.124  0.00  0.00    -0.648 OA
ENDBRANCH  10  11
ENDBRANCH   6  10
ENDBRANCH   4   6
ENDBRANCH   1   2
BRANCH   1  14
HETATM   14  C           1     -36.313  -0.905 -15.831  0.00  0.00     0.052 C 
BRANCH  14  15
HETATM   15  C           1     -35.099  -1.065 -16.735  0.00  0.00     0.105 C 
BRANCH  15  16
HETATM   16  C           1     -34.538  -2.457 -16.585  0.00  0.00     0.215 C 
HETATM   17  O           1     -34.851  -3.136 -15.636  0.00  0.00    -0.274 OA
HETATM   18  N           1     -33.674  -2.952 -17.525  0.00  0.00    -0.370 N 
HETATM   19  H           1     -33.298  -3.887 -17.424  0.00  0.00     0.159 HD
HETATM   20  H           1     -33.411  -2.385 -18.320  0.00  0.00     0.159 HD
ENDBRANCH  15  16
ENDBRANCH  14  15
ENDBRANCH   1  14
BRANCH   1  21
HETATM   21  N           1     -34.570   0.505 -14.800  0.00  0.00    -0.066 N 
HETATM   22  H           1     -34.646   1.547 -14.754  0.00  0.00     0.275 HD
HETATM   23  H           1     -34.199   0.225 -15.736  0.00  0.00     0.275 HD
HETATM   24  H           1     -33.920   0.170 -14.054  0.00  0.00     0.275 HD
ENDBRANCH   1  21
TORSDOF 9
ENDMDL
MODEL 7
REMARK VINA RESULT:      -5.6      2.363      5.803
REMARK  9 active torsions:
REMARK  status: ('A' for Active; 'I' for Inactive)
REMARK    1  A    between atoms: C_2  and  C_11 
REMARK    2  A    between atoms: C_4  and  C_5 
REMARK    3  A    between atoms: C_4  and  C_21 
REMARK    4  A    between atoms: C_4  and  N_24 
REMARK       I    between atoms: C_5  and  N_6 
REMARK    5  A    between atoms: N_6  and  C_10 
REMARK    6  A    between atoms: C_9  and  C_10 
REMARK    7  A    between atoms: C_10  and  C_11 
REMARK       I    between atoms: N_17  and  C_18 
REMARK    8  A    between atoms: C_18  and  C_23 
REMARK    9  A    between atoms: C_21  and  C_23 
ROOT
HETATM    1  C           1     -36.061   0.223 -12.998  0.00  0.00     0.275 C 
ENDROOT
BRANCH   1   2
HETATM    2  C           1     -35.823  -1.148 -12.414  0.00  0.00     0.249 C 
HETATM    3  O           1     -36.622  -1.622 -11.641  0.00  0.00    -0.271 OA
HETATM    4  N           1     -34.703  -1.855 -12.761  0.00  0.00    -0.344 N 
HETATM    5  H           1     -34.034  -1.457 -13.408  0.00  0.00     0.163 HD
BRANCH   4   6
HETATM    6  C           1     -34.474  -3.172 -12.198  0.00  0.00     0.195 C 
BRANCH   6   7
HETATM    7  C           1     -33.794  -3.036 -10.859  0.00  0.00     0.197 C 
HETATM    8  O           1     -33.318  -1.935 -10.508  0.00  0.00    -0.646 OA
HETATM    9  O           1     -33.709  -4.024 -10.098  0.00  0.00    -0.646 OA
ENDBRANCH   6   7
BRANCH   6  10
HETATM   10  C           1     -33.587  -3.977 -13.140  0.00  0.00     0.149 C 
BRANCH  10  11
HETATM   11  C           1     -34.395  -4.420 -14.335  0.00  0.00     0.175 C 
HETATM   12  O           1     -35.159  -5.405 -14.244  0.00  0.00    -0.648 OA
HETATM   13  O           1     -34.300  -3.800 -15.417  0.00  0.00    -0.648 OA
ENDBRANCH  10  11
ENDBRANCH   6  10
ENDBRANCH   4   6
ENDBRANCH   1   2
BRANCH   1  14
HETATM   14  C           1     -36.971   0.107 -14.214  0.00  0.00     0.052 C 
BRANCH  14  15
HETATM   15  C           1     -36.216   0.550 -15.459  0.00  0.00     0.105 C 
BRANCH  15  16
HETATM   16  C           1     -36.126  -0.600 -16.431  0.00  0.00     0.215 C 
HETATM   17  O           1     -37.077  -0.885 -17.120  0.00  0.00    -0.274 OA
HETATM   18  N           1     -34.967  -1.322 -16.532  0.00  0.00    -0.370 N 
HETATM   19  H           1     -34.907  -2.095 -17.183  0.00  0.00     0.159 HD
HETATM   20  H           1     -34.171  -1.085 -15.955  0.00  0.00     0.159 HD
ENDBRANCH  15  16
ENDBRANCH  14  15
ENDBRANCH   1  14
BRANCH   1  21
HETATM   21  N           1     -34.750   0.824 -13.412  0.00  0.00    -0.066 N 
HETATM   22  H           1     -34.169   0.097 -13.889  0.00  0.00     0.275 HD
HETATM   23  H           1     -34.244   1.174 -12.568  0.00  0.00     0.275 HD
HETATM   24  H           1     -34.923   1.618 -14.069  0.00  0.00     0.275 HD
ENDBRANCH   1  21
TORSDOF 9
ENDMDL
MODEL 8
REMARK VINA RESULT:      -5.5     12.247     13.948
REMARK  9 active torsions:
REMARK  status: ('A' for Active; 'I' for Inactive)
REMARK    1  A    between atoms: C_2  and  C_11 
REMARK    2  A    between atoms: C_4  and  C_5 
REMARK    3  A    between atoms: C_4  and  C_21 
REMARK    4  A    between atoms: C_4  and  N_24 
REMARK       I    between atoms: C_5  and  N_6 
REMARK    5  A    between atoms: N_6  and  C_10 
REMARK    6  A    between atoms: C_9  and  C_10 
REMARK    7  A    between atoms: C_10  and  C_11 
REMARK       I    between atoms: N_17  and  C_18 
REMARK    8  A    between atoms: C_18  and  C_23 
REMARK    9  A    between atoms: C_21  and  C_23 
ROOT
HETATM    1  C           1     -20.982  -5.449  -7.216  0.00  0.00     0.275 C 
ENDROOT
BRANCH   1   2
HETATM    2  C           1     -21.698  -4.471  -8.115  0.00  0.00     0.249 C 
HETATM    3  O           1     -21.794  -3.311  -7.792  0.00  0.00    -0.271 OA
HETATM    4  N           1     -22.239  -4.899  -9.299  0.00  0.00    -0.344 N 
HETATM    5  H           1     -22.159  -5.871  -9.570  0.00  0.00     0.163 HD
BRANCH   4   6
HETATM    6  C           1     -22.928  -3.960 -10.162  0.00  0.00     0.195 C 
BRANCH   6   7
HETATM    7  C           1     -24.392  -3.923  -9.800  0.00  0.00     0.197 C 
HETATM    8  O           1     -25.054  -4.982  -9.763  0.00  0.00    -0.646 OA
HETATM    9  O           1     -24.943  -2.833  -9.532  0.00  0.00    -0.646 OA
ENDBRANCH   6   7
BRANCH   6  10
HETATM   10  C           1     -22.774  -4.399 -11.613  0.00  0.00     0.149 C 
BRANCH  10  11
HETATM   11  C           1     -23.401  -3.368 -12.520  0.00  0.00     0.175 C 
HETATM   12  O           1     -24.304  -3.703 -13.317  0.00  0.00    -0.648 OA
HETATM   13  O           1     -23.018  -2.179 -12.473  0.00  0.00    -0.648 OA
ENDBRANCH  10  11
ENDBRANCH   6  10
ENDBRANCH   4   6
ENDBRANCH   1   2
BRANCH   1  14
HETATM   14  C           1     -21.791  -5.656  -5.943  0.00  0.00     0.052 C 
BRANCH  14  15
HETATM   15  C           1     -20.851  -5.714  -4.747  0.00  0.00     0.105 C 
BRANCH  15  16
HETATM   16  C           1     -21.503  -6.492  -3.631  0.00  0.00     0.215 C 
HETATM   17  O           1     -22.409  -6.000  -3.000  0.00  0.00    -0.274 OA
HETATM   18  N           1     -21.068  -7.755  -3.332  0.00  0.00    -0.370 N 
HETATM   19  H           1     -21.505  -8.277  -2.582  0.00  0.00     0.159 HD
HETATM   20  H           1     -20.309  -8.167  -3.858  0.00  0.00     0.159 HD
ENDBRANCH  15  16
ENDBRANCH  14  15
ENDBRANCH   1  14
BRANCH   1  21
HETATM   21  N           1     -19.629  -4.905  -6.864  0.00  0.00    -0.066 N 
HETATM   22  H           1     -19.287  -4.292  -7.640  0.00  0.00     0.275 HD
HETATM   23  H           1     -18.960  -5.695  -6.725  0.00  0.00     0.275 HD
HETATM   24  H           1     -19.696  -4.346  -5.984  0.00  0.00     0.275 HD
ENDBRANCH   1  21
TORSDOF 9
ENDMDL
MODEL 9
REMARK VINA RESULT:      -5.3     13.347     15.866
REMARK  9 active torsions:
REMARK  status: ('A' for Active; 'I' for Inactive)
REMARK    1  A    between atoms: C_2  and  C_11 
REMARK    2  A    between atoms: C_4  and  C_5 
REMARK    3  A    between atoms: C_4  and  C_21 
REMARK    4  A    between atoms: C_4  and  N_24 
REMARK       I    between atoms: C_5  and  N_6 
REMARK    5  A    between atoms: N_6  and  C_10 
REMARK    6  A    between atoms: C_9  and  C_10 
REMARK    7  A    between atoms: C_10  and  C_11 
REMARK       I    between atoms: N_17  and  C_18 
REMARK    8  A    between atoms: C_18  and  C_23 
REMARK    9  A    between atoms: C_21  and  C_23 
ROOT
HETATM    1  C           1     -21.081  -3.870  -7.881  0.00  0.00     0.275 C 
ENDROOT
BRANCH   1   2
HETATM    2  C           1     -20.648  -4.721  -6.713  0.00  0.00     0.249 C 
HETATM    3  O           1     -19.559  -4.556  -6.216  0.00  0.00    -0.271 OA
HETATM    4  N           1     -21.491  -5.679  -6.214  0.00  0.00    -0.344 N 
HETATM    5  H           1     -22.403  -5.817  -6.631  0.00  0.00     0.163 HD
BRANCH   4   6
HETATM    6  C           1     -21.074  -6.497  -5.092  0.00  0.00     0.195 C 
BRANCH   6   7
HETATM    7  C           1     -20.557  -7.821  -5.598  0.00  0.00     0.197 C 
HETATM    8  O           1     -21.353  -8.755  -5.832  0.00  0.00    -0.646 OA
HETATM    9  O           1     -19.332  -7.983  -5.785  0.00  0.00    -0.646 OA
ENDBRANCH   6   7
BRANCH   6  10
HETATM   10  C           1     -22.264  -6.735  -4.170  0.00  0.00     0.149 C 
BRANCH  10  11
HETATM   11  C           1     -21.827  -6.576  -2.734  0.00  0.00     0.175 C 
HETATM   12  O           1     -22.462  -5.820  -1.967  0.00  0.00    -0.648 OA
HETATM   13  O           1     -20.830  -7.200  -2.312  0.00  0.00    -0.648 OA
ENDBRANCH  10  11
ENDBRANCH   6  10
ENDBRANCH   4   6
ENDBRANCH   1   2
BRANCH   1  14
HETATM   14  C           1     -22.515  -4.217  -8.259  0.00  0.00     0.052 C 
BRANCH  14  15
HETATM   15  C           1     -22.678  -4.129  -9.770  0.00  0.00     0.105 C 
BRANCH  15  16
HETATM   16  C           1     -24.117  -3.820 -10.105  0.00  0.00     0.215 C 
HETATM   17  O           1     -24.379  -2.941 -10.891  0.00  0.00    -0.274 OA
HETATM   18  N           1     -25.125  -4.536  -9.518  0.00  0.00    -0.370 N 
HETATM   19  H           1     -26.090  -4.328  -9.742  0.00  0.00     0.159 HD
HETATM   20  H           1     -24.906  -5.271  -8.859  0.00  0.00     0.159 HD
ENDBRANCH  15  16
ENDBRANCH  14  15
ENDBRANCH   1  14
BRANCH   1  21
HETATM   21  N           1     -20.180  -4.133  -9.051  0.00  0.00    -0.066 N 
HETATM   22  H           1     -19.418  -3.417  -9.073  0.00  0.00     0.275 HD
HETATM   23  H           1     -20.732  -4.079  -9.937  0.00  0.00     0.275 HD
HETATM   24  H           1     -19.760  -5.085  -8.960  0.00  0.00     0.275 HD
ENDBRANCH   1  21
TORSDOF 9
ENDMDL
