MODEL 1
REMARK VINA RESULT:      -6.3      0.000      0.000
REMARK  10 active torsions:
REMARK  status: ('A' for Active; 'I' for Inactive)
REMARK    1  A    between atoms: C_2  and  C_4 
REMARK    2  A    between atoms: C_4  and  C_5 
REMARK    3  A    between atoms: C_5  and  C_6 
REMARK    4  A    between atoms: C_5  and  N_9 
REMARK       I    between atoms: N_9  and  C_10 
REMARK    5  A    between atoms: C_10  and  C_11 
REMARK    6  A    between atoms: C_11  and  C_12 
REMARK    7  A    between atoms: C_11  and  N_18 
REMARK    8  A    between atoms: C_12  and  O_13 
REMARK    9  A    between atoms: O_13  and  P_14 
REMARK   10  A    between atoms: P_14  and  O_15 
ROOT
HETATM    1  N           1     -35.449  -1.918 -11.970  0.00  0.00    -0.345 N 
HETATM    2  C           1     -34.207  -2.268 -11.513  0.00  0.00     0.251 C 
HETATM    3  O           1     -33.509  -1.444 -10.969  0.00  0.00    -0.271 OA
HETATM    4  H           1     -36.034  -2.606 -12.425  0.00  0.00     0.163 HD
ENDROOT
BRANCH   2   5
HETATM    5  C           1     -33.709  -3.681 -11.688  0.00  0.00     0.298 C 
BRANCH   5   6
HETATM    6  C           1     -34.313  -4.280 -12.952  0.00  0.00     0.224 C 
BRANCH   6   7
HETATM    7  O           1     -34.284  -3.329 -13.981  0.00  0.00    -0.287 OA
BRANCH   7   8
HETATM    8  P           1     -34.184  -3.913 -15.483  0.00  0.00     0.406 P 
HETATM    9  O           1     -32.765  -4.175 -15.817  0.00  0.00    -0.624 OA
HETATM   10  O           1     -34.742  -2.927 -16.435  0.00  0.00    -0.624 OA
BRANCH   8  11
HETATM   11  O           1     -35.021  -5.290 -15.582  0.00  0.00    -0.300 OA
HETATM   12  H           1     -34.442  -5.898 -16.010  0.00  0.00     0.223 HD
ENDBRANCH   8  11
ENDBRANCH   7   8
ENDBRANCH   6   7
ENDBRANCH   5   6
BRANCH   5  13
HETATM   13  N           1     -34.117  -4.505 -10.502  0.00  0.00    -0.064 N 
HETATM   14  H           1     -35.024  -4.149 -10.125  0.00  0.00     0.275 HD
HETATM   15  H           1     -34.229  -5.502 -10.794  0.00  0.00     0.275 HD
HETATM   16  H           1     -33.381  -4.438  -9.763  0.00  0.00     0.275 HD
ENDBRANCH   5  13
ENDBRANCH   2   5
BRANCH   1  17
HETATM   17  C           1     -35.927  -0.558 -11.801  0.00  0.00     0.185 C 
BRANCH  17  18
HETATM   18  C           1     -36.625  -0.105 -13.076  0.00  0.00     0.040 C 
BRANCH  18  19
HETATM   19  C           1     -35.602   0.020 -14.198  0.00  0.00    -0.020 C 
HETATM   20  C           1     -36.321   0.298 -15.511  0.00  0.00     0.009 C 
HETATM   21  C           1     -34.647   1.165 -13.888  0.00  0.00     0.009 C 
ENDBRANCH  18  19
ENDBRANCH  17  18
BRANCH  17  22
HETATM   22  C           1     -36.901  -0.509 -10.649  0.00  0.00     0.196 C 
HETATM   23  O           1     -36.533  -0.070  -9.538  0.00  0.00    -0.646 OA
HETATM   24  O           1     -38.075  -0.907 -10.806  0.00  0.00    -0.646 OA
ENDBRANCH  17  22
ENDBRANCH   1  17
TORSDOF 10
ENDMDL
MODEL 2
REMARK VINA RESULT:      -6.0      2.384      5.189
REMARK  10 active torsions:
REMARK  status: ('A' for Active; 'I' for Inactive)
REMARK    1  A    between atoms: C_2  and  C_4 
REMARK    2  A    between atoms: C_4  and  C_5 
REMARK    3  A    between atoms: C_5  and  C_6 
REMARK    4  A    between atoms: C_5  and  N_9 
REMARK       I    between atoms: N_9  and  C_10 
REMARK    5  A    between atoms: C_10  and  C_11 
REMARK    6  A    between atoms: C_11  and  C_12 
REMARK    7  A    between atoms: C_11  and  N_18 
REMARK    8  A    between atoms: C_12  and  O_13 
REMARK    9  A    between atoms: O_13  and  P_14 
REMARK   10  A    between atoms: P_14  and  O_15 
ROOT
HETATM    1  N           1     -34.582  -2.027 -12.862  0.00  0.00    -0.345 N 
HETATM    2  C           1     -35.667  -1.614 -12.136  0.00  0.00     0.251 C 
HETATM    3  O           1     -36.270  -2.405 -11.450  0.00  0.00    -0.271 OA
HETATM    4  H           1     -34.077  -1.365 -13.437  0.00  0.00     0.163 HD
ENDROOT
BRANCH   2   5
HETATM    5  C           1     -36.110  -0.174 -12.195  0.00  0.00     0.298 C 
BRANCH   5   6
HETATM    6  C           1     -37.152  -0.006 -13.293  0.00  0.00     0.224 C 
BRANCH   6   7
HETATM    7  O           1     -36.835  -0.843 -14.371  0.00  0.00    -0.287 OA
BRANCH   7   8
HETATM    8  P           1     -36.136  -0.129 -15.640  0.00  0.00     0.406 P 
HETATM    9  O           1     -36.467  -0.879 -16.872  0.00  0.00    -0.624 OA
HETATM   10  O           1     -34.669  -0.112 -15.451  0.00  0.00    -0.624 OA
BRANCH   8  11
HETATM   11  O           1     -36.679   1.386 -15.772  0.00  0.00    -0.300 OA
HETATM   12  H           1     -36.051   1.911 -15.305  0.00  0.00     0.223 HD
ENDBRANCH   8  11
ENDBRANCH   7   8
ENDBRANCH   6   7
ENDBRANCH   5   6
BRANCH   5  13
HETATM   13  N           1     -34.928   0.701 -12.491  0.00  0.00    -0.064 N 
HETATM   14  H           1     -34.050   0.209 -12.209  0.00  0.00     0.275 HD
HETATM   15  H           1     -34.897   0.907 -13.516  0.00  0.00     0.275 HD
HETATM   16  H           1     -35.014   1.595 -11.957  0.00  0.00     0.275 HD
ENDBRANCH   5  13
ENDBRANCH   2   5
BRANCH   1  17
HETATM   17  C           1     -34.156  -3.412 -12.806  0.00  0.00     0.185 C 
BRANCH  17  18
HETATM   18  C           1     -34.827  -4.102 -11.626  0.00  0.00     0.040 C 
BRANCH  18  19
HETATM   19  C           1     -33.783  -4.864 -10.822  0.00  0.00    -0.020 C 
HETATM   20  C           1     -34.297  -6.266 -10.522  0.00  0.00     0.009 C 
HETATM   21  C           1     -32.492  -4.957 -11.626  0.00  0.00     0.009 C 
ENDBRANCH  18  19
ENDBRANCH  17  18
BRANCH  17  22
HETATM   22  C           1     -34.546  -4.110 -14.086  0.00  0.00     0.196 C 
HETATM   23  O           1     -34.342  -3.555 -15.187  0.00  0.00    -0.646 OA
HETATM   24  O           1     -35.074  -5.242 -14.045  0.00  0.00    -0.646 OA
ENDBRANCH  17  22
ENDBRANCH   1  17
TORSDOF 10
ENDMDL
MODEL 3
REMARK VINA RESULT:      -5.9      2.717      3.358
REMARK  10 active torsions:
REMARK  status: ('A' for Active; 'I' for Inactive)
REMARK    1  A    between atoms: C_2  and  C_4 
REMARK    2  A    between atoms: C_4  and  C_5 
REMARK    3  A    between atoms: C_5  and  C_6 
REMARK    4  A    between atoms: C_5  and  N_9 
REMARK       I    between atoms: N_9  and  C_10 
REMARK    5  A    between atoms: C_10  and  C_11 
REMARK    6  A    between atoms: C_11  and  C_12 
REMARK    7  A    between atoms: C_11  and  N_18 
REMARK    8  A    between atoms: C_12  and  O_13 
REMARK    9  A    between atoms: O_13  and  P_14 
REMARK   10  A    between atoms: P_14  and  O_15 
ROOT
HETATM    1  N           1     -35.786  -1.786 -12.596  0.00  0.00    -0.345 N 
HETATM    2  C           1     -34.652  -2.287 -12.015  0.00  0.00     0.251 C 
HETATM    3  O           1     -33.903  -1.549 -11.418  0.00  0.00    -0.271 OA
HETATM    4  H           1     -36.413  -2.403 -13.096  0.00  0.00     0.163 HD
ENDROOT
BRANCH   2   5
HETATM    5  C           1     -34.336  -3.758 -12.122  0.00  0.00     0.298 C 
BRANCH   5   6
HETATM    6  C           1     -33.485  -4.182 -10.932  0.00  0.00     0.224 C 
BRANCH   6   7
HETATM    7  O           1     -34.229  -5.035 -10.105  0.00  0.00    -0.287 OA
BRANCH   7   8
HETATM    8  P           1     -34.358  -6.567 -10.599  0.00  0.00     0.406 P 
HETATM    9  O           1     -35.119  -6.613 -11.867  0.00  0.00    -0.624 OA
HETATM   10  O           1     -35.065  -7.360  -9.569  0.00  0.00    -0.624 OA
BRANCH   8  11
HETATM   11  O           1     -32.884  -7.183 -10.834  0.00  0.00    -0.300 OA
HETATM   12  H           1     -32.405  -6.506 -11.282  0.00  0.00     0.223 HD
ENDBRANCH   8  11
ENDBRANCH   7   8
ENDBRANCH   6   7
ENDBRANCH   5   6
BRANCH   5  13
HETATM   13  N           1     -33.580  -4.016 -13.392  0.00  0.00    -0.064 N 
HETATM   14  H           1     -32.553  -3.959 -13.205  0.00  0.00     0.275 HD
HETATM   15  H           1     -33.816  -4.969 -13.749  0.00  0.00     0.275 HD
HETATM   16  H           1     -33.844  -3.300 -14.106  0.00  0.00     0.275 HD
ENDBRANCH   5  13
ENDBRANCH   2   5
BRANCH   1  17
HETATM   17  C           1     -36.090  -0.371 -12.494  0.00  0.00     0.185 C 
BRANCH  17  18
HETATM   18  C           1     -36.867   0.070 -13.727  0.00  0.00     0.040 C 
BRANCH  18  19
HETATM   19  C           1     -35.911   0.697 -14.733  0.00  0.00    -0.020 C 
HETATM   20  C           1     -34.645   1.148 -14.016  0.00  0.00     0.009 C 
HETATM   21  C           1     -35.552  -0.330 -15.799  0.00  0.00     0.009 C 
ENDBRANCH  18  19
ENDBRANCH  17  18
BRANCH  17  22
HETATM   22  C           1     -36.921  -0.125 -11.259  0.00  0.00     0.196 C 
HETATM   23  O           1     -38.023  -0.698 -11.122  0.00  0.00    -0.646 OA
HETATM   24  O           1     -36.507   0.654 -10.373  0.00  0.00    -0.646 OA
ENDBRANCH  17  22
ENDBRANCH   1  17
TORSDOF 10
ENDMDL
MODEL 4
REMARK VINA RESULT:      -5.8      1.662      3.099
REMARK  10 active torsions:
REMARK  status: ('A' for Active; 'I' for Inactive)
REMARK    1  A    between atoms: C_2  and  C_4 
REMARK    2  A    between atoms: C_4  and  C_5 
REMARK    3  A    between atoms: C_5  and  C_6 
REMARK    4  A    between atoms: C_5  and  N_9 
REMARK       I    between atoms: N_9  and  C_10 
REMARK    5  A    between atoms: C_10  and  C_11 
REMARK    6  A    between atoms: C_11  and  C_12 
REMARK    7  A    between atoms: C_11  and  N_18 
REMARK    8  A    between atoms: C_12  and  O_13 
REMARK    9  A    between atoms: O_13  and  P_14 
REMARK   10  A    between atoms: P_14  and  O_15 
ROOT
HETATM    1  N           1     -35.284  -1.405 -11.918  0.00  0.00    -0.345 N 
HETATM    2  C           1     -35.142  -2.691 -11.474  0.00  0.00     0.251 C 
HETATM    3  O           1     -36.100  -3.293 -11.047  0.00  0.00    -0.271 OA
HETATM    4  H           1     -34.483  -0.900 -12.275  0.00  0.00     0.163 HD
ENDROOT
BRANCH   2   5
HETATM    5  C           1     -33.790  -3.359 -11.516  0.00  0.00     0.298 C 
BRANCH   5   6
HETATM    6  C           1     -33.601  -4.041 -12.864  0.00  0.00     0.224 C 
BRANCH   6   7
HETATM    7  O           1     -34.351  -3.369 -13.839  0.00  0.00    -0.287 OA
BRANCH   7   8
HETATM    8  P           1     -34.275  -3.975 -15.334  0.00  0.00     0.406 P 
HETATM    9  O           1     -34.737  -2.956 -16.303  0.00  0.00    -0.624 OA
HETATM   10  O           1     -35.140  -5.172 -15.426  0.00  0.00    -0.624 OA
BRANCH   8  11
HETATM   11  O           1     -32.750  -4.385 -15.672  0.00  0.00    -0.300 OA
HETATM   12  H           1     -32.240  -3.621 -15.461  0.00  0.00     0.223 HD
ENDBRANCH   8  11
ENDBRANCH   7   8
ENDBRANCH   6   7
ENDBRANCH   5   6
BRANCH   5  13
HETATM   13  N           1     -33.704  -4.383 -10.422  0.00  0.00    -0.064 N 
HETATM   14  H           1     -33.259  -3.955  -9.579  0.00  0.00     0.275 HD
HETATM   15  H           1     -34.665  -4.712 -10.179  0.00  0.00     0.275 HD
HETATM   16  H           1     -33.128  -5.192 -10.748  0.00  0.00     0.275 HD
ENDBRANCH   5  13
ENDBRANCH   2   5
BRANCH   1  17
HETATM   17  C           1     -36.585  -0.763 -11.877  0.00  0.00     0.185 C 
BRANCH  17  18
HETATM   18  C           1     -36.535   0.423 -10.923  0.00  0.00     0.040 C 
BRANCH  18  19
HETATM   19  C           1     -37.507   0.192  -9.774  0.00  0.00    -0.020 C 
HETATM   20  C           1     -36.774  -0.475  -8.617  0.00  0.00     0.009 C 
HETATM   21  C           1     -38.075   1.528  -9.313  0.00  0.00     0.009 C 
ENDBRANCH  18  19
ENDBRANCH  17  18
BRANCH  17  22
HETATM   22  C           1     -36.951  -0.282 -13.260  0.00  0.00     0.196 C 
HETATM   23  O           1     -38.024  -0.648 -13.786  0.00  0.00    -0.646 OA
HETATM   24  O           1     -36.180   0.481 -13.881  0.00  0.00    -0.646 OA
ENDBRANCH  17  22
ENDBRANCH   1  17
TORSDOF 10
ENDMDL
MODEL 5
REMARK VINA RESULT:      -5.7     14.046     16.377
REMARK  10 active torsions:
REMARK  status: ('A' for Active; 'I' for Inactive)
REMARK    1  A    between atoms: C_2  and  C_4 
REMARK    2  A    between atoms: C_4  and  C_5 
REMARK    3  A    between atoms: C_5  and  C_6 
REMARK    4  A    between atoms: C_5  and  N_9 
REMARK       I    between atoms: N_9  and  C_10 
REMARK    5  A    between atoms: C_10  and  C_11 
REMARK    6  A    between atoms: C_11  and  C_12 
REMARK    7  A    between atoms: C_11  and  N_18 
REMARK    8  A    between atoms: C_12  and  O_13 
REMARK    9  A    between atoms: O_13  and  P_14 
REMARK   10  A    between atoms: P_14  and  O_15 
ROOT
HETATM    1  N           1     -20.691  -6.219  -6.200  0.00  0.00    -0.345 N 
HETATM    2  C           1     -20.414  -4.881  -6.123  0.00  0.00     0.251 C 
HETATM    3  O           1     -19.964  -4.415  -5.102  0.00  0.00    -0.271 OA
HETATM    4  H           1     -21.068  -6.610  -7.054  0.00  0.00     0.163 HD
ENDROOT
BRANCH   2   5
HETATM    5  C           1     -20.670  -3.988  -7.311  0.00  0.00     0.298 C 
BRANCH   5   6
HETATM    6  C           1     -22.010  -4.350  -7.940  0.00  0.00     0.224 C 
BRANCH   6   7
HETATM    7  O           1     -22.141  -3.696  -9.172  0.00  0.00    -0.287 OA
BRANCH   7   8
HETATM    8  P           1     -23.573  -3.843  -9.904  0.00  0.00     0.406 P 
HETATM    9  O           1     -23.794  -5.258 -10.274  0.00  0.00    -0.624 OA
HETATM   10  O           1     -23.593  -3.004 -11.123  0.00  0.00    -0.624 OA
BRANCH   8  11
HETATM   11  O           1     -24.742  -3.361  -8.900  0.00  0.00    -0.300 OA
HETATM   12  H           1     -24.292  -2.992  -8.159  0.00  0.00     0.223 HD
ENDBRANCH   8  11
ENDBRANCH   7   8
ENDBRANCH   6   7
ENDBRANCH   5   6
BRANCH   5  13
HETATM   13  N           1     -19.578  -4.176  -8.322  0.00  0.00    -0.064 N 
HETATM   14  H           1     -19.778  -3.591  -9.165  0.00  0.00     0.275 HD
HETATM   15  H           1     -18.665  -3.883  -7.906  0.00  0.00     0.275 HD
HETATM   16  H           1     -19.530  -5.182  -8.600  0.00  0.00     0.275 HD
ENDBRANCH   5  13
ENDBRANCH   2   5
BRANCH   1  17
HETATM   17  C           1     -20.445  -7.079  -5.057  0.00  0.00     0.185 C 
BRANCH  17  18
HETATM   18  C           1     -21.664  -7.071  -4.145  0.00  0.00     0.040 C 
BRANCH  18  19
HETATM   19  C           1     -21.213  -6.980  -2.694  0.00  0.00    -0.020 C 
HETATM   20  C           1     -22.224  -6.166  -1.898  0.00  0.00     0.009 C 
HETATM   21  C           1     -21.113  -8.382  -2.105  0.00  0.00     0.009 C 
ENDBRANCH  18  19
ENDBRANCH  17  18
BRANCH  17  22
HETATM   22  C           1     -20.181  -8.486  -5.535  0.00  0.00     0.196 C 
HETATM   23  O           1     -19.006  -8.884  -5.685  0.00  0.00    -0.646 OA
HETATM   24  O           1     -21.137  -9.251  -5.781  0.00  0.00    -0.646 OA
ENDBRANCH  17  22
ENDBRANCH   1  17
TORSDOF 10
ENDMDL
MODEL 6
REMARK VINA RESULT:      -5.5     17.446     18.739
REMARK  10 active torsions:
REMARK  status: ('A' for Active; 'I' for Inactive)
REMARK    1  A    between atoms: C_2  and  C_4 
REMARK    2  A    between atoms: C_4  and  C_5 
REMARK    3  A    between atoms: C_5  and  C_6 
REMARK    4  A    between atoms: C_5  and  N_9 
REMARK       I    between atoms: N_9  and  C_10 
REMARK    5  A    between atoms: C_10  and  C_11 
REMARK    6  A    between atoms: C_11  and  C_12 
REMARK    7  A    between atoms: C_11  and  N_18 
REMARK    8  A    between atoms: C_12  and  O_13 
REMARK    9  A    between atoms: O_13  and  P_14 
REMARK   10  A    between atoms: P_14  and  O_15 
ROOT
HETATM    1  N           1     -21.188  -9.184  -2.022  0.00  0.00    -0.345 N 
HETATM    2  C           1     -21.430  -9.714  -3.261  0.00  0.00     0.251 C 
HETATM    3  O           1     -22.496 -10.232  -3.499  0.00  0.00    -0.271 OA
HETATM    4  H           1     -20.296  -8.750  -1.822  0.00  0.00     0.163 HD
ENDROOT
BRANCH   2   5
HETATM    5  C           1     -20.367  -9.650  -4.329  0.00  0.00     0.298 C 
BRANCH   5   6
HETATM    6  C           1     -19.813  -8.234  -4.412  0.00  0.00     0.224 C 
BRANCH   6   7
HETATM    7  O           1     -20.821  -7.317  -4.087  0.00  0.00    -0.287 OA
BRANCH   7   8
HETATM    8  P           1     -21.303  -6.341  -5.280  0.00  0.00     0.406 P 
HETATM    9  O           1     -22.751  -6.068  -5.139  0.00  0.00    -0.624 OA
HETATM   10  O           1     -21.048  -6.993  -6.584  0.00  0.00    -0.624 OA
BRANCH   8  11
HETATM   11  O           1     -20.485  -4.952  -5.204  0.00  0.00    -0.300 OA
HETATM   12  H           1     -19.593  -5.203  -5.034  0.00  0.00     0.223 HD
ENDBRANCH   8  11
ENDBRANCH   7   8
ENDBRANCH   6   7
ENDBRANCH   5   6
BRANCH   5  13
HETATM   13  N           1     -20.964 -10.030  -5.652  0.00  0.00    -0.064 N 
HETATM   14  H           1     -20.360  -9.670  -6.425  0.00  0.00     0.275 HD
HETATM   15  H           1     -21.029 -11.071  -5.718  0.00  0.00     0.275 HD
HETATM   16  H           1     -21.920  -9.615  -5.735  0.00  0.00     0.275 HD
ENDBRANCH   5  13
ENDBRANCH   2   5
BRANCH   1  17
HETATM   17  C           1     -22.210  -9.245  -0.995  0.00  0.00     0.185 C 
BRANCH  17  18
HETATM   18  C           1     -21.855 -10.333   0.010  0.00  0.00     0.040 C 
BRANCH  18  19
HETATM   19  C           1     -22.721 -11.560  -0.242  0.00  0.00    -0.020 C 
HETATM   20  C           1     -22.519 -12.564   0.885  0.00  0.00     0.009 C 
HETATM   21  C           1     -24.185 -11.145  -0.297  0.00  0.00     0.009 C 
ENDBRANCH  18  19
ENDBRANCH  17  18
BRANCH  17  22
HETATM   22  C           1     -22.292  -7.914  -0.289  0.00  0.00     0.196 C 
HETATM   23  O           1     -22.687  -6.902  -0.907  0.00  0.00    -0.646 OA
HETATM   24  O           1     -21.965  -7.824   0.914  0.00  0.00    -0.646 OA
ENDBRANCH  17  22
ENDBRANCH   1  17
TORSDOF 10
ENDMDL
MODEL 7
REMARK VINA RESULT:      -5.4      3.446      4.537
REMARK  10 active torsions:
REMARK  status: ('A' for Active; 'I' for Inactive)
REMARK    1  A    between atoms: C_2  and  C_4 
REMARK    2  A    between atoms: C_4  and  C_5 
REMARK    3  A    between atoms: C_5  and  C_6 
REMARK    4  A    between atoms: C_5  and  N_9 
REMARK       I    between atoms: N_9  and  C_10 
REMARK    5  A    between atoms: C_10  and  C_11 
REMARK    6  A    between atoms: C_11  and  C_12 
REMARK    7  A    between atoms: C_11  and  N_18 
REMARK    8  A    between atoms: C_12  and  O_13 
REMARK    9  A    between atoms: O_13  and  P_14 
REMARK   10  A    between atoms: P_14  and  O_15 
ROOT
HETATM    1  N           1     -34.487  -2.491 -13.153  0.00  0.00    -0.345 N 
HETATM    2  C           1     -34.760  -3.463 -12.229  0.00  0.00     0.251 C 
HETATM    3  O           1     -35.722  -3.356 -11.505  0.00  0.00    -0.271 OA
HETATM    4  H           1     -33.682  -2.581 -13.759  0.00  0.00     0.163 HD
ENDROOT
BRANCH   2   5
HETATM    5  C           1     -33.860  -4.668 -12.114  0.00  0.00     0.298 C 
BRANCH   5   6
HETATM    6  C           1     -33.913  -5.208 -10.690  0.00  0.00     0.224 C 
BRANCH   6   7
HETATM    7  O           1     -33.401  -6.513 -10.665  0.00  0.00    -0.287 OA
BRANCH   7   8
HETATM    8  P           1     -34.434  -7.670 -10.216  0.00  0.00     0.406 P 
HETATM    9  O           1     -35.447  -7.099  -9.300  0.00  0.00    -0.624 OA
HETATM   10  O           1     -33.694  -8.749  -9.524  0.00  0.00    -0.624 OA
BRANCH   8  11
HETATM   11  O           1     -35.168  -8.273 -11.521  0.00  0.00    -0.300 OA
HETATM   12  H           1     -35.925  -7.726 -11.650  0.00  0.00     0.223 HD
ENDBRANCH   8  11
ENDBRANCH   7   8
ENDBRANCH   6   7
ENDBRANCH   5   6
BRANCH   5  13
HETATM   13  N           1     -32.451  -4.273 -12.445  0.00  0.00    -0.064 N 
HETATM   14  H           1     -32.086  -4.889 -13.207  0.00  0.00     0.275 HD
HETATM   15  H           1     -32.435  -3.279 -12.765  0.00  0.00     0.275 HD
HETATM   16  H           1     -31.851  -4.377 -11.595  0.00  0.00     0.275 HD
ENDBRANCH   5  13
ENDBRANCH   2   5
BRANCH   1  17
HETATM   17  C           1     -35.353  -1.332 -13.264  0.00  0.00     0.185 C 
BRANCH  17  18
HETATM   18  C           1     -35.048  -0.362 -12.130  0.00  0.00     0.040 C 
BRANCH  18  19
HETATM   19  C           1     -36.353   0.141 -11.527  0.00  0.00    -0.020 C 
HETATM   20  C           1     -37.521  -0.327 -12.386  0.00  0.00     0.009 C 
HETATM   21  C           1     -36.506  -0.412 -10.116  0.00  0.00     0.009 C 
ENDBRANCH  18  19
ENDBRANCH  17  18
BRANCH  17  22
HETATM   22  C           1     -35.112  -0.651 -14.589  0.00  0.00     0.196 C 
HETATM   23  O           1     -35.437  -1.221 -15.652  0.00  0.00    -0.646 OA
HETATM   24  O           1     -34.587   0.483 -14.622  0.00  0.00    -0.646 OA
ENDBRANCH  17  22
ENDBRANCH   1  17
TORSDOF 10
ENDMDL
MODEL 8
REMARK VINA RESULT:      -5.4      8.662     10.976
REMARK  10 active torsions:
REMARK  status: ('A' for Active; 'I' for Inactive)
REMARK    1  A    between atoms: C_2  and  C_4 
REMARK    2  A    between atoms: C_4  and  C_5 
REMARK    3  A    between atoms: C_5  and  C_6 
REMARK    4  A    between atoms: C_5  and  N_9 
REMARK       I    between atoms: N_9  and  C_10 
REMARK    5  A    between atoms: C_10  and  C_11 
REMARK    6  A    between atoms: C_11  and  C_12 
REMARK    7  A    between atoms: C_11  and  N_18 
REMARK    8  A    between atoms: C_12  and  O_13 
REMARK    9  A    between atoms: O_13  and  P_14 
REMARK   10  A    between atoms: P_14  and  O_15 
ROOT
HETATM    1  N           1     -27.803  -6.740 -18.138  0.00  0.00    -0.345 N 
HETATM    2  C           1     -26.962  -6.486 -17.089  0.00  0.00     0.251 C 
HETATM    3  O           1     -27.402  -6.409 -15.966  0.00  0.00    -0.271 OA
HETATM    4  H           1     -27.435  -6.804 -19.078  0.00  0.00     0.163 HD
ENDROOT
BRANCH   2   5
HETATM    5  C           1     -25.485  -6.302 -17.334  0.00  0.00     0.298 C 
BRANCH   5   6
HETATM    6  C           1     -25.029  -7.252 -18.433  0.00  0.00     0.224 C 
BRANCH   6   7
HETATM    7  O           1     -25.402  -6.738 -19.682  0.00  0.00    -0.287 OA
BRANCH   7   8
HETATM    8  P           1     -24.995  -7.629 -20.966  0.00  0.00     0.406 P 
HETATM    9  O           1     -24.627  -6.737 -22.088  0.00  0.00    -0.624 OA
HETATM   10  O           1     -26.143  -8.475 -21.363  0.00  0.00    -0.624 OA
BRANCH   8  11
HETATM   11  O           1     -23.738  -8.570 -20.592  0.00  0.00    -0.300 OA
HETATM   12  H           1     -23.369  -8.186 -19.814  0.00  0.00     0.223 HD
ENDBRANCH   8  11
ENDBRANCH   7   8
ENDBRANCH   6   7
ENDBRANCH   5   6
BRANCH   5  13
HETATM   13  N           1     -24.728  -6.599 -16.072  0.00  0.00    -0.064 N 
HETATM   14  H           1     -25.258  -7.299 -15.505  0.00  0.00     0.275 HD
HETATM   15  H           1     -23.789  -6.988 -16.314  0.00  0.00     0.275 HD
HETATM   16  H           1     -24.612  -5.719 -15.521  0.00  0.00     0.275 HD
ENDBRANCH   5  13
ENDBRANCH   2   5
BRANCH   1  17
HETATM   17  C           1     -29.224  -6.917 -17.903  0.00  0.00     0.185 C 
BRANCH  17  18
HETATM   18  C           1     -29.944  -5.595 -18.133  0.00  0.00     0.040 C 
BRANCH  18  19
HETATM   19  C           1     -31.039  -5.425 -17.089  0.00  0.00    -0.020 C 
HETATM   20  C           1     -30.421  -5.448 -15.697  0.00  0.00     0.009 C 
HETATM   21  C           1     -31.747  -4.094 -17.308  0.00  0.00     0.009 C 
ENDBRANCH  18  19
ENDBRANCH  17  18
BRANCH  17  22
HETATM   22  C           1     -29.764  -7.958 -18.852  0.00  0.00     0.196 C 
HETATM   23  O           1     -28.983  -8.592 -19.594  0.00  0.00    -0.646 OA
HETATM   24  O           1     -30.992  -8.185 -18.897  0.00  0.00    -0.646 OA
ENDBRANCH  17  22
ENDBRANCH   1  17
TORSDOF 10
ENDMDL
MODEL 9
REMARK VINA RESULT:      -5.3     15.649     18.073
REMARK  10 active torsions:
REMARK  status: ('A' for Active; 'I' for Inactive)
REMARK    1  A    between atoms: C_2  and  C_4 
REMARK    2  A    between atoms: C_4  and  C_5 
REMARK    3  A    between atoms: C_5  and  C_6 
REMARK    4  A    between atoms: C_5  and  N_9 
REMARK       I    between atoms: N_9  and  C_10 
REMARK    5  A    between atoms: C_10  and  C_11 
REMARK    6  A    between atoms: C_11  and  C_12 
REMARK    7  A    between atoms: C_11  and  N_18 
REMARK    8  A    between atoms: C_12  and  O_13 
REMARK    9  A    between atoms: O_13  and  P_14 
REMARK   10  A    between atoms: P_14  and  O_15 
ROOT
HETATM    1  N           1     -21.386  -8.447  -3.386  0.00  0.00    -0.345 N 
HETATM    2  C           1     -21.384  -7.169  -3.875  0.00  0.00     0.251 C 
HETATM    3  O           1     -21.007  -6.256  -3.178  0.00  0.00    -0.271 OA
HETATM    4  H           1     -21.701  -9.212  -3.968  0.00  0.00     0.163 HD
ENDROOT
BRANCH   2   5
HETATM    5  C           1     -21.854  -6.899  -5.282  0.00  0.00     0.298 C 
BRANCH   5   6
HETATM    6  C           1     -20.759  -6.175  -6.054  0.00  0.00     0.224 C 
BRANCH   6   7
HETATM    7  O           1     -21.106  -6.112  -7.411  0.00  0.00    -0.287 OA
BRANCH   7   8
HETATM    8  P           1     -21.192  -4.633  -8.052  0.00  0.00     0.406 P 
HETATM    9  O           1     -21.481  -4.738  -9.500  0.00  0.00    -0.624 OA
HETATM   10  O           1     -19.902  -3.934  -7.855  0.00  0.00    -0.624 OA
BRANCH   8  11
HETATM   11  O           1     -22.371  -3.800  -7.328  0.00  0.00    -0.300 OA
HETATM   12  H           1     -22.468  -4.201  -6.481  0.00  0.00     0.223 HD
ENDBRANCH   8  11
ENDBRANCH   7   8
ENDBRANCH   6   7
ENDBRANCH   5   6
BRANCH   5  13
HETATM   13  N           1     -23.086  -6.042  -5.243  0.00  0.00    -0.064 N 
HETATM   14  H           1     -23.930  -6.636  -5.408  0.00  0.00     0.275 HD
HETATM   15  H           1     -23.161  -5.585  -4.306  0.00  0.00     0.275 HD
HETATM   16  H           1     -23.024  -5.310  -5.985  0.00  0.00     0.275 HD
ENDBRANCH   5  13
ENDBRANCH   2   5
BRANCH   1  17
HETATM   17  C           1     -20.934  -8.706  -2.031  0.00  0.00     0.185 C 
BRANCH  17  18
HETATM   18  C           1     -22.015  -9.464  -1.273  0.00  0.00     0.040 C 
BRANCH  18  19
HETATM   19  C           1     -22.390  -8.691  -0.016  0.00  0.00    -0.020 C 
HETATM   20  C           1     -21.285  -8.842   1.021  0.00  0.00     0.009 C 
HETATM   21  C           1     -22.566  -7.218  -0.360  0.00  0.00     0.009 C 
ENDBRANCH  18  19
ENDBRANCH  17  18
BRANCH  17  22
HETATM   22  C           1     -19.672  -9.534  -2.073  0.00  0.00     0.196 C 
HETATM   23  O           1     -19.644 -10.658  -1.528  0.00  0.00    -0.646 OA
HETATM   24  O           1     -18.656  -9.094  -2.652  0.00  0.00    -0.646 OA
ENDBRANCH  17  22
ENDBRANCH   1  17
TORSDOF 10
ENDMDL
