MODEL 1
REMARK VINA RESULT:      -7.1      0.000      0.000
REMARK  12 active torsions:
REMARK  status: ('A' for Active; 'I' for Inactive)
REMARK    1  A    between atoms: C_3  and  C_25 
REMARK    2  A    between atoms: C_3  and  C_12 
REMARK    3  A    between atoms: C_5  and  C_12 
REMARK    4  A    between atoms: C_5  and  C_21 
REMARK    5  A    between atoms: C_5  and  N_7 
REMARK       I    between atoms: N_7  and  C_8 
REMARK    6  A    between atoms: C_8  and  C_20 
REMARK    7  A    between atoms: C_10  and  C_26 
REMARK    8  A    between atoms: C_10  and  C_22 
REMARK    9  A    between atoms: C_17  and  C_22 
REMARK   10  A    between atoms: C_17  and  N_18 
REMARK   11  A    between atoms: N_19  and  C_20 
REMARK   12  A    between atoms: C_20  and  C_26 
ROOT
HETATM    1  O           1     -33.825  -1.752 -11.318  0.00  0.00    -0.271 OA
HETATM    2  N           1     -35.579  -1.709 -12.698  0.00  0.00    -0.345 N 
HETATM    3  C           1     -34.543  -2.355 -12.079  0.00  0.00     0.249 C 
HETATM    4  H           1     -36.181  -2.214 -13.335  0.00  0.00     0.163 HD
ENDROOT
BRANCH   3   5
HETATM    5  C           1     -34.300  -3.819 -12.346  0.00  0.00     0.274 C 
BRANCH   5   6
HETATM    6  N           1     -33.701  -3.985 -13.712  0.00  0.00    -0.067 N 
HETATM    7  H           1     -32.664  -3.863 -13.654  0.00  0.00     0.275 HD
HETATM    8  H           1     -34.101  -3.267 -14.357  0.00  0.00     0.275 HD
HETATM    9  H           1     -33.919  -4.940 -14.075  0.00  0.00     0.275 HD
ENDBRANCH   5   6
BRANCH   5  10
HETATM   10  C           1     -33.341  -4.375 -11.302  0.00  0.00     0.042 C 
BRANCH  10  11
HETATM   11  C           1     -34.107  -5.258 -10.327  0.00  0.00     0.004 C 
BRANCH  11  12
HETATM   12  C           1     -34.488  -6.563 -11.014  0.00  0.00     0.027 C 
BRANCH  12  13
HETATM   13  C           1     -34.626  -7.665  -9.972  0.00  0.00     0.229 C 
BRANCH  13  14
HETATM   14  N           1     -33.635  -8.753 -10.258  0.00  0.00    -0.079 N 
HETATM   15  H           1     -32.767  -8.590  -9.700  0.00  0.00     0.274 HD
HETATM   16  H           1     -34.049  -9.677  -9.997  0.00  0.00     0.274 HD
HETATM   17  H           1     -33.400  -8.751 -11.276  0.00  0.00     0.274 HD
ENDBRANCH  13  14
ENDBRANCH  12  13
ENDBRANCH  11  12
ENDBRANCH  10  11
ENDBRANCH   5  10
ENDBRANCH   3   5
BRANCH   2  18
HETATM   18  C           1     -35.814  -0.302 -12.440  0.00  0.00     0.186 C 
BRANCH  18  19
HETATM   19  C           1     -36.340   0.365 -13.705  0.00  0.00     0.046 C 
BRANCH  19  20
HETATM   20  C           1     -35.255   0.357 -14.773  0.00  0.00     0.116 C 
BRANCH  20  21
HETATM   21  C           1     -35.578  -0.690 -15.811  0.00  0.00     0.172 C 
HETATM   22  O           1     -36.288  -0.395 -16.797  0.00  0.00    -0.648 OA
HETATM   23  O           1     -35.137  -1.853 -15.684  0.00  0.00    -0.648 OA
ENDBRANCH  20  21
ENDBRANCH  19  20
ENDBRANCH  18  19
BRANCH  18  24
HETATM   24  C           1     -36.829  -0.156 -11.334  0.00  0.00     0.196 C 
HETATM   25  O           1     -37.931  -0.740 -11.415  0.00  0.00    -0.646 OA
HETATM   26  O           1     -36.568   0.548 -10.335  0.00  0.00    -0.646 OA
ENDBRANCH  18  24
ENDBRANCH   2  18
TORSDOF 12
ENDMDL
MODEL 2
REMARK VINA RESULT:      -6.6      1.495      3.549
REMARK  12 active torsions:
REMARK  status: ('A' for Active; 'I' for Inactive)
REMARK    1  A    between atoms: C_3  and  C_25 
REMARK    2  A    between atoms: C_3  and  C_12 
REMARK    3  A    between atoms: C_5  and  C_12 
REMARK    4  A    between atoms: C_5  and  C_21 
REMARK    5  A    between atoms: C_5  and  N_7 
REMARK       I    between atoms: N_7  and  C_8 
REMARK    6  A    between atoms: C_8  and  C_20 
REMARK    7  A    between atoms: C_10  and  C_26 
REMARK    8  A    between atoms: C_10  and  C_22 
REMARK    9  A    between atoms: C_17  and  C_22 
REMARK   10  A    between atoms: C_17  and  N_18 
REMARK   11  A    between atoms: N_19  and  C_20 
REMARK   12  A    between atoms: C_20  and  C_26 
ROOT
HETATM    1  O           1     -34.567  -3.011 -13.302  0.00  0.00    -0.271 OA
HETATM    2  N           1     -35.052  -1.074 -12.304  0.00  0.00    -0.345 N 
HETATM    3  C           1     -34.362  -2.254 -12.383  0.00  0.00     0.249 C 
HETATM    4  H           1     -34.881  -0.439 -11.535  0.00  0.00     0.163 HD
ENDROOT
BRANCH   3   5
HETATM    5  C           1     -33.348  -2.607 -11.325  0.00  0.00     0.274 C 
BRANCH   5   6
HETATM    6  N           1     -33.865  -2.193  -9.979  0.00  0.00    -0.067 N 
HETATM    7  H           1     -33.689  -2.958  -9.288  0.00  0.00     0.275 HD
HETATM    8  H           1     -34.892  -2.011 -10.042  0.00  0.00     0.275 HD
HETATM    9  H           1     -33.375  -1.324  -9.668  0.00  0.00     0.275 HD
ENDBRANCH   5   6
BRANCH   5  10
HETATM   10  C           1     -33.106  -4.111 -11.334  0.00  0.00     0.042 C 
BRANCH  10  11
HETATM   11  C           1     -34.129  -4.796 -10.439  0.00  0.00     0.004 C 
BRANCH  11  12
HETATM   12  C           1     -34.522  -6.136 -11.047  0.00  0.00     0.027 C 
BRANCH  12  13
HETATM   13  C           1     -34.754  -7.151  -9.935  0.00  0.00     0.229 C 
BRANCH  13  14
HETATM   14  N           1     -34.118  -8.457 -10.307  0.00  0.00    -0.079 N 
HETATM   15  H           1     -34.849  -9.203 -10.340  0.00  0.00     0.274 HD
HETATM   16  H           1     -33.668  -8.369 -11.246  0.00  0.00     0.274 HD
HETATM   17  H           1     -33.396  -8.708  -9.595  0.00  0.00     0.274 HD
ENDBRANCH  13  14
ENDBRANCH  12  13
ENDBRANCH  11  12
ENDBRANCH  10  11
ENDBRANCH   5  10
ENDBRANCH   3   5
BRANCH   2  18
HETATM   18  C           1     -36.026  -0.733 -13.322  0.00  0.00     0.186 C 
BRANCH  18  19
HETATM   19  C           1     -37.160   0.066 -12.692  0.00  0.00     0.046 C 
BRANCH  19  20
HETATM   20  C           1     -37.589  -0.598 -11.391  0.00  0.00     0.116 C 
BRANCH  20  21
HETATM   21  C           1     -37.158   0.256 -10.224  0.00  0.00     0.172 C 
HETATM   22  O           1     -37.846   1.243  -9.883  0.00  0.00    -0.648 OA
HETATM   23  O           1     -36.113  -0.023  -9.598  0.00  0.00    -0.648 OA
ENDBRANCH  20  21
ENDBRANCH  19  20
ENDBRANCH  18  19
BRANCH  18  24
HETATM   24  C           1     -35.363   0.092 -14.396  0.00  0.00     0.196 C 
HETATM   25  O           1     -35.145   1.308 -14.205  0.00  0.00    -0.646 OA
HETATM   26  O           1     -35.031  -0.439 -15.478  0.00  0.00    -0.646 OA
ENDBRANCH  18  24
ENDBRANCH   2  18
TORSDOF 12
ENDMDL
MODEL 3
REMARK VINA RESULT:      -6.5     12.036     13.682
REMARK  12 active torsions:
REMARK  status: ('A' for Active; 'I' for Inactive)
REMARK    1  A    between atoms: C_3  and  C_25 
REMARK    2  A    between atoms: C_3  and  C_12 
REMARK    3  A    between atoms: C_5  and  C_12 
REMARK    4  A    between atoms: C_5  and  C_21 
REMARK    5  A    between atoms: C_5  and  N_7 
REMARK       I    between atoms: N_7  and  C_8 
REMARK    6  A    between atoms: C_8  and  C_20 
REMARK    7  A    between atoms: C_10  and  C_26 
REMARK    8  A    between atoms: C_10  and  C_22 
REMARK    9  A    between atoms: C_17  and  C_22 
REMARK   10  A    between atoms: C_17  and  N_18 
REMARK   11  A    between atoms: N_19  and  C_20 
REMARK   12  A    between atoms: C_20  and  C_26 
ROOT
HETATM    1  O           1     -21.830  -3.294  -7.567  0.00  0.00    -0.271 OA
HETATM    2  N           1     -22.141  -4.745  -9.235  0.00  0.00    -0.345 N 
HETATM    3  C           1     -21.681  -4.417  -7.988  0.00  0.00     0.249 C 
HETATM    4  H           1     -22.017  -5.685  -9.589  0.00  0.00     0.163 HD
ENDROOT
BRANCH   3   5
HETATM    5  C           1     -20.990  -5.456  -7.142  0.00  0.00     0.274 C 
BRANCH   5   6
HETATM    6  N           1     -19.688  -4.905  -6.640  0.00  0.00    -0.067 N 
HETATM    7  H           1     -19.468  -4.017  -7.145  0.00  0.00     0.275 HD
HETATM    8  H           1     -18.927  -5.601  -6.810  0.00  0.00     0.275 HD
HETATM    9  H           1     -19.762  -4.713  -5.615  0.00  0.00     0.275 HD
ENDBRANCH   5   6
BRANCH   5  10
HETATM   10  C           1     -21.877  -5.819  -5.958  0.00  0.00     0.042 C 
BRANCH  10  11
HETATM   11  C           1     -21.039  -5.856  -4.687  0.00  0.00     0.004 C 
BRANCH  11  12
HETATM   12  C           1     -21.289  -7.165  -3.950  0.00  0.00     0.027 C 
BRANCH  12  13
HETATM   13  C           1     -21.329  -6.904  -2.450  0.00  0.00     0.229 C 
BRANCH  13  14
HETATM   14  N           1     -22.374  -5.871  -2.149  0.00  0.00    -0.079 N 
HETATM   15  H           1     -22.658  -5.945  -1.146  0.00  0.00     0.274 HD
HETATM   16  H           1     -21.984  -4.919  -2.331  0.00  0.00     0.274 HD
HETATM   17  H           1     -23.207  -6.030  -2.760  0.00  0.00     0.274 HD
ENDBRANCH  13  14
ENDBRANCH  12  13
ENDBRANCH  11  12
ENDBRANCH  10  11
ENDBRANCH   5  10
ENDBRANCH   3   5
BRANCH   2  18
HETATM   18  C           1     -22.806  -3.747 -10.049  0.00  0.00     0.186 C 
BRANCH  18  19
HETATM   19  C           1     -22.503  -4.006 -11.520  0.00  0.00     0.046 C 
BRANCH  19  20
HETATM   20  C           1     -22.693  -2.720 -12.313  0.00  0.00     0.116 C 
BRANCH  20  21
HETATM   21  C           1     -23.768  -2.924 -13.353  0.00  0.00     0.172 C 
HETATM   22  O           1     -24.971  -2.946 -13.013  0.00  0.00    -0.648 OA
HETATM   23  O           1     -23.455  -3.072 -14.554  0.00  0.00    -0.648 OA
ENDBRANCH  20  21
ENDBRANCH  19  20
ENDBRANCH  18  19
BRANCH  18  24
HETATM   24  C           1     -24.295  -3.822  -9.821  0.00  0.00     0.196 C 
HETATM   25  O           1     -24.941  -2.785  -9.558  0.00  0.00    -0.646 OA
HETATM   26  O           1     -24.884  -4.922  -9.895  0.00  0.00    -0.646 OA
ENDBRANCH  18  24
ENDBRANCH   2  18
TORSDOF 12
ENDMDL
MODEL 4
REMARK VINA RESULT:      -6.2     10.038     11.597
REMARK  12 active torsions:
REMARK  status: ('A' for Active; 'I' for Inactive)
REMARK    1  A    between atoms: C_3  and  C_25 
REMARK    2  A    between atoms: C_3  and  C_12 
REMARK    3  A    between atoms: C_5  and  C_12 
REMARK    4  A    between atoms: C_5  and  C_21 
REMARK    5  A    between atoms: C_5  and  N_7 
REMARK       I    between atoms: N_7  and  C_8 
REMARK    6  A    between atoms: C_8  and  C_20 
REMARK    7  A    between atoms: C_10  and  C_26 
REMARK    8  A    between atoms: C_10  and  C_22 
REMARK    9  A    between atoms: C_17  and  C_22 
REMARK   10  A    between atoms: C_17  and  N_18 
REMARK   11  A    between atoms: N_19  and  C_20 
REMARK   12  A    between atoms: C_20  and  C_26 
ROOT
HETATM    1  O           1     -26.919  -6.139 -17.066  0.00  0.00    -0.271 OA
HETATM    2  N           1     -28.045  -6.866 -18.851  0.00  0.00    -0.345 N 
HETATM    3  C           1     -26.897  -6.449 -18.234  0.00  0.00     0.249 C 
HETATM    4  H           1     -28.028  -7.126 -19.829  0.00  0.00     0.163 HD
ENDROOT
BRANCH   3   5
HETATM    5  C           1     -25.606  -6.377 -19.010  0.00  0.00     0.274 C 
BRANCH   5   6
HETATM    6  N           1     -24.612  -7.331 -18.417  0.00  0.00    -0.067 N 
HETATM    7  H           1     -24.624  -8.227 -18.957  0.00  0.00     0.275 HD
HETATM    8  H           1     -24.863  -7.521 -17.421  0.00  0.00     0.275 HD
HETATM    9  H           1     -23.656  -6.911 -18.462  0.00  0.00     0.275 HD
ENDBRANCH   5   6
BRANCH   5  10
HETATM   10  C           1     -25.865  -6.754 -20.463  0.00  0.00     0.042 C 
BRANCH  10  11
HETATM   11  C           1     -24.928  -7.882 -20.871  0.00  0.00     0.004 C 
BRANCH  11  12
HETATM   12  C           1     -24.230  -7.518 -22.175  0.00  0.00     0.027 C 
BRANCH  12  13
HETATM   13  C           1     -23.091  -8.495 -22.432  0.00  0.00     0.229 C 
BRANCH  13  14
HETATM   14  N           1     -22.568  -9.011 -21.124  0.00  0.00    -0.079 N 
HETATM   15  H           1     -23.289  -8.870 -20.381  0.00  0.00     0.274 HD
HETATM   16  H           1     -22.355 -10.030 -21.213  0.00  0.00     0.274 HD
HETATM   17  H           1     -21.698  -8.493 -20.868  0.00  0.00     0.274 HD
ENDBRANCH  13  14
ENDBRANCH  12  13
ENDBRANCH  11  12
ENDBRANCH  10  11
ENDBRANCH   5  10
ENDBRANCH   3   5
BRANCH   2  18
HETATM   18  C           1     -29.286  -6.937 -18.105  0.00  0.00     0.186 C 
BRANCH  18  19
HETATM   19  C           1     -29.972  -5.577 -18.131  0.00  0.00     0.046 C 
BRANCH  19  20
HETATM   20  C           1     -30.807  -5.403 -16.870  0.00  0.00     0.116 C 
BRANCH  20  21
HETATM   21  C           1     -31.680  -4.180 -17.008  0.00  0.00     0.172 C 
HETATM   22  O           1     -32.820  -4.164 -16.495  0.00  0.00    -0.648 OA
HETATM   23  O           1     -31.264  -3.183 -17.635  0.00  0.00    -0.648 OA
ENDBRANCH  20  21
ENDBRANCH  19  20
ENDBRANCH  18  19
BRANCH  18  24
HETATM   24  C           1     -30.191  -7.970 -18.729  0.00  0.00     0.196 C 
HETATM   25  O           1     -31.428  -7.791 -18.742  0.00  0.00    -0.646 OA
HETATM   26  O           1     -29.704  -9.004 -19.234  0.00  0.00    -0.646 OA
ENDBRANCH  18  24
ENDBRANCH   2  18
TORSDOF 12
ENDMDL
MODEL 5
REMARK VINA RESULT:      -5.9     14.684     17.072
REMARK  12 active torsions:
REMARK  status: ('A' for Active; 'I' for Inactive)
REMARK    1  A    between atoms: C_3  and  C_25 
REMARK    2  A    between atoms: C_3  and  C_12 
REMARK    3  A    between atoms: C_5  and  C_12 
REMARK    4  A    between atoms: C_5  and  C_21 
REMARK    5  A    between atoms: C_5  and  N_7 
REMARK       I    between atoms: N_7  and  C_8 
REMARK    6  A    between atoms: C_8  and  C_20 
REMARK    7  A    between atoms: C_10  and  C_26 
REMARK    8  A    between atoms: C_10  and  C_22 
REMARK    9  A    between atoms: C_17  and  C_22 
REMARK   10  A    between atoms: C_17  and  N_18 
REMARK   11  A    between atoms: N_19  and  C_20 
REMARK   12  A    between atoms: C_20  and  C_26 
ROOT
HETATM    1  O           1     -19.787  -4.748  -6.463  0.00  0.00    -0.271 OA
HETATM    2  N           1     -21.481  -6.184  -6.238  0.00  0.00    -0.345 N 
HETATM    3  C           1     -20.809  -5.203  -6.917  0.00  0.00     0.249 C 
HETATM    4  H           1     -22.338  -6.566  -6.618  0.00  0.00     0.163 HD
ENDROOT
BRANCH   3   5
HETATM    5  C           1     -21.345  -4.693  -8.231  0.00  0.00     0.274 C 
BRANCH   5   6
HETATM    6  N           1     -22.313  -3.576  -7.976  0.00  0.00    -0.067 N 
HETATM    7  H           1     -23.146  -3.689  -8.598  0.00  0.00     0.275 HD
HETATM    8  H           1     -21.850  -2.661  -8.177  0.00  0.00     0.275 HD
HETATM    9  H           1     -22.619  -3.600  -6.977  0.00  0.00     0.275 HD
ENDBRANCH   5   6
BRANCH   5  10
HETATM   10  C           1     -20.193  -4.180  -9.085  0.00  0.00     0.042 C 
BRANCH  10  11
HETATM   11  C           1     -20.502  -4.426 -10.556  0.00  0.00     0.004 C 
BRANCH  11  12
HETATM   12  C           1     -20.689  -3.092 -11.266  0.00  0.00     0.027 C 
BRANCH  12  13
HETATM   13  C           1     -22.107  -3.002 -11.814  0.00  0.00     0.229 C 
BRANCH  13  14
HETATM   14  N           1     -22.117  -3.427 -13.252  0.00  0.00    -0.079 N 
HETATM   15  H           1     -23.057  -3.235 -13.665  0.00  0.00     0.274 HD
HETATM   16  H           1     -21.389  -2.892 -13.777  0.00  0.00     0.274 HD
HETATM   17  H           1     -21.912  -4.450 -13.314  0.00  0.00     0.274 HD
ENDBRANCH  13  14
ENDBRANCH  12  13
ENDBRANCH  11  12
ENDBRANCH  10  11
ENDBRANCH   5  10
ENDBRANCH   3   5
BRANCH   2  18
HETATM   18  C           1     -20.966  -6.675  -4.975  0.00  0.00     0.186 C 
BRANCH  18  19
HETATM   19  C           1     -22.068  -6.626  -3.924  0.00  0.00     0.046 C 
BRANCH  19  20
HETATM   20  C           1     -21.489  -6.138  -2.603  0.00  0.00     0.116 C 
BRANCH  20  21
HETATM   21  C           1     -21.844  -7.112  -1.506  0.00  0.00     0.172 C 
HETATM   22  O           1     -22.801  -6.871  -0.741  0.00  0.00    -0.648 OA
HETATM   23  O           1     -21.179  -8.161  -1.365  0.00  0.00    -0.648 OA
ENDBRANCH  20  21
ENDBRANCH  19  20
ENDBRANCH  18  19
BRANCH  18  24
HETATM   24  C           1     -20.494  -8.098  -5.144  0.00  0.00     0.196 C 
HETATM   25  O           1     -21.178  -9.042  -4.690  0.00  0.00    -0.646 OA
HETATM   26  O           1     -19.421  -8.334  -5.738  0.00  0.00    -0.646 OA
ENDBRANCH  18  24
ENDBRANCH   2  18
TORSDOF 12
ENDMDL
MODEL 6
REMARK VINA RESULT:      -5.7     13.202     15.256
REMARK  12 active torsions:
REMARK  status: ('A' for Active; 'I' for Inactive)
REMARK    1  A    between atoms: C_3  and  C_25 
REMARK    2  A    between atoms: C_3  and  C_12 
REMARK    3  A    between atoms: C_5  and  C_12 
REMARK    4  A    between atoms: C_5  and  C_21 
REMARK    5  A    between atoms: C_5  and  N_7 
REMARK       I    between atoms: N_7  and  C_8 
REMARK    6  A    between atoms: C_8  and  C_20 
REMARK    7  A    between atoms: C_10  and  C_26 
REMARK    8  A    between atoms: C_10  and  C_22 
REMARK    9  A    between atoms: C_17  and  C_22 
REMARK   10  A    between atoms: C_17  and  N_18 
REMARK   11  A    between atoms: N_19  and  C_20 
REMARK   12  A    between atoms: C_20  and  C_26 
ROOT
HETATM    1  O           1     -21.024  -7.055  -6.941  0.00  0.00    -0.271 OA
HETATM    2  N           1     -21.572  -4.891  -6.885  0.00  0.00    -0.345 N 
HETATM    3  C           1     -21.270  -6.078  -6.274  0.00  0.00     0.249 C 
HETATM    4  H           1     -21.778  -4.073  -6.327  0.00  0.00     0.163 HD
ENDROOT
BRANCH   3   5
HETATM    5  C           1     -21.245  -6.166  -4.769  0.00  0.00     0.274 C 
BRANCH   5   6
HETATM    6  N           1     -22.649  -6.151  -4.243  0.00  0.00    -0.067 N 
HETATM    7  H           1     -22.974  -7.133  -4.089  0.00  0.00     0.275 HD
HETATM    8  H           1     -23.275  -5.681  -4.935  0.00  0.00     0.275 HD
HETATM    9  H           1     -22.678  -5.630  -3.337  0.00  0.00     0.275 HD
ENDBRANCH   5   6
BRANCH   5  10
HETATM   10  C           1     -20.559  -7.459  -4.346  0.00  0.00     0.042 C 
BRANCH  10  11
HETATM   11  C           1     -21.319  -8.080  -3.182  0.00  0.00     0.004 C 
BRANCH  11  12
HETATM   12  C           1     -20.545  -7.853  -1.890  0.00  0.00     0.027 C 
BRANCH  12  13
HETATM   13  C           1     -21.431  -8.199  -0.700  0.00  0.00     0.229 C 
BRANCH  13  14
HETATM   14  N           1     -22.511  -7.167  -0.563  0.00  0.00    -0.079 N 
HETATM   15  H           1     -22.257  -6.495   0.195  0.00  0.00     0.274 HD
HETATM   16  H           1     -22.615  -6.652  -1.466  0.00  0.00     0.274 HD
HETATM   17  H           1     -23.412  -7.638  -0.324  0.00  0.00     0.274 HD
ENDBRANCH  13  14
ENDBRANCH  12  13
ENDBRANCH  11  12
ENDBRANCH  10  11
ENDBRANCH   5  10
ENDBRANCH   3   5
BRANCH   2  18
HETATM   18  C           1     -21.596  -4.806  -8.332  0.00  0.00     0.186 C 
BRANCH  18  19
HETATM   19  C           1     -22.575  -3.720  -8.761  0.00  0.00     0.046 C 
BRANCH  19  20
HETATM   20  C           1     -23.888  -4.360  -9.191  0.00  0.00     0.116 C 
BRANCH  20  21
HETATM   21  C           1     -24.639  -3.411 -10.094  0.00  0.00     0.172 C 
HETATM   22  O           1     -25.846  -3.169  -9.881  0.00  0.00    -0.648 OA
HETATM   23  O           1     -24.052  -2.868 -11.055  0.00  0.00    -0.648 OA
ENDBRANCH  20  21
ENDBRANCH  19  20
ENDBRANCH  18  19
BRANCH  18  24
HETATM   24  C           1     -20.217  -4.469  -8.839  0.00  0.00     0.196 C 
HETATM   25  O           1     -19.401  -3.887  -8.093  0.00  0.00    -0.646 OA
HETATM   26  O           1     -19.887  -4.774 -10.006  0.00  0.00    -0.646 OA
ENDBRANCH  18  24
ENDBRANCH   2  18
TORSDOF 12
ENDMDL
MODEL 7
REMARK VINA RESULT:      -5.6     13.956     16.841
REMARK  12 active torsions:
REMARK  status: ('A' for Active; 'I' for Inactive)
REMARK    1  A    between atoms: C_3  and  C_25 
REMARK    2  A    between atoms: C_3  and  C_12 
REMARK    3  A    between atoms: C_5  and  C_12 
REMARK    4  A    between atoms: C_5  and  C_21 
REMARK    5  A    between atoms: C_5  and  N_7 
REMARK       I    between atoms: N_7  and  C_8 
REMARK    6  A    between atoms: C_8  and  C_20 
REMARK    7  A    between atoms: C_10  and  C_26 
REMARK    8  A    between atoms: C_10  and  C_22 
REMARK    9  A    between atoms: C_17  and  C_22 
REMARK   10  A    between atoms: C_17  and  N_18 
REMARK   11  A    between atoms: N_19  and  C_20 
REMARK   12  A    between atoms: C_20  and  C_26 
ROOT
HETATM    1  O           1     -19.927  -4.323  -5.196  0.00  0.00    -0.271 OA
HETATM    2  N           1     -21.031  -6.046  -6.088  0.00  0.00    -0.345 N 
HETATM    3  C           1     -20.575  -4.756  -6.119  0.00  0.00     0.249 C 
HETATM    4  H           1     -21.574  -6.410  -6.860  0.00  0.00     0.163 HD
ENDROOT
BRANCH   3   5
HETATM    5  C           1     -20.881  -3.877  -7.305  0.00  0.00     0.274 C 
BRANCH   5   6
HETATM    6  N           1     -19.699  -3.854  -8.229  0.00  0.00    -0.067 N 
HETATM    7  H           1     -19.537  -2.877  -8.563  0.00  0.00     0.275 HD
HETATM    8  H           1     -19.886  -4.476  -9.048  0.00  0.00     0.275 HD
HETATM    9  H           1     -18.852  -4.194  -7.720  0.00  0.00     0.275 HD
ENDBRANCH   5   6
BRANCH   5  10
HETATM   10  C           1     -22.093  -4.426  -8.046  0.00  0.00     0.042 C 
BRANCH  10  11
HETATM   11  C           1     -21.856  -4.333  -9.547  0.00  0.00     0.004 C 
BRANCH  11  12
HETATM   12  C           1     -23.070  -3.702 -10.216  0.00  0.00     0.027 C 
BRANCH  12  13
HETATM   13  C           1     -24.322  -4.486  -9.841  0.00  0.00     0.229 C 
BRANCH  13  14
HETATM   14  N           1     -25.486  -3.547  -9.732  0.00  0.00    -0.079 N 
HETATM   15  H           1     -25.413  -2.813 -10.471  0.00  0.00     0.274 HD
HETATM   16  H           1     -26.376  -4.081  -9.858  0.00  0.00     0.274 HD
HETATM   17  H           1     -25.481  -3.095  -8.790  0.00  0.00     0.274 HD
ENDBRANCH  13  14
ENDBRANCH  12  13
ENDBRANCH  11  12
ENDBRANCH  10  11
ENDBRANCH   5  10
ENDBRANCH   3   5
BRANCH   2  18
HETATM   18  C           1     -20.736  -6.892  -4.948  0.00  0.00     0.186 C 
BRANCH  18  19
HETATM   19  C           1     -21.969  -6.992  -4.057  0.00  0.00     0.046 C 
BRANCH  19  20
HETATM   20  C           1     -21.724  -6.229  -2.762  0.00  0.00     0.116 C 
BRANCH  20  21
HETATM   21  C           1     -21.916  -7.157  -1.587  0.00  0.00     0.172 C 
HETATM   22  O           1     -22.717  -6.854  -0.676  0.00  0.00    -0.648 OA
HETATM   23  O           1     -21.276  -8.228  -1.526  0.00  0.00    -0.648 OA
ENDBRANCH  20  21
ENDBRANCH  19  20
ENDBRANCH  18  19
BRANCH  18  24
HETATM   24  C           1     -20.350  -8.268  -5.429  0.00  0.00     0.196 C 
HETATM   25  O           1     -19.149  -8.541  -5.646  0.00  0.00    -0.646 OA
HETATM   26  O           1     -21.230  -9.137  -5.611  0.00  0.00    -0.646 OA
ENDBRANCH  18  24
ENDBRANCH   2  18
TORSDOF 12
ENDMDL
MODEL 8
REMARK VINA RESULT:      -5.6     14.731     17.439
REMARK  12 active torsions:
REMARK  status: ('A' for Active; 'I' for Inactive)
REMARK    1  A    between atoms: C_3  and  C_25 
REMARK    2  A    between atoms: C_3  and  C_12 
REMARK    3  A    between atoms: C_5  and  C_12 
REMARK    4  A    between atoms: C_5  and  C_21 
REMARK    5  A    between atoms: C_5  and  N_7 
REMARK       I    between atoms: N_7  and  C_8 
REMARK    6  A    between atoms: C_8  and  C_20 
REMARK    7  A    between atoms: C_10  and  C_26 
REMARK    8  A    between atoms: C_10  and  C_22 
REMARK    9  A    between atoms: C_17  and  C_22 
REMARK   10  A    between atoms: C_17  and  N_18 
REMARK   11  A    between atoms: N_19  and  C_20 
REMARK   12  A    between atoms: C_20  and  C_26 
ROOT
HETATM    1  O           1     -19.827  -7.754  -5.679  0.00  0.00    -0.271 OA
HETATM    2  N           1     -21.656  -8.036  -4.430  0.00  0.00    -0.345 N 
HETATM    3  C           1     -20.940  -7.381  -5.395  0.00  0.00     0.249 C 
HETATM    4  H           1     -22.589  -7.724  -4.192  0.00  0.00     0.163 HD
ENDROOT
BRANCH   3   5
HETATM    5  C           1     -21.542  -6.194  -6.105  0.00  0.00     0.274 C 
BRANCH   5   6
HETATM    6  N           1     -22.796  -5.772  -5.399  0.00  0.00    -0.067 N 
HETATM    7  H           1     -23.544  -5.577  -6.104  0.00  0.00     0.275 HD
HETATM    8  H           1     -22.609  -4.909  -4.841  0.00  0.00     0.275 HD
HETATM    9  H           1     -23.112  -6.538  -4.761  0.00  0.00     0.275 HD
ENDBRANCH   5   6
BRANCH   5  10
HETATM   10  C           1     -20.546  -5.041  -6.101  0.00  0.00     0.042 C 
BRANCH  10  11
HETATM   11  C           1     -20.348  -4.536  -7.524  0.00  0.00     0.004 C 
BRANCH  11  12
HETATM   12  C           1     -21.538  -4.949  -8.381  0.00  0.00     0.027 C 
BRANCH  12  13
HETATM   13  C           1     -22.396  -3.728  -8.682  0.00  0.00     0.229 C 
BRANCH  13  14
HETATM   14  N           1     -23.804  -3.982  -8.232  0.00  0.00    -0.079 N 
HETATM   15  H           1     -24.470  -3.645  -8.963  0.00  0.00     0.274 HD
HETATM   16  H           1     -23.941  -5.007  -8.081  0.00  0.00     0.274 HD
HETATM   17  H           1     -23.981  -3.470  -7.338  0.00  0.00     0.274 HD
ENDBRANCH  13  14
ENDBRANCH  12  13
ENDBRANCH  11  12
ENDBRANCH  10  11
ENDBRANCH   5  10
ENDBRANCH   3   5
BRANCH   2  18
HETATM   18  C           1     -21.079  -9.178  -3.748  0.00  0.00     0.186 C 
BRANCH  18  19
HETATM   19  C           1     -21.359  -9.072  -2.254  0.00  0.00     0.046 C 
BRANCH  19  20
HETATM   20  C           1     -20.915  -7.706  -1.749  0.00  0.00     0.116 C 
BRANCH  20  21
HETATM   21  C           1     -22.127  -6.838  -1.512  0.00  0.00     0.172 C 
HETATM   22  O           1     -22.828  -7.009  -0.491  0.00  0.00    -0.648 OA
HETATM   23  O           1     -22.428  -5.949  -2.336  0.00  0.00    -0.648 OA
ENDBRANCH  20  21
ENDBRANCH  19  20
ENDBRANCH  18  19
BRANCH  18  24
HETATM   24  C           1     -21.689 -10.447  -4.287  0.00  0.00     0.196 C 
HETATM   25  O           1     -22.629 -10.999  -3.674  0.00  0.00    -0.646 OA
HETATM   26  O           1     -21.258 -10.948  -5.348  0.00  0.00    -0.646 OA
ENDBRANCH  18  24
ENDBRANCH   2  18
TORSDOF 12
ENDMDL
MODEL 9
REMARK VINA RESULT:      -5.5     13.896     16.757
REMARK  12 active torsions:
REMARK  status: ('A' for Active; 'I' for Inactive)
REMARK    1  A    between atoms: C_3  and  C_25 
REMARK    2  A    between atoms: C_3  and  C_12 
REMARK    3  A    between atoms: C_5  and  C_12 
REMARK    4  A    between atoms: C_5  and  C_21 
REMARK    5  A    between atoms: C_5  and  N_7 
REMARK       I    between atoms: N_7  and  C_8 
REMARK    6  A    between atoms: C_8  and  C_20 
REMARK    7  A    between atoms: C_10  and  C_26 
REMARK    8  A    between atoms: C_10  and  C_22 
REMARK    9  A    between atoms: C_17  and  C_22 
REMARK   10  A    between atoms: C_17  and  N_18 
REMARK   11  A    between atoms: N_19  and  C_20 
REMARK   12  A    between atoms: C_20  and  C_26 
ROOT
HETATM    1  O           1     -22.865  -6.058  -5.339  0.00  0.00    -0.271 OA
HETATM    2  N           1     -20.966  -6.792  -4.424  0.00  0.00    -0.345 N 
HETATM    3  C           1     -21.657  -6.045  -5.339  0.00  0.00     0.249 C 
HETATM    4  H           1     -19.954  -6.782  -4.423  0.00  0.00     0.163 HD
ENDROOT
BRANCH   3   5
HETATM    5  C           1     -20.911  -5.207  -6.346  0.00  0.00     0.274 C 
BRANCH   5   6
HETATM    6  N           1     -20.246  -6.104  -7.348  0.00  0.00    -0.067 N 
HETATM    7  H           1     -19.560  -5.550  -7.911  0.00  0.00     0.275 HD
HETATM    8  H           1     -20.968  -6.512  -7.983  0.00  0.00     0.275 HD
HETATM    9  H           1     -19.745  -6.874  -6.849  0.00  0.00     0.275 HD
ENDBRANCH   5   6
BRANCH   5  10
HETATM   10  C           1     -21.887  -4.283  -7.062  0.00  0.00     0.042 C 
BRANCH  10  11
HETATM   11  C           1     -22.013  -4.707  -8.519  0.00  0.00     0.004 C 
BRANCH  11  12
HETATM   12  C           1     -22.902  -3.718  -9.262  0.00  0.00     0.027 C 
BRANCH  12  13
HETATM   13  C           1     -24.099  -4.454  -9.851  0.00  0.00     0.229 C 
BRANCH  13  14
HETATM   14  N           1     -25.338  -3.633  -9.654  0.00  0.00    -0.079 N 
HETATM   15  H           1     -26.169  -4.263  -9.597  0.00  0.00     0.274 HD
HETATM   16  H           1     -25.255  -3.085  -8.768  0.00  0.00     0.274 HD
HETATM   17  H           1     -25.453  -2.978 -10.460  0.00  0.00     0.274 HD
ENDBRANCH  13  14
ENDBRANCH  12  13
ENDBRANCH  11  12
ENDBRANCH  10  11
ENDBRANCH   5  10
ENDBRANCH   3   5
BRANCH   2  18
HETATM   18  C           1     -21.683  -7.598  -3.454  0.00  0.00     0.186 C 
BRANCH  18  19
HETATM   19  C           1     -20.995  -8.949  -3.308  0.00  0.00     0.046 C 
BRANCH  19  20
HETATM   20  C           1     -21.663  -9.962  -4.228  0.00  0.00     0.116 C 
BRANCH  20  21
HETATM   21  C           1     -20.848 -10.112  -5.489  0.00  0.00     0.172 C 
HETATM   22  O           1     -21.221 -10.901  -6.384  0.00  0.00    -0.648 OA
HETATM   23  O           1     -19.801  -9.447  -5.638  0.00  0.00    -0.648 OA
ENDBRANCH  20  21
ENDBRANCH  19  20
ENDBRANCH  18  19
BRANCH  18  24
HETATM   24  C           1     -21.693  -6.891  -2.122  0.00  0.00     0.196 C 
HETATM   25  O           1     -22.173  -5.740  -2.029  0.00  0.00    -0.646 OA
HETATM   26  O           1     -21.225  -7.455  -1.111  0.00  0.00    -0.646 OA
ENDBRANCH  18  24
ENDBRANCH   2  18
TORSDOF 12
ENDMDL
