MODEL 1
REMARK VINA RESULT:      -6.4      0.000      0.000
REMARK  9 active torsions:
REMARK  status: ('A' for Active; 'I' for Inactive)
REMARK    1  A    between atoms: C_2  and  C_4 
REMARK    2  A    between atoms: C_4  and  C_5 
REMARK    3  A    between atoms: C_4  and  N_8 
REMARK       I    between atoms: N_8  and  C_9 
REMARK    4  A    between atoms: C_9  and  C_10 
REMARK    5  A    between atoms: C_10  and  C_11 
REMARK    6  A    between atoms: C_10  and  N_17 
REMARK    7  A    between atoms: C_11  and  O_12 
REMARK    8  A    between atoms: O_12  and  P_13 
REMARK    9  A    between atoms: P_13  and  O_14 
ROOT
HETATM    1  C           1     -20.990  -5.572  -7.003  0.00  0.00     0.298 C 
ENDROOT
BRANCH   1   2
HETATM    2  C           1     -21.621  -4.475  -7.825  0.00  0.00     0.251 C 
HETATM    3  N           1     -22.137  -4.755  -9.061  0.00  0.00    -0.344 N 
HETATM    4  H           1     -22.097  -5.698  -9.423  0.00  0.00     0.163 HD
HETATM    5  O           1     -21.668  -3.347  -7.391  0.00  0.00    -0.271 OA
BRANCH   3   6
HETATM    6  C           1     -22.742  -3.699  -9.850  0.00  0.00     0.189 C 
BRANCH   6   7
HETATM    7  C           1     -22.285  -3.824 -11.298  0.00  0.00     0.010 C 
HETATM    8  C           1     -22.732  -2.594 -12.078  0.00  0.00     0.012 C 
HETATM    9  C           1     -20.766  -3.930 -11.343  0.00  0.00     0.012 C 
ENDBRANCH   6   7
BRANCH   6  10
HETATM   10  C           1     -24.245  -3.821  -9.784  0.00  0.00     0.197 C 
HETATM   11  O           1     -24.943  -2.816  -9.534  0.00  0.00    -0.646 OA
HETATM   12  O           1     -24.791  -4.929  -9.980  0.00  0.00    -0.646 OA
ENDBRANCH   6  10
ENDBRANCH   3   6
ENDBRANCH   1   2
BRANCH   1  13
HETATM   13  C           1     -20.645  -5.038  -5.620  0.00  0.00     0.224 C 
BRANCH  13  14
HETATM   14  O           1     -20.477  -6.111  -4.733  0.00  0.00    -0.287 OA
BRANCH  14  15
HETATM   15  P           1     -21.806  -6.607  -3.960  0.00  0.00     0.406 P 
HETATM   16  O           1     -21.738  -8.071  -3.755  0.00  0.00    -0.624 OA
HETATM   17  O           1     -22.999  -6.276  -4.770  0.00  0.00    -0.624 OA
BRANCH  15  18
HETATM   18  O           1     -21.905  -5.868  -2.528  0.00  0.00    -0.300 OA
HETATM   19  H           1     -22.474  -6.411  -2.012  0.00  0.00     0.223 HD
ENDBRANCH  15  18
ENDBRANCH  14  15
ENDBRANCH  13  14
ENDBRANCH   1  13
BRANCH   1  20
HETATM   20  N           1     -19.740  -6.049  -7.681  0.00  0.00    -0.064 N 
HETATM   21  H           1     -19.992  -6.600  -8.532  0.00  0.00     0.275 HD
HETATM   22  H           1     -19.160  -5.226  -7.959  0.00  0.00     0.275 HD
HETATM   23  H           1     -19.196  -6.652  -7.022  0.00  0.00     0.275 HD
ENDBRANCH   1  20
TORSDOF 9
ENDMDL
MODEL 2
REMARK VINA RESULT:      -6.3      3.939      7.251
REMARK  9 active torsions:
REMARK  status: ('A' for Active; 'I' for Inactive)
REMARK    1  A    between atoms: C_2  and  C_4 
REMARK    2  A    between atoms: C_4  and  C_5 
REMARK    3  A    between atoms: C_4  and  N_8 
REMARK       I    between atoms: N_8  and  C_9 
REMARK    4  A    between atoms: C_9  and  C_10 
REMARK    5  A    between atoms: C_10  and  C_11 
REMARK    6  A    between atoms: C_10  and  N_17 
REMARK    7  A    between atoms: C_11  and  O_12 
REMARK    8  A    between atoms: O_12  and  P_13 
REMARK    9  A    between atoms: P_13  and  O_14 
ROOT
HETATM    1  C           1     -21.541  -3.259 -11.217  0.00  0.00     0.298 C 
ENDROOT
BRANCH   1   2
HETATM    2  C           1     -21.877  -4.151 -10.047  0.00  0.00     0.251 C 
HETATM    3  N           1     -20.931  -4.416  -9.095  0.00  0.00    -0.344 N 
HETATM    4  H           1     -20.006  -4.014  -9.174  0.00  0.00     0.163 HD
HETATM    5  O           1     -22.982  -4.632  -9.953  0.00  0.00    -0.271 OA
BRANCH   3   6
HETATM    6  C           1     -21.254  -5.274  -7.971  0.00  0.00     0.189 C 
BRANCH   6   7
HETATM    7  C           1     -19.969  -5.833  -7.374  0.00  0.00     0.010 C 
HETATM    8  C           1     -18.952  -4.711  -7.218  0.00  0.00     0.012 C 
HETATM    9  C           1     -20.268  -6.442  -6.010  0.00  0.00     0.012 C 
ENDBRANCH   6   7
BRANCH   6  10
HETATM   10  C           1     -21.990  -4.474  -6.924  0.00  0.00     0.197 C 
HETATM   11  O           1     -21.586  -3.335  -6.609  0.00  0.00    -0.646 OA
HETATM   12  O           1     -23.005  -4.953  -6.372  0.00  0.00    -0.646 OA
ENDBRANCH   6  10
ENDBRANCH   3   6
ENDBRANCH   1   2
BRANCH   1  13
HETATM   13  C           1     -22.513  -3.528 -12.358  0.00  0.00     0.224 C 
BRANCH  13  14
HETATM   14  O           1     -22.756  -2.337 -13.056  0.00  0.00    -0.287 OA
BRANCH  14  15
HETATM   15  P           1     -23.403  -2.498 -14.527  0.00  0.00     0.406 P 
HETATM   16  O           1     -22.352  -2.304 -15.551  0.00  0.00    -0.624 OA
HETATM   17  O           1     -24.466  -1.486 -14.711  0.00  0.00    -0.624 OA
BRANCH  15  18
HETATM   18  O           1     -24.035  -3.977 -14.680  0.00  0.00    -0.300 OA
HETATM   19  H           1     -24.944  -3.834 -14.880  0.00  0.00     0.223 HD
ENDBRANCH  15  18
ENDBRANCH  14  15
ENDBRANCH  13  14
ENDBRANCH   1  13
BRANCH   1  20
HETATM   20  N           1     -20.141  -3.542 -11.676  0.00  0.00    -0.064 N 
HETATM   21  H           1     -19.583  -3.922 -10.879  0.00  0.00     0.275 HD
HETATM   22  H           1     -20.164  -4.242 -12.451  0.00  0.00     0.275 HD
HETATM   23  H           1     -19.703  -2.657 -12.019  0.00  0.00     0.275 HD
ENDBRANCH   1  20
TORSDOF 9
ENDMDL
MODEL 3
REMARK VINA RESULT:      -6.1      4.018      6.969
REMARK  9 active torsions:
REMARK  status: ('A' for Active; 'I' for Inactive)
REMARK    1  A    between atoms: C_2  and  C_4 
REMARK    2  A    between atoms: C_4  and  C_5 
REMARK    3  A    between atoms: C_4  and  N_8 
REMARK       I    between atoms: N_8  and  C_9 
REMARK    4  A    between atoms: C_9  and  C_10 
REMARK    5  A    between atoms: C_10  and  C_11 
REMARK    6  A    between atoms: C_10  and  N_17 
REMARK    7  A    between atoms: C_11  and  O_12 
REMARK    8  A    between atoms: O_12  and  P_13 
REMARK    9  A    between atoms: P_13  and  O_14 
ROOT
HETATM    1  C           1     -24.262  -4.643  -9.890  0.00  0.00     0.298 C 
ENDROOT
BRANCH   1   2
HETATM    2  C           1     -23.101  -4.120  -9.082  0.00  0.00     0.251 C 
HETATM    3  N           1     -22.340  -4.981  -8.338  0.00  0.00    -0.344 N 
HETATM    4  H           1     -22.556  -5.970  -8.332  0.00  0.00     0.163 HD
HETATM    5  O           1     -22.843  -2.939  -9.089  0.00  0.00    -0.271 OA
BRANCH   3   6
HETATM    6  C           1     -21.225  -4.477  -7.560  0.00  0.00     0.189 C 
BRANCH   6   7
HETATM    7  C           1     -20.922  -5.444  -6.422  0.00  0.00     0.010 C 
HETATM    8  C           1     -20.120  -4.724  -5.346  0.00  0.00     0.012 C 
HETATM    9  C           1     -22.230  -5.952  -5.828  0.00  0.00     0.012 C 
ENDBRANCH   6   7
BRANCH   6  10
HETATM   10  C           1     -20.010  -4.349  -8.448  0.00  0.00     0.197 C 
HETATM   11  O           1     -19.169  -3.453  -8.229  0.00  0.00    -0.646 OA
HETATM   12  O           1     -19.848  -5.141  -9.402  0.00  0.00    -0.646 OA
ENDBRANCH   6  10
ENDBRANCH   3   6
ENDBRANCH   1   2
BRANCH   1  13
HETATM   13  C           1     -23.862  -4.732 -11.357  0.00  0.00     0.224 C 
BRANCH  13  14
HETATM   14  O           1     -24.596  -3.795 -12.099  0.00  0.00    -0.287 OA
BRANCH  14  15
HETATM   15  P           1     -23.842  -3.159 -13.378  0.00  0.00     0.406 P 
HETATM   16  O           1     -22.406  -2.982 -13.066  0.00  0.00    -0.624 OA
HETATM   17  O           1     -24.444  -1.847 -13.702  0.00  0.00    -0.624 OA
BRANCH  15  18
HETATM   18  O           1     -23.998  -4.150 -14.644  0.00  0.00    -0.300 OA
HETATM   19  H           1     -24.437  -4.912 -14.305  0.00  0.00     0.223 HD
ENDBRANCH  15  18
ENDBRANCH  14  15
ENDBRANCH  13  14
ENDBRANCH   1  13
BRANCH   1  20
HETATM   20  N           1     -25.431  -3.715  -9.746  0.00  0.00    -0.064 N 
HETATM   21  H           1     -25.470  -3.072 -10.569  0.00  0.00     0.275 HD
HETATM   22  H           1     -26.313  -4.272  -9.698  0.00  0.00     0.275 HD
HETATM   23  H           1     -25.324  -3.155  -8.870  0.00  0.00     0.275 HD
ENDBRANCH   1  20
TORSDOF 9
ENDMDL
MODEL 4
REMARK VINA RESULT:      -5.9      2.998      6.742
REMARK  9 active torsions:
REMARK  status: ('A' for Active; 'I' for Inactive)
REMARK    1  A    between atoms: C_2  and  C_4 
REMARK    2  A    between atoms: C_4  and  C_5 
REMARK    3  A    between atoms: C_4  and  N_8 
REMARK       I    between atoms: N_8  and  C_9 
REMARK    4  A    between atoms: C_9  and  C_10 
REMARK    5  A    between atoms: C_10  and  C_11 
REMARK    6  A    between atoms: C_10  and  N_17 
REMARK    7  A    between atoms: C_11  and  O_12 
REMARK    8  A    between atoms: O_12  and  P_13 
REMARK    9  A    between atoms: P_13  and  O_14 
ROOT
HETATM    1  C           1     -21.959  -4.485  -7.154  0.00  0.00     0.298 C 
ENDROOT
BRANCH   1   2
HETATM    2  C           1     -21.048  -5.333  -6.302  0.00  0.00     0.251 C 
HETATM    3  N           1     -21.577  -6.264  -5.450  0.00  0.00    -0.344 N 
HETATM    4  H           1     -22.580  -6.385  -5.393  0.00  0.00     0.163 HD
HETATM    5  O           1     -19.850  -5.188  -6.370  0.00  0.00    -0.271 OA
BRANCH   3   6
HETATM    6  C           1     -20.701  -7.078  -4.630  0.00  0.00     0.189 C 
BRANCH   6   7
HETATM    7  C           1     -21.415  -7.447  -3.336  0.00  0.00     0.010 C 
HETATM    8  C           1     -20.462  -8.220  -2.434  0.00  0.00     0.012 C 
HETATM    9  C           1     -21.868  -6.177  -2.627  0.00  0.00     0.012 C 
ENDBRANCH   6   7
BRANCH   6  10
HETATM   10  C           1     -20.336  -8.336  -5.381  0.00  0.00     0.197 C 
HETATM   11  O           1     -21.225  -9.154  -5.698  0.00  0.00    -0.646 OA
HETATM   12  O           1     -19.144  -8.558  -5.684  0.00  0.00    -0.646 OA
ENDBRANCH   6  10
ENDBRANCH   3   6
ENDBRANCH   1   2
BRANCH   1  13
HETATM   13  C           1     -21.834  -4.910  -8.611  0.00  0.00     0.224 C 
BRANCH  13  14
HETATM   14  O           1     -22.162  -3.830  -9.443  0.00  0.00    -0.287 OA
BRANCH  14  15
HETATM   15  P           1     -23.646  -3.852 -10.080  0.00  0.00     0.406 P 
HETATM   16  O           1     -23.997  -5.238 -10.461  0.00  0.00    -0.624 OA
HETATM   17  O           1     -23.681  -2.985 -11.278  0.00  0.00    -0.624 OA
BRANCH  15  18
HETATM   18  O           1     -24.708  -3.309  -8.991  0.00  0.00    -0.300 OA
HETATM   19  H           1     -24.230  -3.273  -8.180  0.00  0.00     0.223 HD
ENDBRANCH  15  18
ENDBRANCH  14  15
ENDBRANCH  13  14
ENDBRANCH   1  13
BRANCH   1  20
HETATM   20  N           1     -21.572  -3.042  -7.019  0.00  0.00    -0.064 N 
HETATM   21  H           1     -21.044  -2.904  -6.128  0.00  0.00     0.275 HD
HETATM   22  H           1     -20.969  -2.767  -7.827  0.00  0.00     0.275 HD
HETATM   23  H           1     -22.434  -2.451  -7.010  0.00  0.00     0.275 HD
ENDBRANCH   1  20
TORSDOF 9
ENDMDL
MODEL 5
REMARK VINA RESULT:      -5.8      3.051      6.839
REMARK  9 active torsions:
REMARK  status: ('A' for Active; 'I' for Inactive)
REMARK    1  A    between atoms: C_2  and  C_4 
REMARK    2  A    between atoms: C_4  and  C_5 
REMARK    3  A    between atoms: C_4  and  N_8 
REMARK       I    between atoms: N_8  and  C_9 
REMARK    4  A    between atoms: C_9  and  C_10 
REMARK    5  A    between atoms: C_10  and  C_11 
REMARK    6  A    between atoms: C_10  and  N_17 
REMARK    7  A    between atoms: C_11  and  O_12 
REMARK    8  A    between atoms: O_12  and  P_13 
REMARK    9  A    between atoms: P_13  and  O_14 
ROOT
HETATM    1  C           1     -20.902  -5.160  -6.400  0.00  0.00     0.298 C 
ENDROOT
BRANCH   1   2
HETATM    2  C           1     -21.619  -6.018  -5.386  0.00  0.00     0.251 C 
HETATM    3  N           1     -20.901  -6.787  -4.511  0.00  0.00    -0.344 N 
HETATM    4  H           1     -19.890  -6.780  -4.542  0.00  0.00     0.163 HD
HETATM    5  O           1     -22.827  -6.027  -5.349  0.00  0.00    -0.271 OA
BRANCH   3   6
HETATM    6  C           1     -21.590  -7.613  -3.538  0.00  0.00     0.189 C 
BRANCH   6   7
HETATM    7  C           1     -20.855  -8.938  -3.385  0.00  0.00     0.010 C 
HETATM    8  C           1     -21.662 -10.045  -4.049  0.00  0.00     0.012 C 
HETATM    9  C           1     -19.487  -8.838  -4.048  0.00  0.00     0.012 C 
ENDBRANCH   6   7
BRANCH   6  10
HETATM   10  C           1     -21.624  -6.899  -2.208  0.00  0.00     0.197 C 
HETATM   11  O           1     -22.186  -5.788  -2.109  0.00  0.00    -0.646 OA
HETATM   12  O           1     -21.089  -7.421  -1.206  0.00  0.00    -0.646 OA
ENDBRANCH   6  10
ENDBRANCH   3   6
ENDBRANCH   1   2
BRANCH   1  13
HETATM   13  C           1     -21.921  -4.356  -7.197  0.00  0.00     0.224 C 
BRANCH  13  14
HETATM   14  O           1     -22.100  -4.946  -8.456  0.00  0.00    -0.287 OA
BRANCH  14  15
HETATM   15  P           1     -23.125  -4.192  -9.451  0.00  0.00     0.406 P 
HETATM   16  O           1     -23.801  -5.191 -10.309  0.00  0.00    -0.624 OA
HETATM   17  O           1     -22.378  -3.238 -10.298  0.00  0.00    -0.624 OA
BRANCH  15  18
HETATM   18  O           1     -24.230  -3.394  -8.584  0.00  0.00    -0.300 OA
HETATM   19  H           1     -24.153  -2.496  -8.858  0.00  0.00     0.223 HD
ENDBRANCH  15  18
ENDBRANCH  14  15
ENDBRANCH  13  14
ENDBRANCH   1  13
BRANCH   1  20
HETATM   20  N           1     -20.117  -6.035  -7.331  0.00  0.00    -0.064 N 
HETATM   21  H           1     -19.659  -6.801  -6.787  0.00  0.00     0.275 HD
HETATM   22  H           1     -20.760  -6.450  -8.043  0.00  0.00     0.275 HD
HETATM   23  H           1     -19.386  -5.463  -7.812  0.00  0.00     0.275 HD
ENDBRANCH   1  20
TORSDOF 9
ENDMDL
MODEL 6
REMARK VINA RESULT:      -5.7      3.282      6.707
REMARK  9 active torsions:
REMARK  status: ('A' for Active; 'I' for Inactive)
REMARK    1  A    between atoms: C_2  and  C_4 
REMARK    2  A    between atoms: C_4  and  C_5 
REMARK    3  A    between atoms: C_4  and  N_8 
REMARK       I    between atoms: N_8  and  C_9 
REMARK    4  A    between atoms: C_9  and  C_10 
REMARK    5  A    between atoms: C_10  and  C_11 
REMARK    6  A    between atoms: C_10  and  N_17 
REMARK    7  A    between atoms: C_11  and  O_12 
REMARK    8  A    between atoms: O_12  and  P_13 
REMARK    9  A    between atoms: P_13  and  O_14 
ROOT
HETATM    1  C           1     -21.753  -3.734 -10.811  0.00  0.00     0.298 C 
ENDROOT
BRANCH   1   2
HETATM    2  C           1     -20.947  -4.472  -9.771  0.00  0.00     0.251 C 
HETATM    3  N           1     -21.441  -4.626  -8.504  0.00  0.00    -0.344 N 
HETATM    4  H           1     -22.347  -4.246  -8.265  0.00  0.00     0.163 HD
HETATM    5  O           1     -19.863  -4.926 -10.057  0.00  0.00    -0.271 OA
BRANCH   3   6
HETATM    6  C           1     -20.665  -5.334  -7.504  0.00  0.00     0.189 C 
BRANCH   6   7
HETATM    7  C           1     -19.845  -4.336  -6.696  0.00  0.00     0.010 C 
HETATM    8  C           1     -19.955  -4.671  -5.215  0.00  0.00     0.012 C 
HETATM    9  C           1     -18.386  -4.411  -7.128  0.00  0.00     0.012 C 
ENDBRANCH   6   7
BRANCH   6  10
HETATM   10  C           1     -21.597  -6.083  -6.582  0.00  0.00     0.197 C 
HETATM   11  O           1     -22.577  -5.498  -6.075  0.00  0.00    -0.646 OA
HETATM   12  O           1     -21.388  -7.289  -6.329  0.00  0.00    -0.646 OA
ENDBRANCH   6  10
ENDBRANCH   3   6
ENDBRANCH   1   2
BRANCH   1  13
HETATM   13  C           1     -22.972  -4.563 -11.192  0.00  0.00     0.224 C 
BRANCH  13  14
HETATM   14  O           1     -24.084  -3.721 -11.336  0.00  0.00    -0.287 OA
BRANCH  14  15
HETATM   15  P           1     -24.377  -3.184 -12.830  0.00  0.00     0.406 P 
HETATM   16  O           1     -23.443  -2.079 -13.147  0.00  0.00    -0.624 OA
HETATM   17  O           1     -25.770  -2.692 -12.913  0.00  0.00    -0.624 OA
BRANCH  15  18
HETATM   18  O           1     -24.166  -4.386 -13.887  0.00  0.00    -0.300 OA
HETATM   19  H           1     -23.234  -4.517 -13.925  0.00  0.00     0.223 HD
ENDBRANCH  15  18
ENDBRANCH  14  15
ENDBRANCH  13  14
ENDBRANCH   1  13
BRANCH   1  20
HETATM   20  N           1     -20.907  -3.500 -12.027  0.00  0.00    -0.064 N 
HETATM   21  H           1     -21.509  -3.521 -12.881  0.00  0.00     0.275 HD
HETATM   22  H           1     -20.441  -2.568 -11.952  0.00  0.00     0.275 HD
HETATM   23  H           1     -20.181  -4.249 -12.094  0.00  0.00     0.275 HD
ENDBRANCH   1  20
TORSDOF 9
ENDMDL
MODEL 7
REMARK VINA RESULT:      -5.5      4.816      8.125
REMARK  9 active torsions:
REMARK  status: ('A' for Active; 'I' for Inactive)
REMARK    1  A    between atoms: C_2  and  C_4 
REMARK    2  A    between atoms: C_4  and  C_5 
REMARK    3  A    between atoms: C_4  and  N_8 
REMARK       I    between atoms: N_8  and  C_9 
REMARK    4  A    between atoms: C_9  and  C_10 
REMARK    5  A    between atoms: C_10  and  C_11 
REMARK    6  A    between atoms: C_10  and  N_17 
REMARK    7  A    between atoms: C_11  and  O_12 
REMARK    8  A    between atoms: O_12  and  P_13 
REMARK    9  A    between atoms: P_13  and  O_14 
ROOT
HETATM    1  C           1     -19.933  -8.227  -4.740  0.00  0.00     0.298 C 
ENDROOT
BRANCH   1   2
HETATM    2  C           1     -20.065  -8.657  -3.299  0.00  0.00     0.251 C 
HETATM    3  N           1     -21.282  -8.596  -2.675  0.00  0.00    -0.344 N 
HETATM    4  H           1     -22.093  -8.263  -3.180  0.00  0.00     0.163 HD
HETATM    5  O           1     -19.096  -9.055  -2.696  0.00  0.00    -0.271 OA
BRANCH   3   6
HETATM    6  C           1     -21.408  -9.008  -1.291  0.00  0.00     0.189 C 
BRANCH   6   7
HETATM    7  C           1     -22.377  -8.079  -0.571  0.00  0.00     0.010 C 
HETATM    8  C           1     -22.006  -8.003   0.904  0.00  0.00     0.012 C 
HETATM    9  C           1     -22.298  -6.688  -1.188  0.00  0.00     0.012 C 
ENDBRANCH   6   7
BRANCH   6  10
HETATM   10  C           1     -21.932 -10.423  -1.234  0.00  0.00     0.197 C 
HETATM   11  O           1     -23.035 -10.702  -1.750  0.00  0.00    -0.646 OA
HETATM   12  O           1     -21.261 -11.315  -0.671  0.00  0.00    -0.646 OA
ENDBRANCH   6  10
ENDBRANCH   3   6
ENDBRANCH   1   2
BRANCH   1  13
HETATM   13  C           1     -21.310  -7.906  -5.303  0.00  0.00     0.224 C 
BRANCH  13  14
HETATM   14  O           1     -21.613  -6.559  -5.059  0.00  0.00    -0.287 OA
BRANCH  14  15
HETATM   15  P           1     -21.253  -5.525  -6.246  0.00  0.00     0.406 P 
HETATM   16  O           1     -20.628  -6.263  -7.368  0.00  0.00    -0.624 OA
HETATM   17  O           1     -20.309  -4.504  -5.741  0.00  0.00    -0.624 OA
BRANCH  15  18
HETATM   18  O           1     -22.602  -4.804  -6.763  0.00  0.00    -0.300 OA
HETATM   19  H           1     -22.307  -4.068  -7.270  0.00  0.00     0.223 HD
ENDBRANCH  15  18
ENDBRANCH  14  15
ENDBRANCH  13  14
ENDBRANCH   1  13
BRANCH   1  20
HETATM   20  N           1     -19.312  -9.335  -5.538  0.00  0.00    -0.064 N 
HETATM   21  H           1     -19.501 -10.250  -5.070  0.00  0.00     0.275 HD
HETATM   22  H           1     -19.723  -9.343  -6.498  0.00  0.00     0.275 HD
HETATM   23  H           1     -18.280  -9.182  -5.601  0.00  0.00     0.275 HD
ENDBRANCH   1  20
TORSDOF 9
ENDMDL
MODEL 8
REMARK VINA RESULT:      -5.5      3.299      6.996
REMARK  9 active torsions:
REMARK  status: ('A' for Active; 'I' for Inactive)
REMARK    1  A    between atoms: C_2  and  C_4 
REMARK    2  A    between atoms: C_4  and  C_5 
REMARK    3  A    between atoms: C_4  and  N_8 
REMARK       I    between atoms: N_8  and  C_9 
REMARK    4  A    between atoms: C_9  and  C_10 
REMARK    5  A    between atoms: C_10  and  C_11 
REMARK    6  A    between atoms: C_10  and  N_17 
REMARK    7  A    between atoms: C_11  and  O_12 
REMARK    8  A    between atoms: O_12  and  P_13 
REMARK    9  A    between atoms: P_13  and  O_14 
ROOT
HETATM    1  C           1     -22.419  -3.773 -10.147  0.00  0.00     0.298 C 
ENDROOT
BRANCH   1   2
HETATM    2  C           1     -22.452  -4.097  -8.674  0.00  0.00     0.251 C 
HETATM    3  N           1     -21.325  -4.558  -8.049  0.00  0.00    -0.344 N 
HETATM    4  H           1     -20.469  -4.679  -8.574  0.00  0.00     0.163 HD
HETATM    5  O           1     -23.475  -3.952  -8.046  0.00  0.00    -0.271 OA
BRANCH   3   6
HETATM    6  C           1     -21.357  -4.870  -6.633  0.00  0.00     0.189 C 
BRANCH   6   7
HETATM    7  C           1     -21.680  -6.348  -6.447  0.00  0.00     0.010 C 
HETATM    8  C           1     -20.388  -7.127  -6.244  0.00  0.00     0.012 C 
HETATM    9  C           1     -22.575  -6.521  -5.227  0.00  0.00     0.012 C 
ENDBRANCH   6   7
BRANCH   6  10
HETATM   10  C           1     -20.011  -4.568  -6.021  0.00  0.00     0.197 C 
HETATM   11  O           1     -18.998  -4.488  -6.747  0.00  0.00    -0.646 OA
HETATM   12  O           1     -19.911  -4.398  -4.786  0.00  0.00    -0.646 OA
ENDBRANCH   6  10
ENDBRANCH   3   6
ENDBRANCH   1   2
BRANCH   1  13
HETATM   13  C           1     -23.775  -4.079 -10.766  0.00  0.00     0.224 C 
BRANCH  13  14
HETATM   14  O           1     -24.221  -2.965 -11.492  0.00  0.00    -0.287 OA
BRANCH  14  15
HETATM   15  P           1     -23.883  -2.968 -13.071  0.00  0.00     0.406 P 
HETATM   16  O           1     -24.514  -4.147 -13.707  0.00  0.00    -0.624 OA
HETATM   17  O           1     -22.417  -3.029 -13.261  0.00  0.00    -0.624 OA
BRANCH  15  18
HETATM   18  O           1     -24.460  -1.620 -13.749  0.00  0.00    -0.300 OA
HETATM   19  H           1     -23.726  -1.243 -14.203  0.00  0.00     0.223 HD
ENDBRANCH  15  18
ENDBRANCH  14  15
ENDBRANCH  13  14
ENDBRANCH   1  13
BRANCH   1  20
HETATM   20  N           1     -21.364  -4.601 -10.818  0.00  0.00    -0.064 N 
HETATM   21  H           1     -20.432  -4.144 -10.700  0.00  0.00     0.275 HD
HETATM   22  H           1     -21.343  -5.553 -10.387  0.00  0.00     0.275 HD
HETATM   23  H           1     -21.585  -4.685 -11.837  0.00  0.00     0.275 HD
ENDBRANCH   1  20
TORSDOF 9
ENDMDL
MODEL 9
REMARK VINA RESULT:      -5.4      2.904      6.698
REMARK  9 active torsions:
REMARK  status: ('A' for Active; 'I' for Inactive)
REMARK    1  A    between atoms: C_2  and  C_4 
REMARK    2  A    between atoms: C_4  and  C_5 
REMARK    3  A    between atoms: C_4  and  N_8 
REMARK       I    between atoms: N_8  and  C_9 
REMARK    4  A    between atoms: C_9  and  C_10 
REMARK    5  A    between atoms: C_10  and  C_11 
REMARK    6  A    between atoms: C_10  and  N_17 
REMARK    7  A    between atoms: C_11  and  O_12 
REMARK    8  A    between atoms: O_12  and  P_13 
REMARK    9  A    between atoms: P_13  and  O_14 
ROOT
HETATM    1  C           1     -21.358  -4.219  -8.769  0.00  0.00     0.298 C 
ENDROOT
BRANCH   1   2
HETATM    2  C           1     -21.886  -4.866  -7.513  0.00  0.00     0.251 C 
HETATM    3  N           1     -21.152  -5.832  -6.880  0.00  0.00    -0.344 N 
HETATM    4  H           1     -20.254  -6.111  -7.253  0.00  0.00     0.163 HD
HETATM    5  O           1     -22.959  -4.533  -7.068  0.00  0.00    -0.271 OA
BRANCH   3   6
HETATM    6  C           1     -21.660  -6.455  -5.673  0.00  0.00     0.189 C 
BRANCH   6   7
HETATM    7  C           1     -21.199  -7.906  -5.618  0.00  0.00     0.010 C 
HETATM    8  C           1     -19.686  -7.950  -5.446  0.00  0.00     0.012 C 
HETATM    9  C           1     -21.866  -8.605  -4.439  0.00  0.00     0.012 C 
ENDBRANCH   6   7
BRANCH   6  10
HETATM   10  C           1     -21.137  -5.714  -4.466  0.00  0.00     0.197 C 
HETATM   11  O           1     -21.657  -5.899  -3.346  0.00  0.00    -0.646 OA
HETATM   12  O           1     -20.183  -4.915  -4.590  0.00  0.00    -0.646 OA
ENDBRANCH   6  10
ENDBRANCH   3   6
ENDBRANCH   1   2
BRANCH   1  13
HETATM   13  C           1     -22.314  -4.491  -9.923  0.00  0.00     0.224 C 
BRANCH  13  14
HETATM   14  O           1     -22.657  -3.280 -10.542  0.00  0.00    -0.287 OA
BRANCH  14  15
HETATM   15  P           1     -23.861  -3.350 -11.616  0.00  0.00     0.406 P 
HETATM   16  O           1     -25.152  -3.149 -10.920  0.00  0.00    -0.624 OA
HETATM   17  O           1     -23.856  -4.675 -12.275  0.00  0.00    -0.624 OA
BRANCH  15  18
HETATM   18  O           1     -23.662  -2.194 -12.726  0.00  0.00    -0.300 OA
HETATM   19  H           1     -22.805  -2.346 -13.085  0.00  0.00     0.223 HD
ENDBRANCH  15  18
ENDBRANCH  14  15
ENDBRANCH  13  14
ENDBRANCH   1  13
BRANCH   1  20
HETATM   20  N           1     -20.008  -4.786  -9.095  0.00  0.00    -0.064 N 
HETATM   21  H           1     -19.912  -5.731  -8.660  0.00  0.00     0.275 HD
HETATM   22  H           1     -19.907  -4.868 -10.132  0.00  0.00     0.275 HD
HETATM   23  H           1     -19.266  -4.152  -8.721  0.00  0.00     0.275 HD
ENDBRANCH   1  20
TORSDOF 9
ENDMDL
