MODEL 1
REMARK VINA RESULT:      -5.7      0.000      0.000
REMARK  8 active torsions:
REMARK  status: ('A' for Active; 'I' for Inactive)
REMARK    1  A    between atoms: C_2  and  C_4 
REMARK    2  A    between atoms: C_4  and  C_23 
REMARK    3  A    between atoms: C_4  and  N_16 
REMARK       I    between atoms: N_16  and  C_17 
REMARK    4  A    between atoms: C_17  and  C_18 
REMARK    5  A    between atoms: C_18  and  C_19 
REMARK    6  A    between atoms: C_18  and  N_21 
REMARK    7  A    between atoms: C_19  and  Se_20 
REMARK    8  A    between atoms: C_23  and  C_24 
ROOT
HETATM    1  C           1     -36.148  -0.361 -11.128  0.00  0.00     0.191 C 
ENDROOT
BRANCH   1   2
HETATM    2  C           1     -36.902   0.484 -10.131  0.00  0.00     0.197 C 
HETATM    3  O           1     -36.352   0.828  -9.061  0.00  0.00    -0.646 OA
HETATM    4  O           1     -38.075   0.839 -10.373  0.00  0.00    -0.646 OA
ENDBRANCH   1   2
BRANCH   1   5
HETATM    5  C           1     -37.029  -0.621 -12.343  0.00  0.00     0.094 C 
BRANCH   5   6
HETATM    6  C           1     -36.368  -0.068 -13.567  0.00  0.00     0.028 A 
HETATM    7  C           1     -35.012   0.105 -13.712  0.00  0.00     0.114 A 
HETATM    8  N           1     -34.855   0.628 -14.966  0.00  0.00    -0.360 N 
HETATM    9  H           1     -33.945   0.889 -15.420  0.00  0.00     0.166 HD
HETATM   10  C           1     -36.097   0.750 -15.519  0.00  0.00     0.180 A 
HETATM   11  N           1     -37.033   0.337 -14.696  0.00  0.00    -0.354 N 
ATOM     12  HN          1     -38.039   0.321 -14.861  1.00  0.00     0.166 HD
ENDBRANCH   5   6
ENDBRANCH   1   5
BRANCH   1  13
HETATM   13  N           1     -35.786  -1.625 -10.515  0.00  0.00    -0.344 N 
HETATM   14  H           1     -36.479  -2.154 -10.001  0.00  0.00     0.163 HD
HETATM   15  C           1     -34.508  -2.100 -10.630  0.00  0.00     0.249 C 
HETATM   16  O           1     -33.676  -1.808  -9.805  0.00  0.00    -0.271 OA
BRANCH  15  17
HETATM   17  C           1     -34.137  -2.992 -11.791  0.00  0.00     0.274 C 
BRANCH  17  18
HETATM   18  C           1     -35.073  -4.193 -11.830  0.00  0.00     0.045 C 
BRANCH  18  19
HETATM   19 Se           1     -34.326  -5.635 -10.752  0.00  0.00     0.000 Se
HETATM   20  H           1     -33.069  -5.709 -11.516  0.00  0.00     0.000 HD
ENDBRANCH  18  19
ENDBRANCH  17  18
BRANCH  17  21
HETATM   21  N           1     -32.723  -3.466 -11.624  0.00  0.00    -0.067 N 
HETATM   22  H           1     -32.134  -2.682 -11.263  0.00  0.00     0.275 HD
HETATM   23  H           1     -32.352  -3.784 -12.549  0.00  0.00     0.275 HD
HETATM   24  H           1     -32.699  -4.261 -10.948  0.00  0.00     0.275 HD
ENDBRANCH  17  21
ENDBRANCH  15  17
ENDBRANCH   1  13
TORSDOF 8
ENDMDL
MODEL 2
REMARK VINA RESULT:      -5.6      1.914      2.343
REMARK  8 active torsions:
REMARK  status: ('A' for Active; 'I' for Inactive)
REMARK    1  A    between atoms: C_2  and  C_4 
REMARK    2  A    between atoms: C_4  and  C_23 
REMARK    3  A    between atoms: C_4  and  N_16 
REMARK       I    between atoms: N_16  and  C_17 
REMARK    4  A    between atoms: C_17  and  C_18 
REMARK    5  A    between atoms: C_18  and  C_19 
REMARK    6  A    between atoms: C_18  and  N_21 
REMARK    7  A    between atoms: C_19  and  Se_20 
REMARK    8  A    between atoms: C_23  and  C_24 
ROOT
HETATM    1  C           1     -34.635  -1.565 -11.714  0.00  0.00     0.191 C 
ENDROOT
BRANCH   1   2
HETATM    2  C           1     -35.821  -1.382 -10.799  0.00  0.00     0.197 C 
HETATM    3  O           1     -35.785  -0.520  -9.893  0.00  0.00    -0.646 OA
HETATM    4  O           1     -36.839  -2.092 -10.945  0.00  0.00    -0.646 OA
ENDBRANCH   1   2
BRANCH   1   5
HETATM    5  C           1     -35.123  -1.923 -13.112  0.00  0.00     0.094 C 
BRANCH   5   6
HETATM    6  C           1     -35.470  -0.670 -13.854  0.00  0.00     0.028 A 
HETATM    7  C           1     -36.750  -0.276 -14.166  0.00  0.00     0.114 A 
HETATM    8  N           1     -36.603   0.907 -14.835  0.00  0.00    -0.360 N 
HETATM    9  H           1     -37.375   1.500 -15.227  0.00  0.00     0.166 HD
HETATM   10  C           1     -35.266   1.178 -14.903  0.00  0.00     0.180 A 
HETATM   11  N           1     -34.556   0.240 -14.318  0.00  0.00    -0.354 N 
ATOM     12  HN          1     -33.541   0.199 -14.228  1.00  0.00     0.166 HD
ENDBRANCH   5   6
ENDBRANCH   1   5
BRANCH   1  13
HETATM   13  N           1     -33.796  -2.634 -11.207  0.00  0.00    -0.344 N 
HETATM   14  H           1     -33.231  -2.486 -10.381  0.00  0.00     0.163 HD
HETATM   15  C           1     -33.767  -3.843 -11.848  0.00  0.00     0.249 C 
HETATM   16  O           1     -32.966  -4.041 -12.731  0.00  0.00    -0.271 OA
BRANCH  15  17
HETATM   17  C           1     -34.737  -4.930 -11.453  0.00  0.00     0.274 C 
BRANCH  17  18
HETATM   18  C           1     -34.235  -5.627 -10.195  0.00  0.00     0.045 C 
BRANCH  18  19
HETATM   19 Se           1     -34.764  -7.503 -10.236  0.00  0.00     0.000 Se
HETATM   20  H           1     -35.095  -7.559  -8.802  0.00  0.00     0.000 HD
ENDBRANCH  18  19
ENDBRANCH  17  18
BRANCH  17  21
HETATM   21  N           1     -34.849  -5.929 -12.567  0.00  0.00    -0.067 N 
HETATM   22  H           1     -33.932  -5.999 -13.064  0.00  0.00     0.275 HD
HETATM   23  H           1     -35.588  -5.619 -13.239  0.00  0.00     0.275 HD
HETATM   24  H           1     -35.106  -6.862 -12.175  0.00  0.00     0.275 HD
ENDBRANCH  17  21
ENDBRANCH  15  17
ENDBRANCH   1  13
TORSDOF 8
ENDMDL
MODEL 3
REMARK VINA RESULT:      -5.6      3.313      6.427
REMARK  8 active torsions:
REMARK  status: ('A' for Active; 'I' for Inactive)
REMARK    1  A    between atoms: C_2  and  C_4 
REMARK    2  A    between atoms: C_4  and  C_23 
REMARK    3  A    between atoms: C_4  and  N_16 
REMARK       I    between atoms: N_16  and  C_17 
REMARK    4  A    between atoms: C_17  and  C_18 
REMARK    5  A    between atoms: C_18  and  C_19 
REMARK    6  A    between atoms: C_18  and  N_21 
REMARK    7  A    between atoms: C_19  and  Se_20 
REMARK    8  A    between atoms: C_23  and  C_24 
ROOT
HETATM    1  C           1     -33.666  -4.264 -11.835  0.00  0.00     0.191 C 
ENDROOT
BRANCH   1   2
HETATM    2  C           1     -34.426  -4.520 -13.113  0.00  0.00     0.197 C 
HETATM    3  O           1     -34.300  -3.740 -14.083  0.00  0.00    -0.646 OA
HETATM    4  O           1     -35.183  -5.510 -13.203  0.00  0.00    -0.646 OA
ENDBRANCH   1   2
BRANCH   1   5
HETATM    5  C           1     -34.519  -4.680 -10.644  0.00  0.00     0.094 C 
BRANCH   5   6
HETATM    6  C           1     -34.338  -6.144 -10.389  0.00  0.00     0.028 A 
HETATM    7  C           1     -35.158  -6.906  -9.591  0.00  0.00     0.114 A 
HETATM    8  N           1     -34.629  -8.166  -9.641  0.00  0.00    -0.360 N 
HETATM    9  H           1     -35.000  -9.015  -9.148  0.00  0.00     0.166 HD
HETATM   10  C           1     -33.530  -8.119 -10.450  0.00  0.00     0.180 A 
HETATM   11  N           1     -33.329  -6.908 -10.917  0.00  0.00    -0.354 N 
ATOM     12  HN          1     -32.581  -6.602 -11.539  1.00  0.00     0.166 HD
ENDBRANCH   5   6
ENDBRANCH   1   5
BRANCH   1  13
HETATM   13  N           1     -33.354  -2.851 -11.735  0.00  0.00    -0.344 N 
HETATM   14  H           1     -32.584  -2.464 -12.264  0.00  0.00     0.163 HD
HETATM   15  C           1     -34.101  -2.042 -10.922  0.00  0.00     0.249 C 
HETATM   16  O           1     -33.783  -1.884  -9.767  0.00  0.00    -0.271 OA
BRANCH  15  17
HETATM   17  C           1     -35.324  -1.345 -11.469  0.00  0.00     0.274 C 
BRANCH  17  18
HETATM   18  C           1     -34.916  -0.427 -12.614  0.00  0.00     0.045 C 
BRANCH  18  19
HETATM   19 Se           1     -36.456  -0.096 -13.762  0.00  0.00     0.000 Se
HETATM   20  H           1     -36.826   1.164 -13.096  0.00  0.00     0.000 HD
ENDBRANCH  18  19
ENDBRANCH  17  18
BRANCH  17  21
HETATM   21  N           1     -35.964  -0.533 -10.382  0.00  0.00    -0.067 N 
HETATM   22  H           1     -36.931  -0.887 -10.207  0.00  0.00     0.275 HD
HETATM   23  H           1     -36.007   0.470 -10.676  0.00  0.00     0.275 HD
HETATM   24  H           1     -35.399  -0.614  -9.507  0.00  0.00     0.275 HD
ENDBRANCH  17  21
ENDBRANCH  15  17
ENDBRANCH   1  13
TORSDOF 8
ENDMDL
MODEL 4
REMARK VINA RESULT:      -5.5     12.096     13.743
REMARK  8 active torsions:
REMARK  status: ('A' for Active; 'I' for Inactive)
REMARK    1  A    between atoms: C_2  and  C_4 
REMARK    2  A    between atoms: C_4  and  C_23 
REMARK    3  A    between atoms: C_4  and  N_16 
REMARK       I    between atoms: N_16  and  C_17 
REMARK    4  A    between atoms: C_17  and  C_18 
REMARK    5  A    between atoms: C_18  and  C_19 
REMARK    6  A    between atoms: C_18  and  N_21 
REMARK    7  A    between atoms: C_19  and  Se_20 
REMARK    8  A    between atoms: C_23  and  C_24 
ROOT
HETATM    1  C           1     -23.138  -3.595  -9.274  0.00  0.00     0.191 C 
ENDROOT
BRANCH   1   2
HETATM    2  C           1     -24.621  -3.715  -9.525  0.00  0.00     0.197 C 
HETATM    3  O           1     -25.131  -4.838  -9.733  0.00  0.00    -0.646 OA
HETATM    4  O           1     -25.340  -2.693  -9.525  0.00  0.00    -0.646 OA
ENDBRANCH   1   2
BRANCH   1   5
HETATM    5  C           1     -22.378  -4.384 -10.333  0.00  0.00     0.094 C 
BRANCH   5   6
HETATM    6  C           1     -22.764  -3.892 -11.693  0.00  0.00     0.028 A 
HETATM    7  C           1     -22.350  -2.700 -12.240  0.00  0.00     0.114 A 
HETATM    8  N           1     -22.932  -2.657 -13.476  0.00  0.00    -0.360 N 
HETATM    9  H           1     -22.837  -1.885 -14.181  0.00  0.00     0.166 HD
HETATM   10  C           1     -23.663  -3.801 -13.627  0.00  0.00     0.180 A 
HETATM   11  N           1     -23.580  -4.567 -12.564  0.00  0.00    -0.354 N 
ATOM     12  HN          1     -24.027  -5.472 -12.417  1.00  0.00     0.166 HD
ENDBRANCH   5   6
ENDBRANCH   1   5
BRANCH   1  13
HETATM   13  N           1     -22.826  -4.125  -7.961  0.00  0.00    -0.344 N 
HETATM   14  H           1     -23.548  -4.573  -7.411  0.00  0.00     0.163 HD
HETATM   15  C           1     -21.555  -4.019  -7.464  0.00  0.00     0.249 C 
HETATM   16  O           1     -21.237  -3.051  -6.815  0.00  0.00    -0.271 OA
BRANCH  15  17
HETATM   17  C           1     -20.547  -5.113  -7.728  0.00  0.00     0.274 C 
BRANCH  17  18
HETATM   18  C           1     -20.922  -6.353  -6.927  0.00  0.00     0.045 C 
BRANCH  18  19
HETATM   19 Se           1     -21.036  -5.895  -5.036  0.00  0.00     0.000 Se
HETATM   20  H           1     -19.578  -5.810  -4.850  0.00  0.00     0.000 HD
ENDBRANCH  18  19
ENDBRANCH  17  18
BRANCH  17  21
HETATM   21  N           1     -19.183  -4.645  -7.316  0.00  0.00    -0.067 N 
HETATM   22  H           1     -19.066  -3.640  -7.579  0.00  0.00     0.275 HD
HETATM   23  H           1     -18.457  -5.220  -7.802  0.00  0.00     0.275 HD
HETATM   24  H           1     -19.075  -4.750  -6.283  0.00  0.00     0.275 HD
ENDBRANCH  17  21
ENDBRANCH  15  17
ENDBRANCH   1  13
TORSDOF 8
ENDMDL
MODEL 5
REMARK VINA RESULT:      -5.2     13.581     15.827
REMARK  8 active torsions:
REMARK  status: ('A' for Active; 'I' for Inactive)
REMARK    1  A    between atoms: C_2  and  C_4 
REMARK    2  A    between atoms: C_4  and  C_23 
REMARK    3  A    between atoms: C_4  and  N_16 
REMARK       I    between atoms: N_16  and  C_17 
REMARK    4  A    between atoms: C_17  and  C_18 
REMARK    5  A    between atoms: C_18  and  C_19 
REMARK    6  A    between atoms: C_18  and  N_21 
REMARK    7  A    between atoms: C_19  and  Se_20 
REMARK    8  A    between atoms: C_23  and  C_24 
ROOT
HETATM    1  C           1     -21.310  -5.984  -7.100  0.00  0.00     0.191 C 
ENDROOT
BRANCH   1   2
HETATM    2  C           1     -19.811  -5.919  -6.943  0.00  0.00     0.197 C 
HETATM    3  O           1     -19.152  -6.972  -6.794  0.00  0.00    -0.646 OA
HETATM    4  O           1     -19.227  -4.814  -6.961  0.00  0.00    -0.646 OA
ENDBRANCH   1   2
BRANCH   1   5
HETATM    5  C           1     -21.903  -4.597  -6.889  0.00  0.00     0.094 C 
BRANCH   5   6
HETATM    6  C           1     -22.618  -4.166  -8.131  0.00  0.00     0.028 A 
HETATM    7  C           1     -22.011  -3.934  -9.343  0.00  0.00     0.114 A 
HETATM    8  N           1     -23.025  -3.566 -10.183  0.00  0.00    -0.360 N 
HETATM    9  H           1     -22.930  -3.312 -11.197  0.00  0.00     0.166 HD
HETATM   10  C           1     -24.184  -3.586  -9.461  0.00  0.00     0.180 A 
HETATM   11  N           1     -23.969  -3.946  -8.217  0.00  0.00    -0.354 N 
ATOM     12  HN          1     -24.660  -4.040  -7.472  1.00  0.00     0.166 HD
ENDBRANCH   5   6
ENDBRANCH   1   5
BRANCH   1  13
HETATM   13  N           1     -21.859  -6.898  -6.118  0.00  0.00    -0.344 N 
HETATM   14  H           1     -21.853  -7.895  -6.294  0.00  0.00     0.163 HD
HETATM   15  C           1     -22.387  -6.413  -4.952  0.00  0.00     0.249 C 
HETATM   16  O           1     -23.558  -6.124  -4.891  0.00  0.00    -0.271 OA
BRANCH  15  17
HETATM   17  C           1     -21.504  -6.239  -3.739  0.00  0.00     0.274 C 
BRANCH  17  18
HETATM   18  C           1     -20.752  -7.535  -3.466  0.00  0.00     0.045 C 
BRANCH  18  19
HETATM   19 Se           1     -21.149  -8.150  -1.660  0.00  0.00     0.000 Se
HETATM   20  H           1     -22.226  -9.060  -2.083  0.00  0.00     0.000 HD
ENDBRANCH  18  19
ENDBRANCH  17  18
BRANCH  17  21
HETATM   21  N           1     -22.352  -5.894  -2.550  0.00  0.00    -0.067 N 
HETATM   22  H           1     -21.816  -5.263  -1.912  0.00  0.00     0.275 HD
HETATM   23  H           1     -22.609  -6.770  -2.040  0.00  0.00     0.275 HD
HETATM   24  H           1     -23.221  -5.410  -2.869  0.00  0.00     0.275 HD
ENDBRANCH  17  21
ENDBRANCH  15  17
ENDBRANCH   1  13
TORSDOF 8
ENDMDL
MODEL 6
REMARK VINA RESULT:      -5.2     13.870     15.453
REMARK  8 active torsions:
REMARK  status: ('A' for Active; 'I' for Inactive)
REMARK    1  A    between atoms: C_2  and  C_4 
REMARK    2  A    between atoms: C_4  and  C_23 
REMARK    3  A    between atoms: C_4  and  N_16 
REMARK       I    between atoms: N_16  and  C_17 
REMARK    4  A    between atoms: C_17  and  C_18 
REMARK    5  A    between atoms: C_18  and  C_19 
REMARK    6  A    between atoms: C_18  and  N_21 
REMARK    7  A    between atoms: C_19  and  Se_20 
REMARK    8  A    between atoms: C_23  and  C_24 
ROOT
HETATM    1  C           1     -21.780  -4.999  -7.702  0.00  0.00     0.191 C 
ENDROOT
BRANCH   1   2
HETATM    2  C           1     -20.282  -5.060  -7.874  0.00  0.00     0.197 C 
HETATM    3  O           1     -19.703  -6.168  -7.919  0.00  0.00    -0.646 OA
HETATM    4  O           1     -19.620  -4.005  -7.970  0.00  0.00    -0.646 OA
ENDBRANCH   1   2
BRANCH   1   5
HETATM    5  C           1     -22.328  -3.787  -8.444  0.00  0.00     0.094 C 
BRANCH   5   6
HETATM    6  C           1     -22.609  -4.158  -9.867  0.00  0.00     0.028 A 
HETATM    7  C           1     -21.806  -3.832 -10.933  0.00  0.00     0.114 A 
HETATM    8  N           1     -22.434  -4.362 -12.025  0.00  0.00    -0.360 N 
HETATM    9  H           1     -22.104  -4.307 -13.020  0.00  0.00     0.166 HD
HETATM   10  C           1     -23.572  -4.977 -11.586  0.00  0.00     0.180 A 
HETATM   11  N           1     -23.704  -4.870 -10.284  0.00  0.00    -0.354 N 
ATOM     12  HN          1     -24.461  -5.237  -9.707  1.00  0.00     0.166 HD
ENDBRANCH   5   6
ENDBRANCH   1   5
BRANCH   1  13
HETATM   13  N           1     -22.100  -4.887  -6.292  0.00  0.00    -0.344 N 
HETATM   14  H           1     -22.875  -4.310  -5.993  0.00  0.00     0.163 HD
HETATM   15  C           1     -21.351  -5.560  -5.365  0.00  0.00     0.249 C 
HETATM   16  O           1     -20.378  -5.036  -4.876  0.00  0.00    -0.271 OA
BRANCH  15  17
HETATM   17  C           1     -21.740  -6.960  -4.953  0.00  0.00     0.274 C 
BRANCH  17  18
HETATM   18  C           1     -21.138  -7.274  -3.589  0.00  0.00     0.045 C 
BRANCH  18  19
HETATM   19 Se           1     -22.121  -6.313  -2.207  0.00  0.00     0.000 Se
HETATM   20  H           1     -20.920  -5.973  -1.427  0.00  0.00     0.000 HD
ENDBRANCH  18  19
ENDBRANCH  17  18
BRANCH  17  21
HETATM   21  N           1     -21.224  -7.940  -5.964  0.00  0.00    -0.067 N 
HETATM   22  H           1     -20.207  -7.765  -6.131  0.00  0.00     0.275 HD
HETATM   23  H           1     -21.749  -7.823  -6.861  0.00  0.00     0.275 HD
HETATM   24  H           1     -21.357  -8.912  -5.608  0.00  0.00     0.275 HD
ENDBRANCH  17  21
ENDBRANCH  15  17
ENDBRANCH   1  13
TORSDOF 8
ENDMDL
MODEL 7
REMARK VINA RESULT:      -5.1      2.991      5.182
REMARK  8 active torsions:
REMARK  status: ('A' for Active; 'I' for Inactive)
REMARK    1  A    between atoms: C_2  and  C_4 
REMARK    2  A    between atoms: C_4  and  C_23 
REMARK    3  A    between atoms: C_4  and  N_16 
REMARK       I    between atoms: N_16  and  C_17 
REMARK    4  A    between atoms: C_17  and  C_18 
REMARK    5  A    between atoms: C_18  and  C_19 
REMARK    6  A    between atoms: C_18  and  N_21 
REMARK    7  A    between atoms: C_19  and  Se_20 
REMARK    8  A    between atoms: C_23  and  C_24 
ROOT
HETATM    1  C           1     -36.443  -0.694 -12.203  0.00  0.00     0.191 C 
ENDROOT
BRANCH   1   2
HETATM    2  C           1     -36.953  -0.200 -10.871  0.00  0.00     0.197 C 
HETATM    3  O           1     -38.075  -0.567 -10.457  0.00  0.00    -0.646 OA
HETATM    4  O           1     -36.257   0.576 -10.184  0.00  0.00    -0.646 OA
ENDBRANCH   1   2
BRANCH   1   5
HETATM    5  C           1     -34.920  -0.709 -12.188  0.00  0.00     0.094 C 
BRANCH   5   6
HETATM    6  C           1     -34.438  -2.083 -11.838  0.00  0.00     0.028 A 
HETATM    7  C           1     -34.385  -3.140 -12.715  0.00  0.00     0.114 A 
HETATM    8  N           1     -33.891  -4.183 -11.982  0.00  0.00    -0.360 N 
HETATM    9  H           1     -33.715  -5.158 -12.330  0.00  0.00     0.166 HD
HETATM   10  C           1     -33.669  -3.727 -10.715  0.00  0.00     0.180 A 
HETATM   11  N           1     -33.992  -2.459 -10.597  0.00  0.00    -0.354 N 
ATOM     12  HN          1     -33.924  -1.879  -9.762  1.00  0.00     0.166 HD
ENDBRANCH   5   6
ENDBRANCH   1   5
BRANCH   1  13
HETATM   13  N           1     -36.906   0.189 -13.255  0.00  0.00    -0.344 N 
HETATM   14  H           1     -37.141   1.150 -13.043  0.00  0.00     0.163 HD
HETATM   15  C           1     -37.027  -0.277 -14.536  0.00  0.00     0.249 C 
HETATM   16  O           1     -38.067  -0.768 -14.906  0.00  0.00    -0.271 OA
BRANCH  15  17
HETATM   17  C           1     -35.860  -0.179 -15.489  0.00  0.00     0.274 C 
BRANCH  17  18
HETATM   18  C           1     -35.203   1.188 -15.349  0.00  0.00     0.045 C 
BRANCH  18  19
HETATM   19 Se           1     -36.263   2.520 -16.299  0.00  0.00     0.000 Se
HETATM   20  H           1     -35.097   3.310 -16.727  0.00  0.00     0.000 HD
ENDBRANCH  18  19
ENDBRANCH  17  18
BRANCH  17  21
HETATM   21  N           1     -36.347  -0.357 -16.896  0.00  0.00    -0.067 N 
HETATM   22  H           1     -35.530  -0.372 -17.548  0.00  0.00     0.275 HD
HETATM   23  H           1     -36.980   0.437 -17.149  0.00  0.00     0.275 HD
HETATM   24  H           1     -36.871  -1.257 -16.973  0.00  0.00     0.275 HD
ENDBRANCH  17  21
ENDBRANCH  15  17
ENDBRANCH   1  13
TORSDOF 8
ENDMDL
MODEL 8
REMARK VINA RESULT:      -4.8     16.583     18.229
REMARK  8 active torsions:
REMARK  status: ('A' for Active; 'I' for Inactive)
REMARK    1  A    between atoms: C_2  and  C_4 
REMARK    2  A    between atoms: C_4  and  C_23 
REMARK    3  A    between atoms: C_4  and  N_16 
REMARK       I    between atoms: N_16  and  C_17 
REMARK    4  A    between atoms: C_17  and  C_18 
REMARK    5  A    between atoms: C_18  and  C_19 
REMARK    6  A    between atoms: C_18  and  N_21 
REMARK    7  A    between atoms: C_19  and  Se_20 
REMARK    8  A    between atoms: C_23  and  C_24 
ROOT
HETATM    1  C           1     -20.321  -8.003  -4.735  0.00  0.00     0.191 C 
ENDROOT
BRANCH   1   2
HETATM    2  C           1     -19.278  -9.048  -5.049  0.00  0.00     0.197 C 
HETATM    3  O           1     -19.426  -9.802  -6.037  0.00  0.00    -0.646 OA
HETATM    4  O           1     -18.268  -9.161  -4.323  0.00  0.00    -0.646 OA
ENDBRANCH   1   2
BRANCH   1   5
HETATM    5  C           1     -21.414  -8.621  -3.873  0.00  0.00     0.094 C 
BRANCH   5   6
HETATM    6  C           1     -21.776  -7.673  -2.772  0.00  0.00     0.028 A 
HETATM    7  C           1     -21.987  -6.325  -2.938  0.00  0.00     0.114 A 
HETATM    8  N           1     -22.288  -5.857  -1.690  0.00  0.00    -0.360 N 
HETATM    9  H           1     -22.510  -4.863  -1.435  0.00  0.00     0.166 HD
HETATM   10  C           1     -22.247  -6.919  -0.832  0.00  0.00     0.180 A 
HETATM   11  N           1     -21.939  -8.031  -1.458  0.00  0.00    -0.354 N 
ATOM     12  HN          1     -21.842  -8.962  -1.054  1.00  0.00     0.166 HD
ENDBRANCH   5   6
ENDBRANCH   1   5
BRANCH   1  13
HETATM   13  N           1     -20.899  -7.512  -5.971  0.00  0.00    -0.344 N 
HETATM   14  H           1     -21.694  -7.986  -6.381  0.00  0.00     0.163 HD
HETATM   15  C           1     -20.370  -6.409  -6.583  0.00  0.00     0.249 C 
HETATM   16  O           1     -19.488  -6.533  -7.399  0.00  0.00    -0.271 OA
BRANCH  15  17
HETATM   17  C           1     -20.888  -5.033  -6.237  0.00  0.00     0.274 C 
BRANCH  17  18
HETATM   18  C           1     -20.827  -4.142  -7.471  0.00  0.00     0.045 C 
BRANCH  18  19
HETATM   19 Se           1     -22.462  -4.355  -8.510  0.00  0.00     0.000 Se
HETATM   20  H           1     -21.793  -5.010  -9.645  0.00  0.00     0.000 HD
ENDBRANCH  18  19
ENDBRANCH  17  18
BRANCH  17  21
HETATM   21  N           1     -20.042  -4.439  -5.150  0.00  0.00    -0.067 N 
HETATM   22  H           1     -19.449  -5.187  -4.723  0.00  0.00     0.275 HD
HETATM   23  H           1     -20.660  -4.023  -4.416  0.00  0.00     0.275 HD
HETATM   24  H           1     -19.429  -3.695  -5.552  0.00  0.00     0.275 HD
ENDBRANCH  17  21
ENDBRANCH  15  17
ENDBRANCH   1  13
TORSDOF 8
ENDMDL
MODEL 9
REMARK VINA RESULT:      -4.8     25.761     27.252
REMARK  8 active torsions:
REMARK  status: ('A' for Active; 'I' for Inactive)
REMARK    1  A    between atoms: C_2  and  C_4 
REMARK    2  A    between atoms: C_4  and  C_23 
REMARK    3  A    between atoms: C_4  and  N_16 
REMARK       I    between atoms: N_16  and  C_17 
REMARK    4  A    between atoms: C_17  and  C_18 
REMARK    5  A    between atoms: C_18  and  C_19 
REMARK    6  A    between atoms: C_18  and  N_21 
REMARK    7  A    between atoms: C_19  and  Se_20 
REMARK    8  A    between atoms: C_23  and  C_24 
ROOT
HETATM    1  C           1     -10.887   6.161 -20.725  0.00  0.00     0.191 C 
ENDROOT
BRANCH   1   2
HETATM    2  C           1     -10.637   5.529 -19.377  0.00  0.00     0.197 C 
HETATM    3  O           1      -9.475   5.474 -18.919  0.00  0.00    -0.646 OA
HETATM    4  O           1     -11.591   5.060 -18.720  0.00  0.00    -0.646 OA
ENDBRANCH   1   2
BRANCH   1   5
HETATM    5  C           1     -10.743   5.106 -21.815  0.00  0.00     0.094 C 
BRANCH   5   6
HETATM    6  C           1     -11.992   4.284 -21.881  0.00  0.00     0.028 A 
HETATM    7  C           1     -13.107   4.613 -22.615  0.00  0.00     0.114 A 
HETATM    8  N           1     -13.993   3.598 -22.387  0.00  0.00    -0.360 N 
HETATM    9  H           1     -14.959   3.514 -22.790  0.00  0.00     0.166 HD
HETATM   10  C           1     -13.393   2.711 -21.540  0.00  0.00     0.180 A 
HETATM   11  N           1     -12.182   3.100 -21.216  0.00  0.00    -0.354 N 
ATOM     12  HN          1     -11.523   2.623 -20.601  1.00  0.00     0.166 HD
ENDBRANCH   5   6
ENDBRANCH   1   5
BRANCH   1  13
HETATM   13  N           1      -9.922   7.220 -20.948  0.00  0.00    -0.344 N 
HETATM   14  H           1      -9.041   7.015 -21.401  0.00  0.00     0.163 HD
HETATM   15  C           1     -10.202   8.497 -20.543  0.00  0.00     0.249 C 
HETATM   16  O           1      -9.894   8.862 -19.433  0.00  0.00    -0.271 OA
BRANCH  15  17
HETATM   17  C           1     -10.899   9.451 -21.484  0.00  0.00     0.274 C 
BRANCH  17  18
HETATM   18  C           1     -12.389   9.479 -21.167  0.00  0.00     0.045 C 
BRANCH  18  19
HETATM   19 Se           1     -13.017  11.325 -21.159  0.00  0.00     0.000 Se
HETATM   20  H           1     -13.602  11.252 -22.508  0.00  0.00     0.000 HD
ENDBRANCH  18  19
ENDBRANCH  17  18
BRANCH  17  21
HETATM   21  N           1     -10.697   8.994 -22.898  0.00  0.00    -0.067 N 
HETATM   22  H           1     -11.563   8.518 -23.237  0.00  0.00     0.275 HD
HETATM   23  H           1      -9.894   8.326 -22.937  0.00  0.00     0.275 HD
HETATM   24  H           1     -10.492   9.819 -23.505  0.00  0.00     0.275 HD
ENDBRANCH  17  21
ENDBRANCH  15  17
ENDBRANCH   1  13
TORSDOF 8
ENDMDL
