MODEL 1
REMARK VINA RESULT:      -6.5      0.000      0.000
REMARK  9 active torsions:
REMARK  status: ('A' for Active; 'I' for Inactive)
REMARK    1  A    between atoms: C_1  and  C_11 
REMARK    2  A    between atoms: C_5  and  C_10 
REMARK    3  A    between atoms: C_10  and  C_21 
REMARK    4  A    between atoms: C_11  and  C_20 
REMARK    5  A    between atoms: N_15  and  C_20 
REMARK       I    between atoms: N_15  and  C_16 
REMARK    6  A    between atoms: C_16  and  C_17 
REMARK    7  A    between atoms: C_17  and  C_21 
REMARK    8  A    between atoms: C_17  and  N_22 
REMARK    9  A    between atoms: C_19  and  C_20 
ROOT
HETATM    1  H           1     -22.516  -5.881  -9.317  0.00  0.00     0.163 HD
HETATM    2  O           1     -21.577  -3.553  -7.437  0.00  0.00    -0.271 OA
HETATM    3  N           1     -22.391  -4.930  -8.994  0.00  0.00    -0.344 N 
HETATM    4  C           1     -21.728  -4.688  -7.821  0.00  0.00     0.249 C 
ENDROOT
BRANCH   4   5
HETATM    5  C           1     -21.185  -5.837  -7.009  0.00  0.00     0.275 C 
BRANCH   5   6
HETATM    6  C           1     -21.266  -5.497  -5.528  0.00  0.00     0.053 C 
BRANCH   6   7
HETATM    7  C           1     -22.177  -6.494  -4.826  0.00  0.00     0.115 C 
BRANCH   7   8
HETATM    8  C           1     -21.799  -6.583  -3.367  0.00  0.00     0.172 C 
HETATM    9  O           1     -20.836  -7.297  -3.013  0.00  0.00    -0.648 OA
HETATM   10  O           1     -22.448  -5.942  -2.514  0.00  0.00    -0.648 OA
ENDBRANCH   7   8
ENDBRANCH   6   7
ENDBRANCH   5   6
BRANCH   5  11
HETATM   11  N           1     -19.754  -6.084  -7.388  0.00  0.00    -0.066 N 
HETATM   12  H           1     -19.189  -5.228  -7.189  0.00  0.00     0.275 HD
HETATM   13  H           1     -19.696  -6.309  -8.407  0.00  0.00     0.275 HD
HETATM   14  H           1     -19.380  -6.886  -6.833  0.00  0.00     0.275 HD
ENDBRANCH   5  11
ENDBRANCH   4   5
BRANCH   3  15
HETATM   15  C           1     -22.912  -3.825  -9.774  0.00  0.00     0.189 C 
BRANCH  15  16
HETATM   16  C           1     -22.514  -4.002 -11.234  0.00  0.00     0.014 C 
HETATM   17  C           1     -22.933  -2.771 -12.026  0.00  0.00     0.012 C 
BRANCH  16  18
HETATM   18  C           1     -21.004  -4.179 -11.330  0.00  0.00     0.002 C 
HETATM   19  C           1     -20.323  -2.825 -11.186  0.00  0.00     0.005 C 
ENDBRANCH  16  18
ENDBRANCH  15  16
BRANCH  15  20
HETATM   20  C           1     -24.417  -3.797  -9.663  0.00  0.00     0.197 C 
HETATM   21  O           1     -25.075  -4.846  -9.839  0.00  0.00    -0.646 OA
HETATM   22  O           1     -25.005  -2.727  -9.397  0.00  0.00    -0.646 OA
ENDBRANCH  15  20
ENDBRANCH   3  15
TORSDOF 9
ENDMDL
MODEL 2
REMARK VINA RESULT:      -6.5     12.301     13.758
REMARK  9 active torsions:
REMARK  status: ('A' for Active; 'I' for Inactive)
REMARK    1  A    between atoms: C_1  and  C_11 
REMARK    2  A    between atoms: C_5  and  C_10 
REMARK    3  A    between atoms: C_10  and  C_21 
REMARK    4  A    between atoms: C_11  and  C_20 
REMARK    5  A    between atoms: N_15  and  C_20 
REMARK       I    between atoms: N_15  and  C_16 
REMARK    6  A    between atoms: C_16  and  C_17 
REMARK    7  A    between atoms: C_17  and  C_21 
REMARK    8  A    between atoms: C_17  and  N_22 
REMARK    9  A    between atoms: C_19  and  C_20 
ROOT
HETATM    1  H           1     -35.654  -2.503 -13.179  0.00  0.00     0.163 HD
HETATM    2  O           1     -33.433  -2.178 -10.988  0.00  0.00    -0.271 OA
HETATM    3  N           1     -35.074  -2.033 -12.495  0.00  0.00    -0.344 N 
HETATM    4  C           1     -34.125  -2.738 -11.803  0.00  0.00     0.249 C 
ENDROOT
BRANCH   4   5
HETATM    5  C           1     -33.945  -4.214 -12.060  0.00  0.00     0.275 C 
BRANCH   5   6
HETATM    6  C           1     -34.309  -4.996 -10.805  0.00  0.00     0.053 C 
BRANCH   6   7
HETATM    7  C           1     -33.603  -6.345 -10.825  0.00  0.00     0.115 C 
BRANCH   7   8
HETATM    8  C           1     -34.447  -7.366 -10.101  0.00  0.00     0.172 C 
HETATM    9  O           1     -34.112  -8.571 -10.107  0.00  0.00    -0.648 OA
HETATM   10  O           1     -35.479  -7.007  -9.495  0.00  0.00    -0.648 OA
ENDBRANCH   7   8
ENDBRANCH   6   7
ENDBRANCH   5   6
BRANCH   5  11
HETATM   11  N           1     -32.515  -4.487 -12.421  0.00  0.00    -0.066 N 
HETATM   12  H           1     -32.040  -3.589 -12.665  0.00  0.00     0.275 HD
HETATM   13  H           1     -32.479  -5.133 -13.243  0.00  0.00     0.275 HD
HETATM   14  H           1     -32.029  -4.930 -11.610  0.00  0.00     0.275 HD
ENDBRANCH   5  11
ENDBRANCH   4   5
BRANCH   3  15
HETATM   15  C           1     -35.246  -0.615 -12.249  0.00  0.00     0.189 C 
BRANCH  15  16
HETATM   16  C           1     -35.562   0.093 -13.560  0.00  0.00     0.014 C 
HETATM   17  C           1     -34.533   1.188 -13.805  0.00  0.00     0.012 C 
BRANCH  16  18
HETATM   18  C           1     -35.516  -0.914 -14.703  0.00  0.00     0.002 C 
HETATM   19  C           1     -36.082  -0.276 -15.966  0.00  0.00     0.005 C 
ENDBRANCH  16  18
ENDBRANCH  15  16
BRANCH  15  20
HETATM   20  C           1     -36.384  -0.409 -11.279  0.00  0.00     0.197 C 
HETATM   21  O           1     -36.274   0.430 -10.357  0.00  0.00    -0.646 OA
HETATM   22  O           1     -37.434  -1.075 -11.395  0.00  0.00    -0.646 OA
ENDBRANCH  15  20
ENDBRANCH   3  15
TORSDOF 9
ENDMDL
MODEL 3
REMARK VINA RESULT:      -6.1     12.815     14.859
REMARK  9 active torsions:
REMARK  status: ('A' for Active; 'I' for Inactive)
REMARK    1  A    between atoms: C_1  and  C_11 
REMARK    2  A    between atoms: C_5  and  C_10 
REMARK    3  A    between atoms: C_10  and  C_21 
REMARK    4  A    between atoms: C_11  and  C_20 
REMARK    5  A    between atoms: N_15  and  C_20 
REMARK       I    between atoms: N_15  and  C_16 
REMARK    6  A    between atoms: C_16  and  C_17 
REMARK    7  A    between atoms: C_17  and  C_21 
REMARK    8  A    between atoms: C_17  and  N_22 
REMARK    9  A    between atoms: C_19  and  C_20 
ROOT
HETATM    1  H           1     -36.395  -2.574 -11.741  0.00  0.00     0.163 HD
HETATM    2  O           1     -34.732   0.074 -11.993  0.00  0.00    -0.271 OA
HETATM    3  N           1     -35.620  -1.975 -11.997  0.00  0.00    -0.344 N 
HETATM    4  C           1     -35.657  -0.641 -11.688  0.00  0.00     0.249 C 
ENDROOT
BRANCH   4   5
HETATM    5  C           1     -36.851  -0.065 -10.969  0.00  0.00     0.275 C 
BRANCH   5   6
HETATM    6  C           1     -37.097  -0.846  -9.686  0.00  0.00     0.053 C 
BRANCH   6   7
HETATM    7  C           1     -37.778   0.055  -8.664  0.00  0.00     0.115 C 
BRANCH   7   8
HETATM    8  C           1     -36.732   0.769  -7.844  0.00  0.00     0.172 C 
HETATM    9  O           1     -35.550   0.362  -7.847  0.00  0.00    -0.648 OA
HETATM   10  O           1     -37.047   1.768  -7.162  0.00  0.00    -0.648 OA
ENDBRANCH   7   8
ENDBRANCH   6   7
ENDBRANCH   5   6
BRANCH   5  11
HETATM   11  N           1     -38.060  -0.161 -11.852  0.00  0.00    -0.066 N 
HETATM   12  H           1     -38.922  -0.014 -11.280  0.00  0.00     0.275 HD
HETATM   13  H           1     -38.095  -1.107 -12.295  0.00  0.00     0.275 HD
HETATM   14  H           1     -38.006   0.570 -12.597  0.00  0.00     0.275 HD
ENDBRANCH   5  11
ENDBRANCH   4   5
BRANCH   3  15
HETATM   15  C           1     -34.473  -2.528 -12.688  0.00  0.00     0.189 C 
BRANCH  15  16
HETATM   16  C           1     -34.206  -3.940 -12.181  0.00  0.00     0.014 C 
HETATM   17  C           1     -32.755  -4.052 -11.733  0.00  0.00     0.012 C 
BRANCH  16  18
HETATM   18  C           1     -35.126  -4.236 -11.003  0.00  0.00     0.002 C 
HETATM   19  C           1     -34.808  -5.617 -10.444  0.00  0.00     0.005 C 
ENDBRANCH  16  18
ENDBRANCH  15  16
BRANCH  15  20
HETATM   20  C           1     -34.752  -2.571 -14.171  0.00  0.00     0.197 C 
HETATM   21  O           1     -35.244  -1.574 -14.743  0.00  0.00    -0.646 OA
HETATM   22  O           1     -34.492  -3.603 -14.826  0.00  0.00    -0.646 OA
ENDBRANCH  15  20
ENDBRANCH   3  15
TORSDOF 9
ENDMDL
MODEL 4
REMARK VINA RESULT:      -6.0      1.479      1.832
REMARK  9 active torsions:
REMARK  status: ('A' for Active; 'I' for Inactive)
REMARK    1  A    between atoms: C_1  and  C_11 
REMARK    2  A    between atoms: C_5  and  C_10 
REMARK    3  A    between atoms: C_10  and  C_21 
REMARK    4  A    between atoms: C_11  and  C_20 
REMARK    5  A    between atoms: N_15  and  C_20 
REMARK       I    between atoms: N_15  and  C_16 
REMARK    6  A    between atoms: C_16  and  C_17 
REMARK    7  A    between atoms: C_17  and  C_21 
REMARK    8  A    between atoms: C_17  and  N_22 
REMARK    9  A    between atoms: C_19  and  C_20 
ROOT
HETATM    1  H           1     -22.260  -5.591  -9.086  0.00  0.00     0.163 HD
HETATM    2  O           1     -21.580  -3.134  -7.258  0.00  0.00    -0.271 OA
HETATM    3  N           1     -22.227  -4.623  -8.791  0.00  0.00    -0.344 N 
HETATM    4  C           1     -21.621  -4.289  -7.610  0.00  0.00     0.249 C 
ENDROOT
BRANCH   4   5
HETATM    5  C           1     -21.003  -5.362  -6.748  0.00  0.00     0.275 C 
BRANCH   5   6
HETATM    6  C           1     -22.039  -5.882  -5.762  0.00  0.00     0.053 C 
BRANCH   6   7
HETATM    7  C           1     -21.357  -6.766  -4.726  0.00  0.00     0.115 C 
BRANCH   7   8
HETATM    8  C           1     -20.735  -7.958  -5.411  0.00  0.00     0.172 C 
HETATM    9  O           1     -21.461  -8.878  -5.847  0.00  0.00    -0.648 OA
HETATM   10  O           1     -19.495  -8.025  -5.543  0.00  0.00    -0.648 OA
ENDBRANCH   7   8
ENDBRANCH   6   7
ENDBRANCH   5   6
BRANCH   5  11
HETATM   11  N           1     -19.840  -4.787  -5.993  0.00  0.00    -0.066 N 
HETATM   12  H           1     -18.953  -5.009  -6.499  0.00  0.00     0.275 HD
HETATM   13  H           1     -19.806  -5.202  -5.034  0.00  0.00     0.275 HD
HETATM   14  H           1     -19.950  -3.751  -5.920  0.00  0.00     0.275 HD
ENDBRANCH   5  11
ENDBRANCH   4   5
BRANCH   3  15
HETATM   15  C           1     -22.821  -3.592  -9.619  0.00  0.00     0.189 C 
BRANCH  15  16
HETATM   16  C           1     -22.255  -3.687 -11.031  0.00  0.00     0.014 C 
HETATM   17  C           1     -23.001  -2.721 -11.941  0.00  0.00     0.012 C 
BRANCH  16  18
HETATM   18  C           1     -20.775  -3.326 -11.009  0.00  0.00     0.002 C 
HETATM   19  C           1     -19.944  -4.593 -10.863  0.00  0.00     0.005 C 
ENDBRANCH  16  18
ENDBRANCH  15  16
BRANCH  15  20
HETATM   20  C           1     -24.317  -3.782  -9.663  0.00  0.00     0.197 C 
HETATM   21  O           1     -25.076  -2.814  -9.440  0.00  0.00    -0.646 OA
HETATM   22  O           1     -24.798  -4.907  -9.920  0.00  0.00    -0.646 OA
ENDBRANCH  15  20
ENDBRANCH   3  15
TORSDOF 9
ENDMDL
MODEL 5
REMARK VINA RESULT:      -5.9     12.481     14.906
REMARK  9 active torsions:
REMARK  status: ('A' for Active; 'I' for Inactive)
REMARK    1  A    between atoms: C_1  and  C_11 
REMARK    2  A    between atoms: C_5  and  C_10 
REMARK    3  A    between atoms: C_10  and  C_21 
REMARK    4  A    between atoms: C_11  and  C_20 
REMARK    5  A    between atoms: N_15  and  C_20 
REMARK       I    between atoms: N_15  and  C_16 
REMARK    6  A    between atoms: C_16  and  C_17 
REMARK    7  A    between atoms: C_17  and  C_21 
REMARK    8  A    between atoms: C_17  and  N_22 
REMARK    9  A    between atoms: C_19  and  C_20 
ROOT
HETATM    1  H           1     -36.261  -3.060 -12.025  0.00  0.00     0.163 HD
HETATM    2  O           1     -34.642  -1.390  -9.921  0.00  0.00    -0.271 OA
HETATM    3  N           1     -35.526  -2.848 -11.361  0.00  0.00    -0.344 N 
HETATM    4  C           1     -35.518  -1.643 -10.713  0.00  0.00     0.249 C 
ENDROOT
BRANCH   4   5
HETATM    5  C           1     -36.602  -0.630 -10.987  0.00  0.00     0.275 C 
BRANCH   5   6
HETATM    6  C           1     -36.622  -0.295 -12.472  0.00  0.00     0.053 C 
BRANCH   6   7
HETATM    7  C           1     -35.296   0.341 -12.868  0.00  0.00     0.115 C 
BRANCH   7   8
HETATM    8  C           1     -35.177   0.364 -14.372  0.00  0.00     0.172 C 
HETATM    9  O           1     -35.353   1.433 -14.996  0.00  0.00    -0.648 OA
HETATM   10  O           1     -34.902  -0.684 -14.994  0.00  0.00    -0.648 OA
ENDBRANCH   7   8
ENDBRANCH   6   7
ENDBRANCH   5   6
BRANCH   5  11
HETATM   11  N           1     -36.331   0.617 -10.198  0.00  0.00    -0.066 N 
HETATM   12  H           1     -37.236   1.032  -9.880  0.00  0.00     0.275 HD
HETATM   13  H           1     -35.824   1.307 -10.798  0.00  0.00     0.275 HD
HETATM   14  H           1     -35.744   0.382  -9.366  0.00  0.00     0.275 HD
ENDBRANCH   5  11
ENDBRANCH   4   5
BRANCH   3  15
HETATM   15  C           1     -34.485  -3.821 -11.098  0.00  0.00     0.189 C 
BRANCH  15  16
HETATM   16  C           1     -35.103  -5.209 -10.986  0.00  0.00     0.014 C 
HETATM   17  C           1     -35.072  -5.889 -12.348  0.00  0.00     0.012 C 
BRANCH  16  18
HETATM   18  C           1     -34.308  -6.039  -9.985  0.00  0.00     0.002 C 
HETATM   19  C           1     -34.776  -7.487 -10.039  0.00  0.00     0.005 C 
ENDBRANCH  16  18
ENDBRANCH  15  16
BRANCH  15  20
HETATM   20  C           1     -33.485  -3.805 -12.227  0.00  0.00     0.197 C 
HETATM   21  O           1     -32.308  -4.180 -12.025  0.00  0.00    -0.646 OA
HETATM   22  O           1     -33.831  -3.418 -13.364  0.00  0.00    -0.646 OA
ENDBRANCH  15  20
ENDBRANCH   3  15
TORSDOF 9
ENDMDL
MODEL 6
REMARK VINA RESULT:      -5.8     12.596     15.606
REMARK  9 active torsions:
REMARK  status: ('A' for Active; 'I' for Inactive)
REMARK    1  A    between atoms: C_1  and  C_11 
REMARK    2  A    between atoms: C_5  and  C_10 
REMARK    3  A    between atoms: C_10  and  C_21 
REMARK    4  A    between atoms: C_11  and  C_20 
REMARK    5  A    between atoms: N_15  and  C_20 
REMARK       I    between atoms: N_15  and  C_16 
REMARK    6  A    between atoms: C_16  and  C_17 
REMARK    7  A    between atoms: C_17  and  C_21 
REMARK    8  A    between atoms: C_17  and  N_22 
REMARK    9  A    between atoms: C_19  and  C_20 
ROOT
HETATM    1  H           1     -35.687  -3.309 -11.739  0.00  0.00     0.163 HD
HETATM    2  O           1     -34.551  -0.975 -13.499  0.00  0.00    -0.271 OA
HETATM    3  N           1     -35.077  -2.846 -12.399  0.00  0.00    -0.344 N 
HETATM    4  C           1     -35.280  -1.528 -12.711  0.00  0.00     0.249 C 
ENDROOT
BRANCH   4   5
HETATM    5  C           1     -36.415  -0.767 -12.071  0.00  0.00     0.275 C 
BRANCH   5   6
HETATM    6  C           1     -36.894   0.324 -13.018  0.00  0.00     0.053 C 
BRANCH   6   7
HETATM    7  C           1     -38.068  -0.194 -13.838  0.00  0.00     0.115 C 
BRANCH   7   8
HETATM    8  C           1     -37.730  -0.118 -15.307  0.00  0.00     0.172 C 
HETATM    9  O           1     -38.038   0.897 -15.968  0.00  0.00    -0.648 OA
HETATM   10  O           1     -37.140  -1.070 -15.861  0.00  0.00    -0.648 OA
ENDBRANCH   7   8
ENDBRANCH   6   7
ENDBRANCH   5   6
BRANCH   5  11
HETATM   11  N           1     -35.939  -0.145 -10.791  0.00  0.00    -0.066 N 
HETATM   12  H           1     -35.851  -0.883 -10.057  0.00  0.00     0.275 HD
HETATM   13  H           1     -36.626   0.578 -10.477  0.00  0.00     0.275 HD
HETATM   14  H           1     -35.008   0.304 -10.947  0.00  0.00     0.275 HD
ENDBRANCH   5  11
ENDBRANCH   4   5
BRANCH   3  15
HETATM   15  C           1     -33.987  -3.576 -13.015  0.00  0.00     0.189 C 
BRANCH  15  16
HETATM   16  C           1     -33.512  -4.672 -12.069  0.00  0.00     0.014 C 
HETATM   17  C           1     -31.994  -4.626 -11.961  0.00  0.00     0.012 C 
BRANCH  16  18
HETATM   18  C           1     -34.127  -4.454 -10.692  0.00  0.00     0.002 C 
HETATM   19  C           1     -34.579  -5.790 -10.119  0.00  0.00     0.005 C 
ENDBRANCH  16  18
ENDBRANCH  15  16
BRANCH  15  20
HETATM   20  C           1     -34.463  -4.197 -14.305  0.00  0.00     0.197 C 
HETATM   21  O           1     -35.045  -5.304 -14.288  0.00  0.00    -0.646 OA
HETATM   22  O           1     -34.275  -3.607 -15.391  0.00  0.00    -0.646 OA
ENDBRANCH  15  20
ENDBRANCH   3  15
TORSDOF 9
ENDMDL
MODEL 7
REMARK VINA RESULT:      -5.5      2.333      7.309
REMARK  9 active torsions:
REMARK  status: ('A' for Active; 'I' for Inactive)
REMARK    1  A    between atoms: C_1  and  C_11 
REMARK    2  A    between atoms: C_5  and  C_10 
REMARK    3  A    between atoms: C_10  and  C_21 
REMARK    4  A    between atoms: C_11  and  C_20 
REMARK    5  A    between atoms: N_15  and  C_20 
REMARK       I    between atoms: N_15  and  C_16 
REMARK    6  A    between atoms: C_16  and  C_17 
REMARK    7  A    between atoms: C_17  and  C_21 
REMARK    8  A    between atoms: C_17  and  N_22 
REMARK    9  A    between atoms: C_19  and  C_20 
ROOT
HETATM    1  H           1     -20.078  -6.889  -4.318  0.00  0.00     0.163 HD
HETATM    2  O           1     -23.038  -6.228  -5.117  0.00  0.00    -0.271 OA
HETATM    3  N           1     -21.088  -6.915  -4.273  0.00  0.00    -0.344 N 
HETATM    4  C           1     -21.832  -6.196  -5.170  0.00  0.00     0.249 C 
ENDROOT
BRANCH   4   5
HETATM    5  C           1     -21.145  -5.364  -6.225  0.00  0.00     0.275 C 
BRANCH   5   6
HETATM    6  C           1     -22.189  -4.730  -7.132  0.00  0.00     0.053 C 
BRANCH   6   7
HETATM    7  C           1     -21.558  -3.583  -7.910  0.00  0.00     0.115 C 
BRANCH   7   8
HETATM    8  C           1     -21.442  -3.964  -9.366  0.00  0.00     0.172 C 
HETATM    9  O           1     -20.484  -4.666  -9.754  0.00  0.00    -0.648 OA
HETATM   10  O           1     -22.305  -3.578 -10.183  0.00  0.00    -0.648 OA
ENDBRANCH   7   8
ENDBRANCH   6   7
ENDBRANCH   5   6
BRANCH   5  11
HETATM   11  N           1     -20.240  -6.241  -7.040  0.00  0.00    -0.066 N 
HETATM   12  H           1     -19.857  -5.694  -7.844  0.00  0.00     0.275 HD
HETATM   13  H           1     -20.780  -7.059  -7.403  0.00  0.00     0.275 HD
HETATM   14  H           1     -19.453  -6.581  -6.443  0.00  0.00     0.275 HD
ENDBRANCH   5  11
ENDBRANCH   4   5
BRANCH   3  15
HETATM   15  C           1     -21.749  -7.714  -3.259  0.00  0.00     0.189 C 
BRANCH  15  16
HETATM   16  C           1     -20.992  -9.023  -3.073  0.00  0.00     0.014 C 
HETATM   17  C           1     -21.805 -10.167  -3.665  0.00  0.00     0.012 C 
BRANCH  16  18
HETATM   18  C           1     -19.646  -8.936  -3.781  0.00  0.00     0.002 C 
HETATM   19  C           1     -18.538  -9.342  -2.819  0.00  0.00     0.005 C 
ENDBRANCH  16  18
ENDBRANCH  15  16
BRANCH  15  20
HETATM   20  C           1     -21.769  -6.955  -1.955  0.00  0.00     0.197 C 
HETATM   21  O           1     -21.387  -7.512  -0.903  0.00  0.00    -0.646 OA
HETATM   22  O           1     -22.169  -5.771  -1.927  0.00  0.00    -0.646 OA
ENDBRANCH  15  20
ENDBRANCH   3  15
TORSDOF 9
ENDMDL
MODEL 8
REMARK VINA RESULT:      -5.4      4.362      9.162
REMARK  9 active torsions:
REMARK  status: ('A' for Active; 'I' for Inactive)
REMARK    1  A    between atoms: C_1  and  C_11 
REMARK    2  A    between atoms: C_5  and  C_10 
REMARK    3  A    between atoms: C_10  and  C_21 
REMARK    4  A    between atoms: C_11  and  C_20 
REMARK    5  A    between atoms: N_15  and  C_20 
REMARK       I    between atoms: N_15  and  C_16 
REMARK    6  A    between atoms: C_16  and  C_17 
REMARK    7  A    between atoms: C_17  and  C_21 
REMARK    8  A    between atoms: C_17  and  N_22 
REMARK    9  A    between atoms: C_19  and  C_20 
ROOT
HETATM    1  H           1     -22.024  -9.746  -2.753  0.00  0.00     0.163 HD
HETATM    2  O           1     -20.772  -6.927  -2.188  0.00  0.00    -0.271 OA
HETATM    3  N           1     -21.567  -9.013  -2.227  0.00  0.00    -0.344 N 
HETATM    4  C           1     -21.317  -7.803  -2.816  0.00  0.00     0.249 C 
ENDROOT
BRANCH   4   5
HETATM    5  C           1     -21.723  -7.562  -4.249  0.00  0.00     0.275 C 
BRANCH   5   6
HETATM    6  C           1     -20.479  -7.397  -5.110  0.00  0.00     0.053 C 
BRANCH   6   7
HETATM    7  C           1     -20.801  -6.513  -6.307  0.00  0.00     0.115 C 
BRANCH   7   8
HETATM    8  C           1     -20.032  -5.219  -6.200  0.00  0.00     0.172 C 
HETATM    9  O           1     -20.123  -4.520  -5.168  0.00  0.00    -0.648 OA
HETATM   10  O           1     -19.302  -4.847  -7.144  0.00  0.00    -0.648 OA
ENDBRANCH   7   8
ENDBRANCH   6   7
ENDBRANCH   5   6
BRANCH   5  11
HETATM   11  N           1     -22.555  -6.316  -4.330  0.00  0.00    -0.066 N 
HETATM   12  H           1     -22.078  -5.544  -3.813  0.00  0.00     0.275 HD
HETATM   13  H           1     -23.492  -6.493  -3.902  0.00  0.00     0.275 HD
HETATM   14  H           1     -22.677  -6.042  -5.331  0.00  0.00     0.275 HD
ENDBRANCH   5  11
ENDBRANCH   4   5
BRANCH   3  15
HETATM   15  C           1     -21.176  -9.243  -0.850  0.00  0.00     0.189 C 
BRANCH  15  16
HETATM   16  C           1     -22.418  -9.518  -0.010  0.00  0.00     0.014 C 
HETATM   17  C           1     -23.086  -8.199   0.352  0.00  0.00     0.012 C 
BRANCH  16  18
HETATM   18  C           1     -23.390 -10.378  -0.808  0.00  0.00     0.002 C 
HETATM   19  C           1     -23.732 -11.631  -0.013  0.00  0.00     0.005 C 
ENDBRANCH  16  18
ENDBRANCH  15  16
BRANCH  15  20
HETATM   20  C           1     -20.250 -10.433  -0.783  0.00  0.00     0.197 C 
HETATM   21  O           1     -20.032 -10.992   0.314  0.00  0.00    -0.646 OA
HETATM   22  O           1     -19.700 -10.858  -1.822  0.00  0.00    -0.646 OA
ENDBRANCH  15  20
ENDBRANCH   3  15
TORSDOF 9
ENDMDL
MODEL 9
REMARK VINA RESULT:      -5.3      6.595      9.168
REMARK  9 active torsions:
REMARK  status: ('A' for Active; 'I' for Inactive)
REMARK    1  A    between atoms: C_1  and  C_11 
REMARK    2  A    between atoms: C_5  and  C_10 
REMARK    3  A    between atoms: C_10  and  C_21 
REMARK    4  A    between atoms: C_11  and  C_20 
REMARK    5  A    between atoms: N_15  and  C_20 
REMARK       I    between atoms: N_15  and  C_16 
REMARK    6  A    between atoms: C_16  and  C_17 
REMARK    7  A    between atoms: C_17  and  C_21 
REMARK    8  A    between atoms: C_17  and  N_22 
REMARK    9  A    between atoms: C_19  and  C_20 
ROOT
HETATM    1  H           1     -21.075  -9.484  -2.495  0.00  0.00     0.163 HD
HETATM    2  O           1     -19.644 -11.225  -0.313  0.00  0.00    -0.271 OA
HETATM    3  N           1     -20.940  -9.944  -1.604  0.00  0.00    -0.344 N 
HETATM    4  C           1     -19.806 -10.676  -1.377  0.00  0.00     0.249 C 
ENDROOT
BRANCH   4   5
HETATM    5  C           1     -18.758 -10.799  -2.456  0.00  0.00     0.275 C 
BRANCH   5   6
HETATM    6  C           1     -18.449  -9.421  -3.024  0.00  0.00     0.053 C 
BRANCH   6   7
HETATM    7  C           1     -18.569  -9.459  -4.542  0.00  0.00     0.115 C 
BRANCH   7   8
HETATM    8  C           1     -19.804  -8.705  -4.969  0.00  0.00     0.172 C 
HETATM    9  O           1     -20.914  -8.988  -4.469  0.00  0.00    -0.648 OA
HETATM   10  O           1     -19.717  -7.796  -5.823  0.00  0.00    -0.648 OA
ENDBRANCH   7   8
ENDBRANCH   6   7
ENDBRANCH   5   6
BRANCH   5  11
HETATM   11  N           1     -19.270 -11.688  -3.550  0.00  0.00    -0.066 N 
HETATM   12  H           1     -19.079 -12.686  -3.307  0.00  0.00     0.275 HD
HETATM   13  H           1     -18.789 -11.451  -4.447  0.00  0.00     0.275 HD
HETATM   14  H           1     -20.300 -11.547  -3.661  0.00  0.00     0.275 HD
ENDBRANCH   5  11
ENDBRANCH   4   5
BRANCH   3  15
HETATM   15  C           1     -21.946  -9.827  -0.567  0.00  0.00     0.189 C 
BRANCH  15  16
HETATM   16  C           1     -22.306  -8.359  -0.373  0.00  0.00     0.014 C 
HETATM   17  C           1     -22.056  -7.963   1.076  0.00  0.00     0.012 C 
BRANCH  16  18
HETATM   18  C           1     -21.444  -7.500  -1.290  0.00  0.00     0.002 C 
HETATM   19  C           1     -22.265  -6.328  -1.810  0.00  0.00     0.005 C 
ENDBRANCH  16  18
ENDBRANCH  15  16
BRANCH  15  20
HETATM   20  C           1     -23.179 -10.597  -0.974  0.00  0.00     0.197 C 
HETATM   21  O           1     -23.277 -11.050  -2.135  0.00  0.00    -0.646 OA
HETATM   22  O           1     -24.102 -10.780  -0.151  0.00  0.00    -0.646 OA
ENDBRANCH  15  20
ENDBRANCH   3  15
TORSDOF 9
ENDMDL
