MODEL 1
REMARK VINA RESULT:      -7.6      0.000      0.000
REMARK  8 active torsions:
REMARK  status: ('A' for Active; 'I' for Inactive)
REMARK    1  A    between atoms: C_4  and  C_10 
REMARK    2  A    between atoms: C_10  and  C_25 
REMARK    3  A    between atoms: C_10  and  N_20 
REMARK    4  A    between atoms: S_12  and  C_25 
REMARK    5  A    between atoms: N_15  and  C_26 
REMARK       I    between atoms: N_20  and  C_21 
REMARK    6  A    between atoms: C_21  and  C_26 
REMARK    7  A    between atoms: C_23  and  C_24 
REMARK    8  A    between atoms: C_24  and  C_26 
ROOT
HETATM    1  C           1     -21.022  -5.432  -6.602  0.00  0.00     0.278 C 
ENDROOT
BRANCH   1   2
HETATM    2  N           1     -19.912  -4.824  -5.795  0.00  0.00    -0.066 N 
HETATM    3  H           1     -19.531  -5.538  -5.134  0.00  0.00     0.275 HD
HETATM    4  H           1     -20.283  -4.009  -5.254  0.00  0.00     0.275 HD
HETATM    5  H           1     -19.153  -4.500  -6.435  0.00  0.00     0.275 HD
ENDBRANCH   1   2
BRANCH   1   6
HETATM    6  C           1     -21.561  -4.407  -7.568  0.00  0.00     0.249 C 
HETATM    7  O           1     -21.516  -3.232  -7.290  0.00  0.00    -0.271 OA
HETATM    8  N           1     -22.102  -4.807  -8.760  0.00  0.00    -0.344 N 
HETATM    9  H           1     -22.139  -5.791  -8.994  0.00  0.00     0.163 HD
BRANCH   8  10
HETATM   10  C           1     -22.621  -3.821  -9.689  0.00  0.00     0.194 C 
BRANCH  10  11
HETATM   11  C           1     -24.129  -3.886  -9.700  0.00  0.00     0.197 C 
HETATM   12  O           1     -24.706  -4.959  -9.977  0.00  0.00    -0.646 OA
HETATM   13  O           1     -24.800  -2.866  -9.432  0.00  0.00    -0.646 OA
ENDBRANCH  10  11
BRANCH  10  14
HETATM   14  C           1     -22.091  -4.111 -11.087  0.00  0.00     0.106 C 
BRANCH  14  15
HETATM   15  S           1     -22.703  -2.851 -12.240  0.00  0.00    -0.180 SA
HETATM   16  H           1     -23.304  -2.089 -11.309  0.00  0.00     0.101 HD
ENDBRANCH  14  15
ENDBRANCH  10  14
ENDBRANCH   8  10
ENDBRANCH   1   6
BRANCH   1  17
HETATM   17  C           1     -22.136  -5.887  -5.669  0.00  0.00     0.083 C 
BRANCH  17  18
HETATM   18  C           1     -21.644  -7.015  -4.816  0.00  0.00    -0.028 A 
HETATM   19  C           1     -21.034  -8.163  -5.264  0.00  0.00     0.096 A 
HETATM   20  N           1     -20.740  -8.935  -4.170  0.00  0.00    -0.365 N 
HETATM   21  H           1     -20.269  -9.873  -4.205  0.00  0.00     0.165 HD
HETATM   22  C           1     -21.150  -8.303  -3.017  0.00  0.00     0.042 A 
HETATM   23  C           1     -21.057  -8.709  -1.681  0.00  0.00     0.030 A 
HETATM   24  C           1     -21.723  -7.090  -3.397  0.00  0.00    -0.002 A 
HETATM   25  C           1     -21.568  -7.846  -0.706  0.00  0.00     0.002 A 
HETATM   26  C           1     -22.146  -6.628  -1.056  0.00  0.00     0.001 A 
HETATM   27  C           1     -22.231  -6.237  -2.398  0.00  0.00     0.014 A 
ENDBRANCH  17  18
ENDBRANCH   1  17
TORSDOF 8
ENDMDL
MODEL 2
REMARK VINA RESULT:      -7.2      3.914      7.713
REMARK  8 active torsions:
REMARK  status: ('A' for Active; 'I' for Inactive)
REMARK    1  A    between atoms: C_4  and  C_10 
REMARK    2  A    between atoms: C_10  and  C_25 
REMARK    3  A    between atoms: C_10  and  N_20 
REMARK    4  A    between atoms: S_12  and  C_25 
REMARK    5  A    between atoms: N_15  and  C_26 
REMARK       I    between atoms: N_20  and  C_21 
REMARK    6  A    between atoms: C_21  and  C_26 
REMARK    7  A    between atoms: C_23  and  C_24 
REMARK    8  A    between atoms: C_24  and  C_26 
ROOT
HETATM    1  C           1     -20.810  -5.506  -6.079  0.00  0.00     0.278 C 
ENDROOT
BRANCH   1   2
HETATM    2  N           1     -20.117  -4.490  -5.220  0.00  0.00    -0.066 N 
HETATM    3  H           1     -20.279  -3.535  -5.611  0.00  0.00     0.275 HD
HETATM    4  H           1     -19.091  -4.691  -5.203  0.00  0.00     0.275 HD
HETATM    5  H           1     -20.496  -4.539  -4.248  0.00  0.00     0.275 HD
ENDBRANCH   1   2
BRANCH   1   6
HETATM    6  C           1     -20.249  -6.876  -5.789  0.00  0.00     0.249 C 
HETATM    7  O           1     -19.419  -7.358  -6.522  0.00  0.00    -0.271 OA
HETATM    8  N           1     -20.682  -7.575  -4.694  0.00  0.00    -0.344 N 
HETATM    9  H           1     -21.377  -7.172  -4.079  0.00  0.00     0.163 HD
BRANCH   8  10
HETATM   10  C           1     -20.143  -8.892  -4.415  0.00  0.00     0.194 C 
BRANCH  10  11
HETATM   11  C           1     -21.101  -9.944  -4.919  0.00  0.00     0.197 C 
HETATM   12  O           1     -21.995 -10.387  -4.166  0.00  0.00    -0.646 OA
HETATM   13  O           1     -21.000 -10.372  -6.089  0.00  0.00    -0.646 OA
ENDBRANCH  10  11
BRANCH  10  14
HETATM   14  C           1     -19.955  -9.057  -2.912  0.00  0.00     0.106 C 
BRANCH  14  15
HETATM   15  S           1     -20.856  -7.744  -2.041  0.00  0.00    -0.180 SA
HETATM   16  H           1     -19.953  -7.583  -1.058  0.00  0.00     0.101 HD
ENDBRANCH  14  15
ENDBRANCH  10  14
ENDBRANCH   8  10
ENDBRANCH   1   6
BRANCH   1  17
HETATM   17  C           1     -20.585  -5.166  -7.546  0.00  0.00     0.083 C 
BRANCH  17  18
HETATM   18  C           1     -21.848  -4.609  -8.129  0.00  0.00    -0.028 A 
HETATM   19  C           1     -23.044  -4.449  -7.468  0.00  0.00     0.096 A 
HETATM   20  N           1     -23.942  -3.910  -8.352  0.00  0.00    -0.365 N 
HETATM   21  H           1     -24.940  -3.677  -8.127  0.00  0.00     0.165 HD
HETATM   22  C           1     -23.345  -3.716  -9.578  0.00  0.00     0.042 A 
HETATM   23  C           1     -23.868  -3.195 -10.767  0.00  0.00     0.030 A 
HETATM   24  C           1     -22.024  -4.148  -9.463  0.00  0.00    -0.002 A 
HETATM   25  C           1     -23.013  -3.117 -11.871  0.00  0.00     0.002 A 
HETATM   26  C           1     -21.689  -3.542 -11.785  0.00  0.00     0.001 A 
HETATM   27  C           1     -21.181  -4.060 -10.588  0.00  0.00     0.014 A 
ENDBRANCH  17  18
ENDBRANCH   1  17
TORSDOF 8
ENDMDL
MODEL 3
REMARK VINA RESULT:      -7.2      3.606      7.809
REMARK  8 active torsions:
REMARK  status: ('A' for Active; 'I' for Inactive)
REMARK    1  A    between atoms: C_4  and  C_10 
REMARK    2  A    between atoms: C_10  and  C_25 
REMARK    3  A    between atoms: C_10  and  N_20 
REMARK    4  A    between atoms: S_12  and  C_25 
REMARK    5  A    between atoms: N_15  and  C_26 
REMARK       I    between atoms: N_20  and  C_21 
REMARK    6  A    between atoms: C_21  and  C_26 
REMARK    7  A    between atoms: C_23  and  C_24 
REMARK    8  A    between atoms: C_24  and  C_26 
ROOT
HETATM    1  C           1     -21.054  -5.153  -6.006  0.00  0.00     0.278 C 
ENDROOT
BRANCH   1   2
HETATM    2  N           1     -19.688  -4.641  -5.653  0.00  0.00    -0.066 N 
HETATM    3  H           1     -18.982  -5.395  -5.812  0.00  0.00     0.275 HD
HETATM    4  H           1     -19.673  -4.354  -4.647  0.00  0.00     0.275 HD
HETATM    5  H           1     -19.460  -3.816  -6.252  0.00  0.00     0.275 HD
ENDBRANCH   1   2
BRANCH   1   6
HETATM    6  C           1     -21.383  -6.343  -5.138  0.00  0.00     0.249 C 
HETATM    7  O           1     -22.026  -7.260  -5.589  0.00  0.00    -0.271 OA
HETATM    8  N           1     -20.954  -6.381  -3.838  0.00  0.00    -0.344 N 
HETATM    9  H           1     -20.414  -5.613  -3.460  0.00  0.00     0.163 HD
BRANCH   8  10
HETATM   10  C           1     -21.271  -7.524  -3.004  0.00  0.00     0.194 C 
BRANCH  10  11
HETATM   11  C           1     -21.949  -7.052  -1.741  0.00  0.00     0.197 C 
HETATM   12  O           1     -21.848  -7.721  -0.690  0.00  0.00    -0.646 OA
HETATM   13  O           1     -22.612  -5.992  -1.746  0.00  0.00    -0.646 OA
ENDBRANCH  10  11
BRANCH  10  14
HETATM   14  C           1     -19.988  -8.263  -2.644  0.00  0.00     0.106 C 
BRANCH  14  15
HETATM   15  S           1     -19.564  -9.423  -3.974  0.00  0.00    -0.180 SA
HETATM   16  H           1     -20.512 -10.330  -3.677  0.00  0.00     0.101 HD
ENDBRANCH  14  15
ENDBRANCH  10  14
ENDBRANCH   8  10
ENDBRANCH   1   6
BRANCH   1  17
HETATM   17  C           1     -21.075  -5.571  -7.469  0.00  0.00     0.083 C 
BRANCH  17  18
HETATM   18  C           1     -22.123  -4.787  -8.197  0.00  0.00    -0.028 A 
HETATM   19  C           1     -23.342  -4.397  -7.691  0.00  0.00     0.096 A 
HETATM   20  N           1     -24.000  -3.702  -8.672  0.00  0.00    -0.365 N 
HETATM   21  H           1     -24.956  -3.281  -8.572  0.00  0.00     0.165 HD
HETATM   22  C           1     -23.225  -3.635  -9.809  0.00  0.00     0.042 A 
HETATM   23  C           1     -23.484  -3.032 -11.045  0.00  0.00     0.030 A 
HETATM   24  C           1     -22.036  -4.311  -9.535  0.00  0.00    -0.002 A 
HETATM   25  C           1     -22.495  -3.126 -12.030  0.00  0.00     0.002 A 
HETATM   26  C           1     -21.298  -3.795 -11.785  0.00  0.00     0.001 A 
HETATM   27  C           1     -21.055  -4.393 -10.542  0.00  0.00     0.014 A 
ENDBRANCH  17  18
ENDBRANCH   1  17
TORSDOF 8
ENDMDL
MODEL 4
REMARK VINA RESULT:      -7.1      4.246      7.805
REMARK  8 active torsions:
REMARK  status: ('A' for Active; 'I' for Inactive)
REMARK    1  A    between atoms: C_4  and  C_10 
REMARK    2  A    between atoms: C_10  and  C_25 
REMARK    3  A    between atoms: C_10  and  N_20 
REMARK    4  A    between atoms: S_12  and  C_25 
REMARK    5  A    between atoms: N_15  and  C_26 
REMARK       I    between atoms: N_20  and  C_21 
REMARK    6  A    between atoms: C_21  and  C_26 
REMARK    7  A    between atoms: C_23  and  C_24 
REMARK    8  A    between atoms: C_24  and  C_26 
ROOT
HETATM    1  C           1     -21.335  -6.233  -5.644  0.00  0.00     0.278 C 
ENDROOT
BRANCH   1   2
HETATM    2  N           1     -21.721  -5.929  -4.226  0.00  0.00    -0.066 N 
HETATM    3  H           1     -20.877  -5.617  -3.695  0.00  0.00     0.275 HD
HETATM    4  H           1     -22.115  -6.790  -3.781  0.00  0.00     0.275 HD
HETATM    5  H           1     -22.440  -5.172  -4.215  0.00  0.00     0.275 HD
ENDBRANCH   1   2
BRANCH   1   6
HETATM    6  C           1     -20.217  -7.246  -5.654  0.00  0.00     0.249 C 
HETATM    7  O           1     -19.436  -7.275  -6.576  0.00  0.00    -0.271 OA
HETATM    8  N           1     -20.086  -8.132  -4.618  0.00  0.00    -0.344 N 
HETATM    9  H           1     -20.739  -8.107  -3.846  0.00  0.00     0.163 HD
BRANCH   8  10
HETATM   10  C           1     -19.012  -9.106  -4.629  0.00  0.00     0.194 C 
BRANCH  10  11
HETATM   11  C           1     -19.519 -10.408  -5.201  0.00  0.00     0.197 C 
HETATM   12  O           1     -20.236 -11.159  -4.505  0.00  0.00    -0.646 OA
HETATM   13  O           1     -19.221 -10.734  -6.370  0.00  0.00    -0.646 OA
ENDBRANCH  10  11
BRANCH  10  14
HETATM   14  C           1     -18.520  -9.336  -3.205  0.00  0.00     0.106 C 
BRANCH  14  15
HETATM   15  S           1     -16.748  -9.725  -3.232  0.00  0.00    -0.180 SA
HETATM   16  H           1     -16.521  -9.261  -4.474  0.00  0.00     0.101 HD
ENDBRANCH  14  15
ENDBRANCH  10  14
ENDBRANCH   8  10
ENDBRANCH   1   6
BRANCH   1  17
HETATM   17  C           1     -20.869  -4.954  -6.326  0.00  0.00     0.083 C 
BRANCH  17  18
HETATM   18  C           1     -21.862  -4.556  -7.374  0.00  0.00    -0.028 A 
HETATM   19  C           1     -23.218  -4.415  -7.192  0.00  0.00     0.096 A 
HETATM   20  N           1     -23.765  -4.040  -8.392  0.00  0.00    -0.365 N 
HETATM   21  H           1     -24.785  -3.858  -8.557  0.00  0.00     0.165 HD
HETATM   22  C           1     -22.782  -3.936  -9.350  0.00  0.00     0.042 A 
HETATM   23  C           1     -22.870  -3.584 -10.703  0.00  0.00     0.030 A 
HETATM   24  C           1     -21.572  -4.255  -8.734  0.00  0.00    -0.002 A 
HETATM   25  C           1     -21.684  -3.562 -11.444  0.00  0.00     0.002 A 
HETATM   26  C           1     -20.462  -3.877 -10.854  0.00  0.00     0.001 A 
HETATM   27  C           1     -20.391  -4.226  -9.500  0.00  0.00     0.014 A 
ENDBRANCH  17  18
ENDBRANCH   1  17
TORSDOF 8
ENDMDL
MODEL 5
REMARK VINA RESULT:      -6.7      4.166      7.740
REMARK  8 active torsions:
REMARK  status: ('A' for Active; 'I' for Inactive)
REMARK    1  A    between atoms: C_4  and  C_10 
REMARK    2  A    between atoms: C_10  and  C_25 
REMARK    3  A    between atoms: C_10  and  N_20 
REMARK    4  A    between atoms: S_12  and  C_25 
REMARK    5  A    between atoms: N_15  and  C_26 
REMARK       I    between atoms: N_20  and  C_21 
REMARK    6  A    between atoms: C_21  and  C_26 
REMARK    7  A    between atoms: C_23  and  C_24 
REMARK    8  A    between atoms: C_24  and  C_26 
ROOT
HETATM    1  C           1     -21.687  -6.346  -5.139  0.00  0.00     0.278 C 
ENDROOT
BRANCH   1   2
HETATM    2  N           1     -21.375  -5.762  -3.793  0.00  0.00    -0.066 N 
HETATM    3  H           1     -22.262  -5.642  -3.252  0.00  0.00     0.275 HD
HETATM    4  H           1     -20.913  -4.831  -3.917  0.00  0.00     0.275 HD
HETATM    5  H           1     -20.733  -6.402  -3.275  0.00  0.00     0.275 HD
ENDBRANCH   1   2
BRANCH   1   6
HETATM    6  C           1     -21.338  -7.814  -5.142  0.00  0.00     0.249 C 
HETATM    7  O           1     -21.263  -8.416  -6.187  0.00  0.00    -0.271 OA
HETATM    8  N           1     -21.106  -8.465  -3.960  0.00  0.00    -0.344 N 
HETATM    9  H           1     -21.167  -7.961  -3.085  0.00  0.00     0.163 HD
BRANCH   8  10
HETATM   10  C           1     -20.771  -9.876  -3.963  0.00  0.00     0.194 C 
BRANCH  10  11
HETATM   11  C           1     -21.952 -10.674  -3.467  0.00  0.00     0.197 C 
HETATM   12  O           1     -22.510 -10.361  -2.393  0.00  0.00    -0.646 OA
HETATM   13  O           1     -22.371 -11.648  -4.129  0.00  0.00    -0.646 OA
ENDBRANCH  10  11
BRANCH  10  14
HETATM   14  C           1     -19.576 -10.117  -3.048  0.00  0.00     0.106 C 
BRANCH  14  15
HETATM   15  S           1     -18.044  -9.715  -3.934  0.00  0.00    -0.180 SA
HETATM   16  H           1     -18.463 -10.140  -5.139  0.00  0.00     0.101 HD
ENDBRANCH  14  15
ENDBRANCH  10  14
ENDBRANCH   8  10
ENDBRANCH   1   6
BRANCH   1  17
HETATM   17  C           1     -20.871  -5.628  -6.205  0.00  0.00     0.083 C 
BRANCH  17  18
HETATM   18  C           1     -21.794  -4.985  -7.193  0.00  0.00    -0.028 A 
HETATM   19  C           1     -23.108  -4.642  -6.970  0.00  0.00     0.096 A 
HETATM   20  N           1     -23.595  -4.081  -8.122  0.00  0.00    -0.365 N 
HETATM   21  H           1     -24.574  -3.723  -8.248  0.00  0.00     0.165 HD
HETATM   22  C           1     -22.616  -4.055  -9.089  0.00  0.00     0.042 A 
HETATM   23  C           1     -22.657  -3.578 -10.405  0.00  0.00     0.030 A 
HETATM   24  C           1     -21.470  -4.618  -8.528  0.00  0.00    -0.002 A 
HETATM   25  C           1     -21.489  -3.684 -11.168  0.00  0.00     0.002 A 
HETATM   26  C           1     -20.330  -4.242 -10.633  0.00  0.00     0.001 A 
HETATM   27  C           1     -20.306  -4.714  -9.315  0.00  0.00     0.014 A 
ENDBRANCH  17  18
ENDBRANCH   1  17
TORSDOF 8
ENDMDL
MODEL 6
REMARK VINA RESULT:      -6.4     13.321     15.586
REMARK  8 active torsions:
REMARK  status: ('A' for Active; 'I' for Inactive)
REMARK    1  A    between atoms: C_4  and  C_10 
REMARK    2  A    between atoms: C_10  and  C_25 
REMARK    3  A    between atoms: C_10  and  N_20 
REMARK    4  A    between atoms: S_12  and  C_25 
REMARK    5  A    between atoms: N_15  and  C_26 
REMARK       I    between atoms: N_20  and  C_21 
REMARK    6  A    between atoms: C_21  and  C_26 
REMARK    7  A    between atoms: C_23  and  C_24 
REMARK    8  A    between atoms: C_24  and  C_26 
ROOT
HETATM    1  C           1     -36.103  -0.436 -11.274  0.00  0.00     0.278 C 
ENDROOT
BRANCH   1   2
HETATM    2  N           1     -36.689   0.556 -10.312  0.00  0.00    -0.066 N 
HETATM    3  H           1     -37.240   1.269 -10.841  0.00  0.00     0.275 HD
HETATM    4  H           1     -35.917   1.028  -9.788  0.00  0.00     0.275 HD
HETATM    5  H           1     -37.315   0.060  -9.639  0.00  0.00     0.275 HD
ENDBRANCH   1   2
BRANCH   1   6
HETATM    6  C           1     -36.869  -0.388 -12.573  0.00  0.00     0.249 C 
HETATM    7  O           1     -38.075  -0.320 -12.562  0.00  0.00    -0.271 OA
HETATM    8  N           1     -36.197  -0.423 -13.766  0.00  0.00    -0.344 N 
HETATM    9  H           1     -35.187  -0.479 -13.776  0.00  0.00     0.163 HD
BRANCH   8  10
HETATM   10  C           1     -36.933  -0.377 -15.014  0.00  0.00     0.194 C 
BRANCH  10  11
HETATM   11  C           1     -36.149  -1.095 -16.086  0.00  0.00     0.197 C 
HETATM   12  O           1     -35.123  -1.741 -15.783  0.00  0.00    -0.646 OA
HETATM   13  O           1     -36.525  -1.042 -17.277  0.00  0.00    -0.646 OA
ENDBRANCH  10  11
BRANCH  10  14
HETATM   14  C           1     -37.145   1.074 -15.427  0.00  0.00     0.106 C 
BRANCH  14  15
HETATM   15  S           1     -35.553   1.944 -15.423  0.00  0.00    -0.180 SA
HETATM   16  H           1     -35.565   2.253 -14.114  0.00  0.00     0.101 HD
ENDBRANCH  14  15
ENDBRANCH  10  14
ENDBRANCH   8  10
ENDBRANCH   1   6
BRANCH   1  17
HETATM   17  C           1     -36.198  -1.834 -10.680  0.00  0.00     0.083 C 
BRANCH  17  18
HETATM   18  C           1     -34.929  -2.581 -10.955  0.00  0.00    -0.028 A 
HETATM   19  C           1     -33.737  -2.030 -11.364  0.00  0.00     0.096 A 
HETATM   20  N           1     -32.830  -3.049 -11.502  0.00  0.00    -0.365 N 
HETATM   21  H           1     -31.832  -2.928 -11.803  0.00  0.00     0.165 HD
HETATM   22  C           1     -33.417  -4.254 -11.188  0.00  0.00     0.042 A 
HETATM   23  C           1     -32.882  -5.547 -11.185  0.00  0.00     0.030 A 
HETATM   24  C           1     -34.741  -3.986 -10.839  0.00  0.00    -0.002 A 
HETATM   25  C           1     -33.730  -6.597 -10.816  0.00  0.00     0.002 A 
HETATM   26  C           1     -35.056  -6.359 -10.463  0.00  0.00     0.001 A 
HETATM   27  C           1     -35.575  -5.059 -10.471  0.00  0.00     0.014 A 
ENDBRANCH  17  18
ENDBRANCH   1  17
TORSDOF 8
ENDMDL
MODEL 7
REMARK VINA RESULT:      -6.2      2.275      3.186
REMARK  8 active torsions:
REMARK  status: ('A' for Active; 'I' for Inactive)
REMARK    1  A    between atoms: C_4  and  C_10 
REMARK    2  A    between atoms: C_10  and  C_25 
REMARK    3  A    between atoms: C_10  and  N_20 
REMARK    4  A    between atoms: S_12  and  C_25 
REMARK    5  A    between atoms: N_15  and  C_26 
REMARK       I    between atoms: N_20  and  C_21 
REMARK    6  A    between atoms: C_21  and  C_26 
REMARK    7  A    between atoms: C_23  and  C_24 
REMARK    8  A    between atoms: C_24  and  C_26 
ROOT
HETATM    1  C           1     -21.522  -7.938  -4.933  0.00  0.00     0.278 C 
ENDROOT
BRANCH   1   2
HETATM    2  N           1     -21.322  -8.768  -6.167  0.00  0.00    -0.066 N 
HETATM    3  H           1     -22.153  -8.667  -6.793  0.00  0.00     0.275 HD
HETATM    4  H           1     -21.209  -9.772  -5.896  0.00  0.00     0.275 HD
HETATM    5  H           1     -20.465  -8.445  -6.669  0.00  0.00     0.275 HD
ENDBRANCH   1   2
BRANCH   1   6
HETATM    6  C           1     -21.982  -6.556  -5.327  0.00  0.00     0.249 C 
HETATM    7  O           1     -22.799  -5.975  -4.653  0.00  0.00    -0.271 OA
HETATM    8  N           1     -21.472  -5.959  -6.449  0.00  0.00    -0.344 N 
HETATM    9  H           1     -20.787  -6.445  -7.014  0.00  0.00     0.163 HD
BRANCH   8  10
HETATM   10  C           1     -21.913  -4.631  -6.828  0.00  0.00     0.194 C 
BRANCH  10  11
HETATM   11  C           1     -22.631  -4.699  -8.155  0.00  0.00     0.197 C 
HETATM   12  O           1     -23.806  -4.287  -8.251  0.00  0.00    -0.646 OA
HETATM   13  O           1     -22.048  -5.168  -9.157  0.00  0.00    -0.646 OA
ENDBRANCH  10  11
BRANCH  10  14
HETATM   14  C           1     -20.706  -3.709  -6.951  0.00  0.00     0.106 C 
BRANCH  14  15
HETATM   15  S           1     -19.203  -4.705  -7.154  0.00  0.00    -0.180 SA
HETATM   16  H           1     -19.138  -4.591  -8.492  0.00  0.00     0.101 HD
ENDBRANCH  14  15
ENDBRANCH  10  14
ENDBRANCH   8  10
ENDBRANCH   1   6
BRANCH   1  17
HETATM   17  C           1     -20.208  -7.839  -4.171  0.00  0.00     0.083 C 
BRANCH  17  18
HETATM   18  C           1     -20.309  -8.620  -2.898  0.00  0.00    -0.028 A 
HETATM   19  C           1     -19.678  -9.812  -2.625  0.00  0.00     0.096 A 
HETATM   20  N           1     -20.031 -10.193  -1.357  0.00  0.00    -0.365 N 
HETATM   21  H           1     -19.700 -11.066  -0.878  0.00  0.00     0.165 HD
HETATM   22  C           1     -20.883  -9.265  -0.802  0.00  0.00     0.042 A 
HETATM   23  C           1     -21.493  -9.237   0.458  0.00  0.00     0.030 A 
HETATM   24  C           1     -21.074  -8.263  -1.752  0.00  0.00    -0.002 A 
HETATM   25  C           1     -22.323  -8.150   0.751  0.00  0.00     0.002 A 
HETATM   26  C           1     -22.532  -7.135  -0.180  0.00  0.00     0.001 A 
HETATM   27  C           1     -21.915  -7.178  -1.436  0.00  0.00     0.014 A 
ENDBRANCH  17  18
ENDBRANCH   1  17
TORSDOF 8
ENDMDL
MODEL 8
REMARK VINA RESULT:      -6.0      5.688      6.936
REMARK  8 active torsions:
REMARK  status: ('A' for Active; 'I' for Inactive)
REMARK    1  A    between atoms: C_4  and  C_10 
REMARK    2  A    between atoms: C_10  and  C_25 
REMARK    3  A    between atoms: C_10  and  N_20 
REMARK    4  A    between atoms: S_12  and  C_25 
REMARK    5  A    between atoms: N_15  and  C_26 
REMARK       I    between atoms: N_20  and  C_21 
REMARK    6  A    between atoms: C_21  and  C_26 
REMARK    7  A    between atoms: C_23  and  C_24 
REMARK    8  A    between atoms: C_24  and  C_26 
ROOT
HETATM    1  C           1     -19.735  -8.114  -4.908  0.00  0.00     0.278 C 
ENDROOT
BRANCH   1   2
HETATM    2  N           1     -19.572  -7.485  -6.261  0.00  0.00    -0.066 N 
HETATM    3  H           1     -19.362  -6.467  -6.148  0.00  0.00     0.275 HD
HETATM    4  H           1     -20.456  -7.601  -6.807  0.00  0.00     0.275 HD
HETATM    5  H           1     -18.786  -7.949  -6.769  0.00  0.00     0.275 HD
ENDBRANCH   1   2
BRANCH   1   6
HETATM    6  C           1     -19.002  -9.432  -4.876  0.00  0.00     0.249 C 
HETATM    7  O           1     -18.981 -10.088  -3.862  0.00  0.00    -0.271 OA
HETATM    8  N           1     -18.358  -9.885  -5.997  0.00  0.00    -0.344 N 
HETATM    9  H           1     -18.376  -9.337  -6.847  0.00  0.00     0.163 HD
BRANCH   8  10
HETATM   10  C           1     -17.653 -11.152  -5.966  0.00  0.00     0.194 C 
BRANCH  10  11
HETATM   11  C           1     -16.167 -10.902  -6.064  0.00  0.00     0.197 C 
HETATM   12  O           1     -15.448 -11.674  -6.734  0.00  0.00    -0.646 OA
HETATM   13  O           1     -15.658  -9.924  -5.476  0.00  0.00    -0.646 OA
ENDBRANCH  10  11
BRANCH  10  14
HETATM   14  C           1     -18.101 -12.013  -7.140  0.00  0.00     0.106 C 
BRANCH  14  15
HETATM   15  S           1     -18.696 -13.613  -6.526  0.00  0.00    -0.180 SA
HETATM   16  H           1     -18.423 -14.304  -7.647  0.00  0.00     0.101 HD
ENDBRANCH  14  15
ENDBRANCH  10  14
ENDBRANCH   8  10
ENDBRANCH   1   6
BRANCH   1  17
HETATM   17  C           1     -21.214  -8.349  -4.634  0.00  0.00     0.083 C 
BRANCH  17  18
HETATM   18  C           1     -21.626  -7.574  -3.421  0.00  0.00    -0.028 A 
HETATM   19  C           1     -21.939  -6.235  -3.382  0.00  0.00     0.096 A 
HETATM   20  N           1     -22.263  -5.918  -2.089  0.00  0.00    -0.365 N 
HETATM   21  H           1     -22.546  -4.963  -1.757  0.00  0.00     0.165 HD
HETATM   22  C           1     -22.166  -7.033  -1.287  0.00  0.00     0.042 A 
HETATM   23  C           1     -22.400  -7.184   0.085  0.00  0.00     0.030 A 
HETATM   24  C           1     -21.767  -8.091  -2.103  0.00  0.00    -0.002 A 
HETATM   25  C           1     -22.218  -8.456   0.636  0.00  0.00     0.002 A 
HETATM   26  C           1     -21.819  -9.531  -0.155  0.00  0.00     0.001 A 
HETATM   27  C           1     -21.589  -9.363  -1.526  0.00  0.00     0.014 A 
ENDBRANCH  17  18
ENDBRANCH   1  17
TORSDOF 8
ENDMDL
MODEL 9
REMARK VINA RESULT:      -6.0      4.443      7.595
REMARK  8 active torsions:
REMARK  status: ('A' for Active; 'I' for Inactive)
REMARK    1  A    between atoms: C_4  and  C_10 
REMARK    2  A    between atoms: C_10  and  C_25 
REMARK    3  A    between atoms: C_10  and  N_20 
REMARK    4  A    between atoms: S_12  and  C_25 
REMARK    5  A    between atoms: N_15  and  C_26 
REMARK       I    between atoms: N_20  and  C_21 
REMARK    6  A    between atoms: C_21  and  C_26 
REMARK    7  A    between atoms: C_23  and  C_24 
REMARK    8  A    between atoms: C_24  and  C_26 
ROOT
HETATM    1  C           1     -20.278  -7.678  -5.191  0.00  0.00     0.278 C 
ENDROOT
BRANCH   1   2
HETATM    2  N           1     -21.244  -8.435  -6.054  0.00  0.00    -0.066 N 
HETATM    3  H           1     -21.868  -7.761  -6.552  0.00  0.00     0.275 HD
HETATM    4  H           1     -21.820  -9.070  -5.456  0.00  0.00     0.275 HD
HETATM    5  H           1     -20.715  -9.003  -6.754  0.00  0.00     0.275 HD
ENDBRANCH   1   2
BRANCH   1   6
HETATM    6  C           1     -20.213  -8.320  -3.828  0.00  0.00     0.249 C 
HETATM    7  O           1     -19.161  -8.740  -3.407  0.00  0.00    -0.271 OA
HETATM    8  N           1     -21.346  -8.427  -3.066  0.00  0.00    -0.344 N 
HETATM    9  H           1     -22.227  -8.074  -3.418  0.00  0.00     0.163 HD
BRANCH   8  10
HETATM   10  C           1     -21.284  -9.044  -1.756  0.00  0.00     0.194 C 
BRANCH  10  11
HETATM   11  C           1     -22.411 -10.039  -1.615  0.00  0.00     0.197 C 
HETATM   12  O           1     -22.661 -10.835  -2.545  0.00  0.00    -0.646 OA
HETATM   13  O           1     -23.094 -10.065  -0.568  0.00  0.00    -0.646 OA
ENDBRANCH  10  11
BRANCH  10  14
HETATM   14  C           1     -21.417  -7.972  -0.682  0.00  0.00     0.106 C 
BRANCH  14  15
HETATM   15  S           1     -22.238  -6.513  -1.381  0.00  0.00    -0.180 SA
HETATM   16  H           1     -21.545  -6.501  -2.534  0.00  0.00     0.101 HD
ENDBRANCH  14  15
ENDBRANCH  10  14
ENDBRANCH   8  10
ENDBRANCH   1   6
BRANCH   1  17
HETATM   17  C           1     -20.747  -6.236  -5.052  0.00  0.00     0.083 C 
BRANCH  17  18
HETATM   18  C           1     -20.485  -5.500  -6.330  0.00  0.00    -0.028 A 
HETATM   19  C           1     -19.252  -5.261  -6.889  0.00  0.00     0.096 A 
HETATM   20  N           1     -19.447  -4.560  -8.051  0.00  0.00    -0.365 N 
HETATM   21  H           1     -18.683  -4.237  -8.694  0.00  0.00     0.165 HD
HETATM   22  C           1     -20.791  -4.340  -8.253  0.00  0.00     0.042 A 
HETATM   23  C           1     -21.453  -3.677  -9.293  0.00  0.00     0.030 A 
HETATM   24  C           1     -21.468  -4.924  -7.182  0.00  0.00    -0.002 A 
HETATM   25  C           1     -22.849  -3.609  -9.232  0.00  0.00     0.002 A 
HETATM   26  C           1     -23.551  -4.183  -8.174  0.00  0.00     0.001 A 
HETATM   27  C           1     -22.873  -4.843  -7.142  0.00  0.00     0.014 A 
ENDBRANCH  17  18
ENDBRANCH   1  17
TORSDOF 8
ENDMDL
