MODEL 1
REMARK VINA RESULT:      -6.0      0.000      0.000
REMARK  8 active torsions:
REMARK  status: ('A' for Active; 'I' for Inactive)
REMARK    1  A    between atoms: N_1  and  C_16 
REMARK       I    between atoms: N_1  and  C_3 
REMARK    2  A    between atoms: C_3  and  C_18 
REMARK    3  A    between atoms: C_10  and  C_16 
REMARK    4  A    between atoms: C_13  and  C_15 
REMARK    5  A    between atoms: C_15  and  C_16 
REMARK    6  A    between atoms: C_17  and  C_19 
REMARK    7  A    between atoms: C_18  and  C_19 
REMARK    8  A    between atoms: C_18  and  N_20 
ROOT
HETATM    1  N           1     -22.314  -4.067  -9.426  0.00  0.00    -0.344 N 
HETATM    2  C           1     -21.530  -4.637  -8.459  0.00  0.00     0.249 C 
HETATM    3  O           1     -20.594  -5.334  -8.774  0.00  0.00    -0.271 OA
HETATM    4  H           1     -23.098  -3.484  -9.163  0.00  0.00     0.163 HD
ENDROOT
BRANCH   2   5
HETATM    5  C           1     -21.835  -4.396  -7.001  0.00  0.00     0.278 C 
BRANCH   5   6
HETATM    6  C           1     -21.095  -5.420  -6.151  0.00  0.00     0.021 C 
HETATM    7  C           1     -20.083  -4.708  -5.263  0.00  0.00     0.012 C 
BRANCH   6   8
HETATM    8  C           1     -22.093  -6.172  -5.280  0.00  0.00     0.002 C 
HETATM    9  C           1     -21.535  -6.307  -3.869  0.00  0.00     0.005 C 
ENDBRANCH   6   8
ENDBRANCH   5   6
BRANCH   5  10
HETATM   10  N           1     -23.311  -4.529  -6.771  0.00  0.00    -0.066 N 
HETATM   11  H           1     -23.525  -5.496  -6.440  0.00  0.00     0.275 HD
HETATM   12  H           1     -23.821  -4.346  -7.665  0.00  0.00     0.275 HD
HETATM   13  H           1     -23.614  -3.838  -6.048  0.00  0.00     0.275 HD
ENDBRANCH   5  10
ENDBRANCH   2   5
BRANCH   1  14
HETATM   14  C           1     -22.021  -4.299 -10.827  0.00  0.00     0.195 C 
BRANCH  14  15
HETATM   15  C           1     -21.395  -3.061 -11.421  0.00  0.00     0.197 C 
HETATM   16  O           1     -20.178  -2.833 -11.251  0.00  0.00    -0.646 OA
HETATM   17  O           1     -22.094  -2.263 -12.082  0.00  0.00    -0.646 OA
ENDBRANCH  14  15
BRANCH  14  18
HETATM   18  C           1     -23.312  -4.621 -11.568  0.00  0.00     0.149 C 
BRANCH  18  19
HETATM   19  C           1     -24.494  -4.214 -10.723  0.00  0.00     0.175 C 
HETATM   20  O           1     -25.071  -3.126 -10.940  0.00  0.00    -0.648 OA
HETATM   21  O           1     -24.895  -4.963  -9.806  0.00  0.00    -0.648 OA
ENDBRANCH  18  19
ENDBRANCH  14  18
ENDBRANCH   1  14
TORSDOF 8
ENDMDL
MODEL 2
REMARK VINA RESULT:      -5.7      1.594      3.166
REMARK  8 active torsions:
REMARK  status: ('A' for Active; 'I' for Inactive)
REMARK    1  A    between atoms: N_1  and  C_16 
REMARK       I    between atoms: N_1  and  C_3 
REMARK    2  A    between atoms: C_3  and  C_18 
REMARK    3  A    between atoms: C_10  and  C_16 
REMARK    4  A    between atoms: C_13  and  C_15 
REMARK    5  A    between atoms: C_15  and  C_16 
REMARK    6  A    between atoms: C_17  and  C_19 
REMARK    7  A    between atoms: C_18  and  C_19 
REMARK    8  A    between atoms: C_18  and  N_20 
ROOT
HETATM    1  N           1     -22.291  -4.890  -9.017  0.00  0.00    -0.344 N 
HETATM    2  C           1     -21.742  -4.791  -7.767  0.00  0.00     0.249 C 
HETATM    3  O           1     -21.701  -3.720  -7.209  0.00  0.00    -0.271 OA
HETATM    4  H           1     -22.324  -5.786  -9.486  0.00  0.00     0.163 HD
ENDROOT
BRANCH   2   5
HETATM    5  C           1     -21.188  -6.019  -7.087  0.00  0.00     0.278 C 
BRANCH   5   6
HETATM    6  C           1     -21.433  -5.923  -5.587  0.00  0.00     0.021 C 
HETATM    7  C           1     -22.886  -6.268  -5.285  0.00  0.00     0.012 C 
BRANCH   6   8
HETATM    8  C           1     -20.518  -6.900  -4.860  0.00  0.00     0.002 C 
HETATM    9  C           1     -21.191  -8.265  -4.785  0.00  0.00     0.005 C 
ENDBRANCH   6   8
ENDBRANCH   5   6
BRANCH   5  10
HETATM   10  N           1     -19.714  -6.112  -7.347  0.00  0.00    -0.066 N 
HETATM   11  H           1     -19.466  -7.097  -7.593  0.00  0.00     0.275 HD
HETATM   12  H           1     -19.190  -5.825  -6.490  0.00  0.00     0.275 HD
HETATM   13  H           1     -19.460  -5.481  -8.140  0.00  0.00     0.275 HD
ENDBRANCH   5  10
ENDBRANCH   2   5
BRANCH   1  14
HETATM   14  C           1     -22.822  -3.710  -9.671  0.00  0.00     0.195 C 
BRANCH  14  15
HETATM   15  C           1     -24.330  -3.784  -9.692  0.00  0.00     0.197 C 
HETATM   16  O           1     -25.008  -2.749  -9.519  0.00  0.00    -0.646 OA
HETATM   17  O           1     -24.899  -4.880  -9.882  0.00  0.00    -0.646 OA
ENDBRANCH  14  15
BRANCH  14  18
HETATM   18  C           1     -22.297  -3.641 -11.099  0.00  0.00     0.149 C 
BRANCH  18  19
HETATM   19  C           1     -20.789  -3.593 -11.080  0.00  0.00     0.175 C 
HETATM   20  O           1     -20.197  -2.508 -11.265  0.00  0.00    -0.648 OA
HETATM   21  O           1     -20.132  -4.637 -10.878  0.00  0.00    -0.648 OA
ENDBRANCH  18  19
ENDBRANCH  14  18
ENDBRANCH   1  14
TORSDOF 8
ENDMDL
MODEL 3
REMARK VINA RESULT:      -5.7      1.216      2.825
REMARK  8 active torsions:
REMARK  status: ('A' for Active; 'I' for Inactive)
REMARK    1  A    between atoms: N_1  and  C_16 
REMARK       I    between atoms: N_1  and  C_3 
REMARK    2  A    between atoms: C_3  and  C_18 
REMARK    3  A    between atoms: C_10  and  C_16 
REMARK    4  A    between atoms: C_13  and  C_15 
REMARK    5  A    between atoms: C_15  and  C_16 
REMARK    6  A    between atoms: C_17  and  C_19 
REMARK    7  A    between atoms: C_18  and  C_19 
REMARK    8  A    between atoms: C_18  and  N_20 
ROOT
HETATM    1  N           1     -23.066  -4.353  -8.804  0.00  0.00    -0.344 N 
HETATM    2  C           1     -22.267  -4.044  -7.737  0.00  0.00     0.249 C 
HETATM    3  O           1     -21.474  -3.136  -7.820  0.00  0.00    -0.271 OA
HETATM    4  H           1     -23.730  -5.114  -8.735  0.00  0.00     0.163 HD
ENDROOT
BRANCH   2   5
HETATM    5  C           1     -22.376  -4.837  -6.458  0.00  0.00     0.278 C 
BRANCH   5   6
HETATM    6  C           1     -21.543  -6.106  -6.574  0.00  0.00     0.021 C 
HETATM    7  C           1     -20.063  -5.745  -6.589  0.00  0.00     0.012 C 
BRANCH   6   8
HETATM    8  C           1     -21.831  -7.013  -5.384  0.00  0.00     0.002 C 
HETATM    9  C           1     -21.203  -6.418  -4.130  0.00  0.00     0.005 C 
ENDBRANCH   6   8
ENDBRANCH   5   6
BRANCH   5  10
HETATM   10  N           1     -23.811  -5.202  -6.217  0.00  0.00    -0.066 N 
HETATM   11  H           1     -23.905  -5.641  -5.274  0.00  0.00     0.275 HD
HETATM   12  H           1     -24.126  -5.878  -6.949  0.00  0.00     0.275 HD
HETATM   13  H           1     -24.401  -4.341  -6.261  0.00  0.00     0.275 HD
ENDBRANCH   5  10
ENDBRANCH   2   5
BRANCH   1  14
HETATM   14  C           1     -22.961  -3.592 -10.034  0.00  0.00     0.195 C 
BRANCH  14  15
HETATM   15  C           1     -24.344  -3.275 -10.548  0.00  0.00     0.197 C 
HETATM   16  O           1     -24.511  -2.981 -11.751  0.00  0.00    -0.646 OA
HETATM   17  O           1     -25.322  -3.308  -9.770  0.00  0.00    -0.646 OA
ENDBRANCH  14  15
BRANCH  14  18
HETATM   18  C           1     -22.207  -4.409 -11.074  0.00  0.00     0.149 C 
BRANCH  18  19
HETATM   19  C           1     -20.742  -4.050 -11.032  0.00  0.00     0.175 C 
HETATM   20  O           1     -19.901  -4.899 -10.664  0.00  0.00    -0.648 OA
HETATM   21  O           1     -20.369  -2.904 -11.365  0.00  0.00    -0.648 OA
ENDBRANCH  18  19
ENDBRANCH  14  18
ENDBRANCH   1  14
TORSDOF 8
ENDMDL
MODEL 4
REMARK VINA RESULT:      -5.5     10.232     12.006
REMARK  8 active torsions:
REMARK  status: ('A' for Active; 'I' for Inactive)
REMARK    1  A    between atoms: N_1  and  C_16 
REMARK       I    between atoms: N_1  and  C_3 
REMARK    2  A    between atoms: C_3  and  C_18 
REMARK    3  A    between atoms: C_10  and  C_16 
REMARK    4  A    between atoms: C_13  and  C_15 
REMARK    5  A    between atoms: C_15  and  C_16 
REMARK    6  A    between atoms: C_17  and  C_19 
REMARK    7  A    between atoms: C_18  and  C_19 
REMARK    8  A    between atoms: C_18  and  N_20 
ROOT
HETATM    1  N           1     -27.408  -6.694 -18.206  0.00  0.00    -0.344 N 
HETATM    2  C           1     -26.152  -6.278 -17.857  0.00  0.00     0.249 C 
HETATM    3  O           1     -25.979  -5.684 -16.820  0.00  0.00    -0.271 OA
HETATM    4  H           1     -27.553  -7.191 -19.075  0.00  0.00     0.163 HD
ENDROOT
BRANCH   2   5
HETATM    5  C           1     -24.983  -6.563 -18.768  0.00  0.00     0.278 C 
BRANCH   5   6
HETATM    6  C           1     -25.495  -7.070 -20.110  0.00  0.00     0.021 C 
HETATM    7  C           1     -25.611  -5.904 -21.084  0.00  0.00     0.012 C 
BRANCH   6   8
HETATM    8  C           1     -24.524  -8.102 -20.667  0.00  0.00     0.002 C 
HETATM    9  C           1     -24.205  -7.768 -22.119  0.00  0.00     0.005 C 
ENDBRANCH   6   8
ENDBRANCH   5   6
BRANCH   5  10
HETATM   10  N           1     -24.105  -7.606 -18.143  0.00  0.00    -0.066 N 
HETATM   11  H           1     -24.700  -8.348 -17.710  0.00  0.00     0.275 HD
HETATM   12  H           1     -23.509  -7.165 -17.407  0.00  0.00     0.275 HD
HETATM   13  H           1     -23.495  -8.034 -18.876  0.00  0.00     0.275 HD
ENDBRANCH   5  10
ENDBRANCH   2   5
BRANCH   1  14
HETATM   14  C           1     -28.531  -6.420 -17.331  0.00  0.00     0.195 C 
BRANCH  14  15
HETATM   15  C           1     -28.703  -7.564 -16.362  0.00  0.00     0.197 C 
HETATM   16  O           1     -28.226  -7.483 -15.209  0.00  0.00    -0.646 OA
HETATM   17  O           1     -29.322  -8.592 -16.711  0.00  0.00    -0.646 OA
ENDBRANCH  14  15
BRANCH  14  18
HETATM   18  C           1     -29.797  -6.266 -18.164  0.00  0.00     0.149 C 
BRANCH  18  19
HETATM   19  C           1     -30.935  -5.828 -17.275  0.00  0.00     0.175 C 
HETATM   20  O           1     -30.823  -4.795 -16.581  0.00  0.00    -0.648 OA
HETATM   21  O           1     -31.990  -6.497 -17.234  0.00  0.00    -0.648 OA
ENDBRANCH  18  19
ENDBRANCH  14  18
ENDBRANCH   1  14
TORSDOF 8
ENDMDL
MODEL 5
REMARK VINA RESULT:      -5.5      1.565      2.718
REMARK  8 active torsions:
REMARK  status: ('A' for Active; 'I' for Inactive)
REMARK    1  A    between atoms: N_1  and  C_16 
REMARK       I    between atoms: N_1  and  C_3 
REMARK    2  A    between atoms: C_3  and  C_18 
REMARK    3  A    between atoms: C_10  and  C_16 
REMARK    4  A    between atoms: C_13  and  C_15 
REMARK    5  A    between atoms: C_15  and  C_16 
REMARK    6  A    between atoms: C_17  and  C_19 
REMARK    7  A    between atoms: C_18  and  C_19 
REMARK    8  A    between atoms: C_18  and  N_20 
ROOT
HETATM    1  N           1     -22.016  -4.882  -9.454  0.00  0.00    -0.344 N 
HETATM    2  C           1     -21.515  -4.518  -8.233  0.00  0.00     0.249 C 
HETATM    3  O           1     -21.714  -3.406  -7.806  0.00  0.00    -0.271 OA
HETATM    4  H           1     -21.849  -5.813  -9.812  0.00  0.00     0.163 HD
ENDROOT
BRANCH   2   5
HETATM    5  C           1     -20.716  -5.507  -7.421  0.00  0.00     0.278 C 
BRANCH   5   6
HETATM    6  C           1     -21.472  -5.844  -6.143  0.00  0.00     0.021 C 
HETATM    7  C           1     -21.553  -7.357  -5.984  0.00  0.00     0.012 C 
BRANCH   6   8
HETATM    8  C           1     -20.740  -5.248  -4.948  0.00  0.00     0.002 C 
HETATM    9  C           1     -21.158  -5.980  -3.679  0.00  0.00     0.005 C 
ENDBRANCH   6   8
ENDBRANCH   5   6
BRANCH   5  10
HETATM   10  N           1     -19.387  -4.906  -7.070  0.00  0.00    -0.066 N 
HETATM   11  H           1     -19.406  -4.574  -6.080  0.00  0.00     0.275 HD
HETATM   12  H           1     -19.191  -4.099  -7.704  0.00  0.00     0.275 HD
HETATM   13  H           1     -18.638  -5.627  -7.182  0.00  0.00     0.275 HD
ENDBRANCH   5  10
ENDBRANCH   2   5
BRANCH   1  14
HETATM   14  C           1     -22.784  -3.932 -10.235  0.00  0.00     0.195 C 
BRANCH  14  15
HETATM   15  C           1     -24.227  -3.972  -9.795  0.00  0.00     0.197 C 
HETATM   16  O           1     -24.853  -5.053  -9.803  0.00  0.00    -0.646 OA
HETATM   17  O           1     -24.796  -2.923  -9.423  0.00  0.00    -0.646 OA
ENDBRANCH  14  15
BRANCH  14  18
HETATM   18  C           1     -22.692  -4.296 -11.711  0.00  0.00     0.149 C 
BRANCH  18  19
HETATM   19  C           1     -23.401  -3.249 -12.534  0.00  0.00     0.175 C 
HETATM   20  O           1     -24.395  -3.564 -13.224  0.00  0.00    -0.648 OA
HETATM   21  O           1     -22.995  -2.067 -12.526  0.00  0.00    -0.648 OA
ENDBRANCH  18  19
ENDBRANCH  14  18
ENDBRANCH   1  14
TORSDOF 8
ENDMDL
MODEL 6
REMARK VINA RESULT:      -5.5      2.450      5.781
REMARK  8 active torsions:
REMARK  status: ('A' for Active; 'I' for Inactive)
REMARK    1  A    between atoms: N_1  and  C_16 
REMARK       I    between atoms: N_1  and  C_3 
REMARK    2  A    between atoms: C_3  and  C_18 
REMARK    3  A    between atoms: C_10  and  C_16 
REMARK    4  A    between atoms: C_13  and  C_15 
REMARK    5  A    between atoms: C_15  and  C_16 
REMARK    6  A    between atoms: C_17  and  C_19 
REMARK    7  A    between atoms: C_18  and  C_19 
REMARK    8  A    between atoms: C_18  and  N_20 
ROOT
HETATM    1  N           1     -21.537  -5.253  -8.155  0.00  0.00    -0.344 N 
HETATM    2  C           1     -22.682  -4.660  -8.613  0.00  0.00     0.249 C 
HETATM    3  O           1     -23.445  -4.139  -7.835  0.00  0.00    -0.271 OA
HETATM    4  H           1     -20.897  -5.690  -8.806  0.00  0.00     0.163 HD
ENDROOT
BRANCH   2   5
HETATM    5  C           1     -22.990  -4.656 -10.090  0.00  0.00     0.278 C 
BRANCH   5   6
HETATM    6  C           1     -22.339  -3.444 -10.742  0.00  0.00     0.021 C 
HETATM    7  C           1     -21.057  -3.872 -11.445  0.00  0.00     0.012 C 
BRANCH   6   8
HETATM    8  C           1     -23.297  -2.839 -11.760  0.00  0.00     0.002 C 
HETATM    9  C           1     -22.746  -3.051 -13.165  0.00  0.00     0.005 C 
ENDBRANCH   6   8
ENDBRANCH   5   6
BRANCH   5  10
HETATM   10  N           1     -24.475  -4.592 -10.290  0.00  0.00    -0.066 N 
HETATM   11  H           1     -24.879  -3.857  -9.666  0.00  0.00     0.275 HD
HETATM   12  H           1     -24.899  -5.518 -10.055  0.00  0.00     0.275 HD
HETATM   13  H           1     -24.683  -4.356 -11.286  0.00  0.00     0.275 HD
ENDBRANCH   5  10
ENDBRANCH   2   5
BRANCH   1  14
HETATM   14  C           1     -21.240  -5.257  -6.735  0.00  0.00     0.195 C 
BRANCH  14  15
HETATM   15  C           1     -19.859  -4.692  -6.510  0.00  0.00     0.197 C 
HETATM   16  O           1     -19.114  -4.455  -7.485  0.00  0.00    -0.646 OA
HETATM   17  O           1     -19.460  -4.461  -5.348  0.00  0.00    -0.646 OA
ENDBRANCH  14  15
BRANCH  14  18
HETATM   18  C           1     -21.298  -6.684  -6.209  0.00  0.00     0.149 C 
BRANCH  18  19
HETATM   19  C           1     -22.178  -6.735  -4.985  0.00  0.00     0.175 C 
HETATM   20  O           1     -21.810  -7.377  -3.977  0.00  0.00    -0.648 OA
HETATM   21  O           1     -23.275  -6.135  -4.977  0.00  0.00    -0.648 OA
ENDBRANCH  18  19
ENDBRANCH  14  18
ENDBRANCH   1  14
TORSDOF 8
ENDMDL
MODEL 7
REMARK VINA RESULT:      -5.4      9.869     12.351
REMARK  8 active torsions:
REMARK  status: ('A' for Active; 'I' for Inactive)
REMARK    1  A    between atoms: N_1  and  C_16 
REMARK       I    between atoms: N_1  and  C_3 
REMARK    2  A    between atoms: C_3  and  C_18 
REMARK    3  A    between atoms: C_10  and  C_16 
REMARK    4  A    between atoms: C_13  and  C_15 
REMARK    5  A    between atoms: C_15  and  C_16 
REMARK    6  A    between atoms: C_17  and  C_19 
REMARK    7  A    between atoms: C_18  and  C_19 
REMARK    8  A    between atoms: C_18  and  N_20 
ROOT
HETATM    1  N           1     -27.324  -6.657 -18.359  0.00  0.00    -0.344 N 
HETATM    2  C           1     -26.747  -7.022 -19.545  0.00  0.00     0.249 C 
HETATM    3  O           1     -27.413  -7.548 -20.404  0.00  0.00    -0.271 OA
HETATM    4  H           1     -26.766  -6.217 -17.639  0.00  0.00     0.163 HD
ENDROOT
BRANCH   2   5
HETATM    5  C           1     -25.278  -6.767 -19.779  0.00  0.00     0.278 C 
BRANCH   5   6
HETATM    6  C           1     -24.849  -7.427 -21.083  0.00  0.00     0.021 C 
HETATM    7  C           1     -24.576  -6.354 -22.131  0.00  0.00     0.012 C 
BRANCH   6   8
HETATM    8  C           1     -23.582  -8.239 -20.848  0.00  0.00     0.002 C 
HETATM    9  C           1     -22.865  -8.457 -22.174  0.00  0.00     0.005 C 
ENDBRANCH   6   8
ENDBRANCH   5   6
BRANCH   5  10
HETATM   10  N           1     -24.484  -7.342 -18.644  0.00  0.00    -0.066 N 
HETATM   11  H           1     -24.640  -8.375 -18.599  0.00  0.00     0.275 HD
HETATM   12  H           1     -24.792  -6.905 -17.746  0.00  0.00     0.275 HD
HETATM   13  H           1     -23.468  -7.150 -18.796  0.00  0.00     0.275 HD
ENDBRANCH   5  10
ENDBRANCH   2   5
BRANCH   1  14
HETATM   14  C           1     -28.735  -6.901 -18.134  0.00  0.00     0.195 C 
BRANCH  14  15
HETATM   15  C           1     -29.500  -5.609 -18.289  0.00  0.00     0.197 C 
HETATM   16  O           1     -29.112  -4.748 -19.107  0.00  0.00    -0.646 OA
HETATM   17  O           1     -30.521  -5.401 -17.598  0.00  0.00    -0.646 OA
ENDBRANCH  14  15
BRANCH  14  18
HETATM   18  C           1     -28.937  -7.446 -16.726  0.00  0.00     0.149 C 
BRANCH  18  19
HETATM   19  C           1     -27.910  -6.843 -15.800  0.00  0.00     0.175 C 
HETATM   20  O           1     -28.078  -5.690 -15.346  0.00  0.00    -0.648 OA
HETATM   21  O           1     -26.890  -7.495 -15.487  0.00  0.00    -0.648 OA
ENDBRANCH  18  19
ENDBRANCH  14  18
ENDBRANCH   1  14
TORSDOF 8
ENDMDL
MODEL 8
REMARK VINA RESULT:      -5.4      3.841      7.057
REMARK  8 active torsions:
REMARK  status: ('A' for Active; 'I' for Inactive)
REMARK    1  A    between atoms: N_1  and  C_16 
REMARK       I    between atoms: N_1  and  C_3 
REMARK    2  A    between atoms: C_3  and  C_18 
REMARK    3  A    between atoms: C_10  and  C_16 
REMARK    4  A    between atoms: C_13  and  C_15 
REMARK    5  A    between atoms: C_15  and  C_16 
REMARK    6  A    between atoms: C_17  and  C_19 
REMARK    7  A    between atoms: C_18  and  C_19 
REMARK    8  A    between atoms: C_18  and  N_20 
ROOT
HETATM    1  N           1     -20.900  -6.453  -4.684  0.00  0.00    -0.344 N 
HETATM    2  C           1     -21.674  -5.709  -5.533  0.00  0.00     0.249 C 
HETATM    3  O           1     -22.871  -5.875  -5.561  0.00  0.00    -0.271 OA
HETATM    4  H           1     -19.898  -6.314  -4.661  0.00  0.00     0.163 HD
ENDROOT
BRANCH   2   5
HETATM    5  C           1     -21.034  -4.683  -6.435  0.00  0.00     0.278 C 
BRANCH   5   6
HETATM    6  C           1     -21.401  -4.979  -7.883  0.00  0.00     0.021 C 
HETATM    7  C           1     -22.380  -3.926  -8.385  0.00  0.00     0.012 C 
BRANCH   6   8
HETATM    8  C           1     -20.143  -4.951  -8.741  0.00  0.00     0.002 C 
HETATM    9  C           1     -20.468  -4.342 -10.099  0.00  0.00     0.005 C 
ENDBRANCH   6   8
ENDBRANCH   5   6
BRANCH   5  10
HETATM   10  N           1     -19.543  -4.740  -6.276  0.00  0.00    -0.066 N 
HETATM   11  H           1     -19.212  -3.880  -5.784  0.00  0.00     0.275 HD
HETATM   12  H           1     -19.094  -4.797  -7.218  0.00  0.00     0.275 HD
HETATM   13  H           1     -19.285  -5.583  -5.716  0.00  0.00     0.275 HD
ENDBRANCH   5  10
ENDBRANCH   2   5
BRANCH   1  14
HETATM   14  C           1     -21.516  -7.439  -3.817  0.00  0.00     0.195 C 
BRANCH  14  15
HETATM   15  C           1     -21.622  -6.882  -2.419  0.00  0.00     0.197 C 
HETATM   16  O           1     -22.355  -5.895  -2.193  0.00  0.00    -0.646 OA
HETATM   17  O           1     -20.977  -7.408  -1.486  0.00  0.00    -0.646 OA
ENDBRANCH  14  15
BRANCH  14  18
HETATM   18  C           1     -20.663  -8.700  -3.799  0.00  0.00     0.149 C 
BRANCH  18  19
HETATM   19  C           1     -20.240  -9.044  -5.206  0.00  0.00     0.175 C 
HETATM   20  O           1     -21.071  -9.517  -6.010  0.00  0.00    -0.648 OA
HETATM   21  O           1     -19.058  -8.855  -5.567  0.00  0.00    -0.648 OA
ENDBRANCH  18  19
ENDBRANCH  14  18
ENDBRANCH   1  14
TORSDOF 8
ENDMDL
MODEL 9
REMARK VINA RESULT:      -5.2      8.789     11.875
REMARK  8 active torsions:
REMARK  status: ('A' for Active; 'I' for Inactive)
REMARK    1  A    between atoms: N_1  and  C_16 
REMARK       I    between atoms: N_1  and  C_3 
REMARK    2  A    between atoms: C_3  and  C_18 
REMARK    3  A    between atoms: C_10  and  C_16 
REMARK    4  A    between atoms: C_13  and  C_15 
REMARK    5  A    between atoms: C_15  and  C_16 
REMARK    6  A    between atoms: C_17  and  C_19 
REMARK    7  A    between atoms: C_18  and  C_19 
REMARK    8  A    between atoms: C_18  and  N_20 
ROOT
HETATM    1  N           1     -26.427  -6.584 -18.142  0.00  0.00    -0.344 N 
HETATM    2  C           1     -27.115  -6.065 -19.205  0.00  0.00     0.249 C 
HETATM    3  O           1     -28.046  -5.318 -19.015  0.00  0.00    -0.271 OA
HETATM    4  H           1     -25.648  -7.210 -18.301  0.00  0.00     0.163 HD
ENDROOT
BRANCH   2   5
HETATM    5  C           1     -26.712  -6.425 -20.614  0.00  0.00     0.278 C 
BRANCH   5   6
HETATM    6  C           1     -26.262  -7.879 -20.657  0.00  0.00     0.021 C 
HETATM    7  C           1     -27.390  -8.745 -21.205  0.00  0.00     0.012 C 
BRANCH   6   8
HETATM    8  C           1     -25.042  -8.006 -21.561  0.00  0.00     0.002 C 
HETATM    9  C           1     -23.794  -8.189 -20.707  0.00  0.00     0.005 C 
ENDBRANCH   6   8
ENDBRANCH   5   6
BRANCH   5  10
HETATM   10  N           1     -25.583  -5.539 -21.052  0.00  0.00    -0.066 N 
HETATM   11  H           1     -25.905  -4.546 -21.065  0.00  0.00     0.275 HD
HETATM   12  H           1     -25.273  -5.818 -22.010  0.00  0.00     0.275 HD
HETATM   13  H           1     -24.785  -5.637 -20.385  0.00  0.00     0.275 HD
ENDBRANCH   5  10
ENDBRANCH   2   5
BRANCH   1  14
HETATM   14  C           1     -26.814  -6.238 -16.788  0.00  0.00     0.195 C 
BRANCH  14  15
HETATM   15  C           1     -25.645  -6.458 -15.860  0.00  0.00     0.197 C 
HETATM   16  O           1     -25.312  -7.619 -15.538  0.00  0.00    -0.646 OA
HETATM   17  O           1     -25.008  -5.479 -15.414  0.00  0.00    -0.646 OA
ENDBRANCH  14  15
BRANCH  14  18
HETATM   18  C           1     -27.980  -7.117 -16.354  0.00  0.00     0.149 C 
BRANCH  18  19
HETATM   19  C           1     -29.155  -6.247 -15.981  0.00  0.00     0.175 C 
HETATM   20  O           1     -29.153  -5.628 -14.895  0.00  0.00    -0.648 OA
HETATM   21  O           1     -30.130  -6.146 -16.757  0.00  0.00    -0.648 OA
ENDBRANCH  18  19
ENDBRANCH  14  18
ENDBRANCH   1  14
TORSDOF 8
ENDMDL
