MODEL 1
REMARK VINA RESULT:      -7.0      0.000      0.000
REMARK  8 active torsions:
REMARK  status: ('A' for Active; 'I' for Inactive)
REMARK    1  A    between atoms: C_1  and  C_19 
REMARK    2  A    between atoms: N_3  and  C_18 
REMARK    3  A    between atoms: N_9  and  C_21 
REMARK       I    between atoms: N_9  and  C_10 
REMARK    4  A    between atoms: C_10  and  C_18 
REMARK    5  A    between atoms: C_15  and  C_17 
REMARK    6  A    between atoms: C_17  and  C_21 
REMARK    7  A    between atoms: C_18  and  C_19 
REMARK    8  A    between atoms: C_21  and  C_25 
ROOT
HETATM    1  N           1     -35.633  -1.439 -10.426  0.00  0.00    -0.344 N 
HETATM    2  C           1     -34.591  -2.046 -11.072  0.00  0.00     0.249 C 
HETATM    3  H           1     -36.014  -1.849  -9.583  0.00  0.00     0.163 HD
HETATM    4  O           1     -33.452  -1.761 -10.783  0.00  0.00    -0.271 OA
ENDROOT
BRANCH   1   5
HETATM    5  C           1     -36.192  -0.207 -10.950  0.00  0.00     0.191 C 
BRANCH   5   6
HETATM    6  C           1     -37.210  -0.534 -12.035  0.00  0.00     0.094 C 
BRANCH   6   7
HETATM    7  C           1     -36.758   0.050 -13.337  0.00  0.00     0.028 A 
HETATM    8  N           1     -35.525   0.610 -13.554  0.00  0.00    -0.354 N 
HETATM    9  C           1     -35.536   0.995 -14.809  0.00  0.00     0.180 A 
ATOM     10  HN          1     -34.763   0.707 -12.884  1.00  0.00     0.166 HD
HETATM   11  N           1     -36.727   0.704 -15.411  0.00  0.00    -0.360 N 
HETATM   12  H           1     -36.985   0.909 -16.408  0.00  0.00     0.166 HD
HETATM   13  C           1     -37.522   0.098 -14.479  0.00  0.00     0.114 A 
ENDBRANCH   6   7
ENDBRANCH   5   6
BRANCH   5  14
HETATM   14  C           1     -36.871   0.550  -9.835  0.00  0.00     0.197 C 
HETATM   15  O           1     -37.996   1.061 -10.022  0.00  0.00    -0.646 OA
HETATM   16  O           1     -36.307   0.668  -8.726  0.00  0.00    -0.646 OA
ENDBRANCH   5  14
ENDBRANCH   1   5
BRANCH   2  17
HETATM   17  C           1     -34.861  -3.071 -12.146  0.00  0.00     0.278 C 
BRANCH  17  18
HETATM   18  N           1     -34.381  -2.549 -13.468  0.00  0.00    -0.066 N 
HETATM   19  H           1     -33.337  -2.497 -13.464  0.00  0.00     0.275 HD
HETATM   20  H           1     -34.694  -3.191 -14.230  0.00  0.00     0.275 HD
HETATM   21  H           1     -34.776  -1.595 -13.630  0.00  0.00     0.275 HD
ENDBRANCH  17  18
BRANCH  17  22
HETATM   22  C           1     -34.125  -4.363 -11.814  0.00  0.00     0.021 C 
HETATM   23  C           1     -32.626  -4.145 -11.963  0.00  0.00     0.012 C 
BRANCH  22  24
HETATM   24  C           1     -34.439  -4.769 -10.380  0.00  0.00     0.002 C 
HETATM   25  C           1     -34.472  -6.290 -10.279  0.00  0.00     0.005 C 
ENDBRANCH  22  24
ENDBRANCH  17  22
ENDBRANCH   2  17
TORSDOF 8
ENDMDL
MODEL 2
REMARK VINA RESULT:      -6.8      2.202      3.613
REMARK  8 active torsions:
REMARK  status: ('A' for Active; 'I' for Inactive)
REMARK    1  A    between atoms: C_1  and  C_19 
REMARK    2  A    between atoms: N_3  and  C_18 
REMARK    3  A    between atoms: N_9  and  C_21 
REMARK       I    between atoms: N_9  and  C_10 
REMARK    4  A    between atoms: C_10  and  C_18 
REMARK    5  A    between atoms: C_15  and  C_17 
REMARK    6  A    between atoms: C_17  and  C_21 
REMARK    7  A    between atoms: C_18  and  C_19 
REMARK    8  A    between atoms: C_21  and  C_25 
ROOT
HETATM    1  N           1     -34.798  -1.150 -13.196  0.00  0.00    -0.344 N 
HETATM    2  C           1     -34.462  -2.467 -13.034  0.00  0.00     0.249 C 
HETATM    3  H           1     -34.141  -0.508 -13.619  0.00  0.00     0.163 HD
HETATM    4  O           1     -34.709  -3.266 -13.907  0.00  0.00    -0.271 OA
ENDROOT
BRANCH   1   5
HETATM    5  C           1     -36.097  -0.676 -12.760  0.00  0.00     0.191 C 
BRANCH   5   6
HETATM    6  C           1     -35.922   0.586 -11.925  0.00  0.00     0.094 C 
BRANCH   6   7
HETATM    7  C           1     -36.650   0.430 -10.626  0.00  0.00     0.028 A 
HETATM    8  N           1     -36.431   1.200  -9.512  0.00  0.00    -0.354 N 
HETATM    9  C           1     -37.264   0.744  -8.607  0.00  0.00     0.180 A 
ATOM     10  HN          1     -35.763   1.964  -9.410  1.00  0.00     0.166 HD
HETATM   11  N           1     -38.014  -0.290  -9.092  0.00  0.00    -0.360 N 
HETATM   12  H           1     -38.749  -0.824  -8.566  0.00  0.00     0.166 HD
HETATM   13  C           1     -37.631  -0.503 -10.387  0.00  0.00     0.114 A 
ENDBRANCH   6   7
ENDBRANCH   5   6
BRANCH   5  14
HETATM   14  C           1     -36.950  -0.367 -13.967  0.00  0.00     0.197 C 
HETATM   15  O           1     -36.530  -0.635 -15.113  0.00  0.00    -0.646 OA
HETATM   16  O           1     -38.074   0.159 -13.819  0.00  0.00    -0.646 OA
ENDBRANCH   5  14
ENDBRANCH   1   5
BRANCH   2  17
HETATM   17  C           1     -33.781  -2.923 -11.767  0.00  0.00     0.278 C 
BRANCH  17  18
HETATM   18  N           1     -34.612  -2.524 -10.583  0.00  0.00    -0.066 N 
HETATM   19  H           1     -35.195  -3.335 -10.277  0.00  0.00     0.275 HD
HETATM   20  H           1     -33.984  -2.233  -9.800  0.00  0.00     0.275 HD
HETATM   21  H           1     -35.234  -1.727 -10.847  0.00  0.00     0.275 HD
ENDBRANCH  17  18
BRANCH  17  22
HETATM   22  C           1     -33.626  -4.438 -11.789  0.00  0.00     0.021 C 
HETATM   23  C           1     -32.158  -4.796 -11.981  0.00  0.00     0.012 C 
BRANCH  22  24
HETATM   24  C           1     -34.120  -5.017 -10.470  0.00  0.00     0.002 C 
HETATM   25  C           1     -34.142  -6.538 -10.558  0.00  0.00     0.005 C 
ENDBRANCH  22  24
ENDBRANCH  17  22
ENDBRANCH   2  17
TORSDOF 8
ENDMDL
MODEL 3
REMARK VINA RESULT:      -6.6     11.695     14.085
REMARK  8 active torsions:
REMARK  status: ('A' for Active; 'I' for Inactive)
REMARK    1  A    between atoms: C_1  and  C_19 
REMARK    2  A    between atoms: N_3  and  C_18 
REMARK    3  A    between atoms: N_9  and  C_21 
REMARK       I    between atoms: N_9  and  C_10 
REMARK    4  A    between atoms: C_10  and  C_18 
REMARK    5  A    between atoms: C_15  and  C_17 
REMARK    6  A    between atoms: C_17  and  C_21 
REMARK    7  A    between atoms: C_18  and  C_19 
REMARK    8  A    between atoms: C_21  and  C_25 
ROOT
HETATM    1  N           1     -23.152  -3.896  -7.791  0.00  0.00    -0.344 N 
HETATM    2  C           1     -21.884  -4.108  -7.319  0.00  0.00     0.249 C 
HETATM    3  H           1     -23.941  -3.948  -7.161  0.00  0.00     0.163 HD
HETATM    4  O           1     -21.229  -3.179  -6.908  0.00  0.00    -0.271 OA
ENDROOT
BRANCH   1   5
HETATM    5  C           1     -23.362  -3.599  -9.195  0.00  0.00     0.191 C 
BRANCH   5   6
HETATM    6  C           1     -22.442  -4.469 -10.041  0.00  0.00     0.094 C 
BRANCH   6   7
HETATM    7  C           1     -22.571  -4.080 -11.481  0.00  0.00     0.028 A 
HETATM    8  N           1     -23.680  -4.310 -12.254  0.00  0.00    -0.354 N 
HETATM    9  C           1     -23.386  -3.821 -13.436  0.00  0.00     0.180 A 
ATOM     10  HN          1     -24.548  -4.765 -11.971  1.00  0.00     0.166 HD
HETATM   11  N           1     -22.131  -3.283 -13.457  0.00  0.00    -0.360 N 
HETATM   12  H           1     -21.662  -2.830 -14.280  0.00  0.00     0.166 HD
HETATM   13  C           1     -21.595  -3.442 -12.209  0.00  0.00     0.114 A 
ENDBRANCH   6   7
ENDBRANCH   5   6
BRANCH   5  14
HETATM   14  C           1     -24.799  -3.884  -9.559  0.00  0.00     0.197 C 
HETATM   15  O           1     -25.564  -2.944  -9.864  0.00  0.00    -0.646 OA
HETATM   16  O           1     -25.223  -5.060  -9.554  0.00  0.00    -0.646 OA
ENDBRANCH   5  14
ENDBRANCH   1   5
BRANCH   2  17
HETATM   17  C           1     -21.304  -5.501  -7.311  0.00  0.00     0.278 C 
BRANCH  17  18
HETATM   18  N           1     -19.993  -5.499  -8.040  0.00  0.00    -0.066 N 
HETATM   19  H           1     -20.118  -5.928  -8.984  0.00  0.00     0.275 HD
HETATM   20  H           1     -19.657  -4.515  -8.149  0.00  0.00     0.275 HD
HETATM   21  H           1     -19.291  -6.050  -7.497  0.00  0.00     0.275 HD
ENDBRANCH  17  18
BRANCH  17  22
HETATM   22  C           1     -21.083  -5.952  -5.873  0.00  0.00     0.021 C 
HETATM   23  C           1     -22.394  -6.464  -5.294  0.00  0.00     0.012 C 
BRANCH  22  24
HETATM   24  C           1     -20.047  -7.068  -5.847  0.00  0.00     0.002 C 
HETATM   25  C           1     -20.530  -8.189  -4.935  0.00  0.00     0.005 C 
ENDBRANCH  22  24
ENDBRANCH  17  22
ENDBRANCH   2  17
TORSDOF 8
ENDMDL
MODEL 4
REMARK VINA RESULT:      -6.5     13.623     15.677
REMARK  8 active torsions:
REMARK  status: ('A' for Active; 'I' for Inactive)
REMARK    1  A    between atoms: C_1  and  C_19 
REMARK    2  A    between atoms: N_3  and  C_18 
REMARK    3  A    between atoms: N_9  and  C_21 
REMARK       I    between atoms: N_9  and  C_10 
REMARK    4  A    between atoms: C_10  and  C_18 
REMARK    5  A    between atoms: C_15  and  C_17 
REMARK    6  A    between atoms: C_17  and  C_21 
REMARK    7  A    between atoms: C_18  and  C_19 
REMARK    8  A    between atoms: C_21  and  C_25 
ROOT
HETATM    1  N           1     -22.130  -4.655  -6.385  0.00  0.00    -0.344 N 
HETATM    2  C           1     -21.304  -5.305  -5.509  0.00  0.00     0.249 C 
HETATM    3  H           1     -22.862  -4.049  -6.036  0.00  0.00     0.163 HD
HETATM    4  O           1     -20.278  -4.782  -5.143  0.00  0.00    -0.271 OA
ENDROOT
BRANCH   1   5
HETATM    5  C           1     -21.956  -4.833  -7.814  0.00  0.00     0.191 C 
BRANCH   5   6
HETATM    6  C           1     -22.599  -3.667  -8.553  0.00  0.00     0.094 C 
BRANCH   6   7
HETATM    7  C           1     -22.589  -3.942 -10.024  0.00  0.00     0.028 A 
HETATM    8  N           1     -21.736  -3.354 -10.922  0.00  0.00    -0.354 N 
HETATM    9  C           1     -22.055  -3.863 -12.089  0.00  0.00     0.180 A 
ATOM     10  HN          1     -21.008  -2.667 -10.726  1.00  0.00     0.166 HD
HETATM   11  N           1     -23.081  -4.759 -11.980  0.00  0.00    -0.360 N 
HETATM   12  H           1     -23.518  -5.301 -12.765  0.00  0.00     0.166 HD
HETATM   13  C           1     -23.435  -4.819 -10.661  0.00  0.00     0.114 A 
ENDBRANCH   6   7
ENDBRANCH   5   6
BRANCH   5  14
HETATM   14  C           1     -20.483  -4.883  -8.137  0.00  0.00     0.197 C 
HETATM   15  O           1     -19.899  -5.985  -8.226  0.00  0.00    -0.646 OA
HETATM   16  O           1     -19.846  -3.822  -8.316  0.00  0.00    -0.646 OA
ENDBRANCH   5  14
ENDBRANCH   1   5
BRANCH   2  17
HETATM   17  C           1     -21.673  -6.677  -4.999  0.00  0.00     0.278 C 
BRANCH  17  18
HETATM   18  N           1     -21.122  -7.719  -5.926  0.00  0.00    -0.066 N 
HETATM   19  H           1     -21.907  -8.269  -6.340  0.00  0.00     0.275 HD
HETATM   20  H           1     -20.582  -7.254  -6.691  0.00  0.00     0.275 HD
HETATM   21  H           1     -20.491  -8.360  -5.394  0.00  0.00     0.275 HD
ENDBRANCH  17  18
BRANCH  17  22
HETATM   22  C           1     -21.089  -6.877  -3.606  0.00  0.00     0.021 C 
HETATM   23  C           1     -22.051  -6.318  -2.567  0.00  0.00     0.012 C 
BRANCH  22  24
HETATM   24  C           1     -20.878  -8.364  -3.355  0.00  0.00     0.002 C 
HETATM   25  C           1     -20.271  -8.564  -1.972  0.00  0.00     0.005 C 
ENDBRANCH  22  24
ENDBRANCH  17  22
ENDBRANCH   2  17
TORSDOF 8
ENDMDL
MODEL 5
REMARK VINA RESULT:      -6.4     13.769     16.770
REMARK  8 active torsions:
REMARK  status: ('A' for Active; 'I' for Inactive)
REMARK    1  A    between atoms: C_1  and  C_19 
REMARK    2  A    between atoms: N_3  and  C_18 
REMARK    3  A    between atoms: N_9  and  C_21 
REMARK       I    between atoms: N_9  and  C_10 
REMARK    4  A    between atoms: C_10  and  C_18 
REMARK    5  A    between atoms: C_15  and  C_17 
REMARK    6  A    between atoms: C_17  and  C_21 
REMARK    7  A    between atoms: C_18  and  C_19 
REMARK    8  A    between atoms: C_21  and  C_25 
ROOT
HETATM    1  N           1     -20.688  -6.257  -6.894  0.00  0.00    -0.344 N 
HETATM    2  C           1     -21.186  -5.011  -7.164  0.00  0.00     0.249 C 
HETATM    3  H           1     -19.838  -6.571  -7.343  0.00  0.00     0.163 HD
HETATM    4  O           1     -20.843  -4.064  -6.496  0.00  0.00    -0.271 OA
ENDROOT
BRANCH   1   5
HETATM    5  C           1     -21.380  -7.127  -5.962  0.00  0.00     0.191 C 
BRANCH   5   6
HETATM    6  C           1     -20.365  -7.994  -5.229  0.00  0.00     0.094 C 
BRANCH   6   7
HETATM    7  C           1     -20.918  -9.375  -5.059  0.00  0.00     0.028 A 
HETATM    8  N           1     -20.832 -10.371  -5.997  0.00  0.00    -0.354 N 
HETATM    9  C           1     -21.433 -11.406  -5.460  0.00  0.00     0.180 A 
ATOM     10  HN          1     -20.393 -10.318  -6.917  1.00  0.00     0.166 HD
HETATM   11  N           1     -21.904 -11.118  -4.211  0.00  0.00    -0.360 N 
HETATM   12  H           1     -22.420 -11.776  -3.575  0.00  0.00     0.166 HD
HETATM   13  C           1     -21.581  -9.818  -3.939  0.00  0.00     0.114 A 
ENDBRANCH   6   7
ENDBRANCH   5   6
BRANCH   5  14
HETATM   14  C           1     -22.140  -6.289  -4.963  0.00  0.00     0.197 C 
HETATM   15  O           1     -21.567  -5.871  -3.934  0.00  0.00    -0.646 OA
HETATM   16  O           1     -23.343  -6.013  -5.164  0.00  0.00    -0.646 OA
ENDBRANCH   5  14
ENDBRANCH   1   5
BRANCH   2  17
HETATM   17  C           1     -22.164  -4.818  -8.298  0.00  0.00     0.278 C 
BRANCH  17  18
HETATM   18  N           1     -23.437  -4.231  -7.764  0.00  0.00    -0.066 N 
HETATM   19  H           1     -23.253  -3.270  -7.400  0.00  0.00     0.275 HD
HETATM   20  H           1     -24.145  -4.181  -8.532  0.00  0.00     0.275 HD
HETATM   21  H           1     -23.801  -4.833  -6.992  0.00  0.00     0.275 HD
ENDBRANCH  17  18
BRANCH  17  22
HETATM   22  C           1     -21.565  -3.872  -9.331  0.00  0.00     0.021 C 
HETATM   23  C           1     -20.337  -4.518  -9.959  0.00  0.00     0.012 C 
BRANCH  22  24
HETATM   24  C           1     -22.597  -3.586 -10.414  0.00  0.00     0.002 C 
HETATM   25  C           1     -21.931  -3.657 -11.783  0.00  0.00     0.005 C 
ENDBRANCH  22  24
ENDBRANCH  17  22
ENDBRANCH   2  17
TORSDOF 8
ENDMDL
MODEL 6
REMARK VINA RESULT:      -6.3     13.090     16.188
REMARK  8 active torsions:
REMARK  status: ('A' for Active; 'I' for Inactive)
REMARK    1  A    between atoms: C_1  and  C_19 
REMARK    2  A    between atoms: N_3  and  C_18 
REMARK    3  A    between atoms: N_9  and  C_21 
REMARK       I    between atoms: N_9  and  C_10 
REMARK    4  A    between atoms: C_10  and  C_18 
REMARK    5  A    between atoms: C_15  and  C_17 
REMARK    6  A    between atoms: C_17  and  C_21 
REMARK    7  A    between atoms: C_18  and  C_19 
REMARK    8  A    between atoms: C_21  and  C_25 
ROOT
HETATM    1  N           1     -21.102  -5.652  -8.042  0.00  0.00    -0.344 N 
HETATM    2  C           1     -21.507  -4.583  -8.795  0.00  0.00     0.249 C 
HETATM    3  H           1     -20.724  -6.475  -8.493  0.00  0.00     0.163 HD
HETATM    4  O           1     -20.724  -3.703  -9.066  0.00  0.00    -0.271 OA
ENDROOT
BRANCH   1   5
HETATM    5  C           1     -21.215  -5.605  -6.597  0.00  0.00     0.191 C 
BRANCH   5   6
HETATM    6  C           1     -21.324  -7.022  -6.050  0.00  0.00     0.094 C 
BRANCH   6   7
HETATM    7  C           1     -21.426  -6.975  -4.557  0.00  0.00     0.028 A 
HETATM    8  N           1     -22.270  -6.150  -3.859  0.00  0.00    -0.354 N 
HETATM    9  C           1     -22.050  -6.420  -2.594  0.00  0.00     0.180 A 
ATOM     10  HN          1     -22.928  -5.471  -4.241  1.00  0.00     0.166 HD
HETATM   11  N           1     -21.098  -7.388  -2.447  0.00  0.00    -0.360 N 
HETATM   12  H           1     -20.745  -7.780  -1.539  0.00  0.00     0.166 HD
HETATM   13  C           1     -20.688  -7.754  -3.699  0.00  0.00     0.114 A 
ENDBRANCH   6   7
ENDBRANCH   5   6
BRANCH   5  14
HETATM   14  C           1     -19.991  -4.936  -6.020  0.00  0.00     0.197 C 
HETATM   15  O           1     -20.060  -4.351  -4.918  0.00  0.00    -0.646 OA
HETATM   16  O           1     -18.908  -4.967  -6.645  0.00  0.00    -0.646 OA
ENDBRANCH   5  14
ENDBRANCH   1   5
BRANCH   2  17
HETATM   17  C           1     -22.931  -4.503  -9.288  0.00  0.00     0.278 C 
BRANCH  17  18
HETATM   18  N           1     -23.784  -3.846  -8.243  0.00  0.00    -0.066 N 
HETATM   19  H           1     -23.600  -4.287  -7.314  0.00  0.00     0.275 HD
HETATM   20  H           1     -23.553  -2.828  -8.195  0.00  0.00     0.275 HD
HETATM   21  H           1     -24.792  -3.964  -8.491  0.00  0.00     0.275 HD
ENDBRANCH  17  18
BRANCH  17  22
HETATM   22  C           1     -22.981  -3.682 -10.570  0.00  0.00     0.021 C 
HETATM   23  C           1     -22.335  -4.470 -11.702  0.00  0.00     0.012 C 
BRANCH  22  24
HETATM   24  C           1     -24.432  -3.383 -10.924  0.00  0.00     0.002 C 
HETATM   25  C           1     -24.531  -3.024 -12.401  0.00  0.00     0.005 C 
ENDBRANCH  22  24
ENDBRANCH  17  22
ENDBRANCH   2  17
TORSDOF 8
ENDMDL
MODEL 7
REMARK VINA RESULT:      -6.3     14.526     17.418
REMARK  8 active torsions:
REMARK  status: ('A' for Active; 'I' for Inactive)
REMARK    1  A    between atoms: C_1  and  C_19 
REMARK    2  A    between atoms: N_3  and  C_18 
REMARK    3  A    between atoms: N_9  and  C_21 
REMARK       I    between atoms: N_9  and  C_10 
REMARK    4  A    between atoms: C_10  and  C_18 
REMARK    5  A    between atoms: C_15  and  C_17 
REMARK    6  A    between atoms: C_17  and  C_21 
REMARK    7  A    between atoms: C_18  and  C_19 
REMARK    8  A    between atoms: C_21  and  C_25 
ROOT
HETATM    1  N           1     -20.216  -6.734  -6.748  0.00  0.00    -0.344 N 
HETATM    2  C           1     -20.229  -5.388  -6.994  0.00  0.00     0.249 C 
HETATM    3  H           1     -20.138  -7.388  -7.516  0.00  0.00     0.163 HD
HETATM    4  O           1     -19.193  -4.767  -7.020  0.00  0.00    -0.271 OA
ENDROOT
BRANCH   1   5
HETATM    5  C           1     -20.313  -7.222  -5.386  0.00  0.00     0.191 C 
BRANCH   5   6
HETATM    6  C           1     -21.771  -7.211  -4.946  0.00  0.00     0.094 C 
BRANCH   6   7
HETATM    7  C           1     -21.842  -7.097  -3.455  0.00  0.00     0.028 A 
HETATM    8  N           1     -22.321  -6.004  -2.778  0.00  0.00    -0.354 N 
HETATM    9  C           1     -22.210  -6.309  -1.506  0.00  0.00     0.180 A 
ATOM     10  HN          1     -22.686  -5.140  -3.177  1.00  0.00     0.166 HD
HETATM   11  N           1     -21.679  -7.556  -1.335  0.00  0.00    -0.360 N 
HETATM   12  H           1     -21.490  -8.030  -0.417  0.00  0.00     0.166 HD
HETATM   13  C           1     -21.437  -8.074  -2.577  0.00  0.00     0.114 A 
ENDBRANCH   6   7
ENDBRANCH   5   6
BRANCH   5  14
HETATM   14  C           1     -19.778  -8.632  -5.319  0.00  0.00     0.197 C 
HETATM   15  O           1     -18.695  -8.863  -4.741  0.00  0.00    -0.646 OA
HETATM   16  O           1     -20.420  -9.569  -5.842  0.00  0.00    -0.646 OA
ENDBRANCH   5  14
ENDBRANCH   1   5
BRANCH   2  17
HETATM   17  C           1     -21.539  -4.677  -7.236  0.00  0.00     0.278 C 
BRANCH  17  18
HETATM   18  N           1     -21.364  -3.209  -6.982  0.00  0.00    -0.066 N 
HETATM   19  H           1     -21.889  -2.665  -7.702  0.00  0.00     0.275 HD
HETATM   20  H           1     -21.733  -2.974  -6.032  0.00  0.00     0.275 HD
HETATM   21  H           1     -20.349  -2.965  -7.032  0.00  0.00     0.275 HD
ENDBRANCH  17  18
BRANCH  17  22
HETATM   22  C           1     -21.977  -4.893  -8.678  0.00  0.00     0.021 C 
HETATM   23  C           1     -23.320  -4.214  -8.908  0.00  0.00     0.012 C 
BRANCH  22  24
HETATM   24  C           1     -20.939  -4.293  -9.618  0.00  0.00     0.002 C 
HETATM   25  C           1     -21.630  -3.770 -10.871  0.00  0.00     0.005 C 
ENDBRANCH  22  24
ENDBRANCH  17  22
ENDBRANCH   2  17
TORSDOF 8
ENDMDL
MODEL 8
REMARK VINA RESULT:      -6.1     15.587     18.423
REMARK  8 active torsions:
REMARK  status: ('A' for Active; 'I' for Inactive)
REMARK    1  A    between atoms: C_1  and  C_19 
REMARK    2  A    between atoms: N_3  and  C_18 
REMARK    3  A    between atoms: N_9  and  C_21 
REMARK       I    between atoms: N_9  and  C_10 
REMARK    4  A    between atoms: C_10  and  C_18 
REMARK    5  A    between atoms: C_15  and  C_17 
REMARK    6  A    between atoms: C_17  and  C_21 
REMARK    7  A    between atoms: C_18  and  C_19 
REMARK    8  A    between atoms: C_21  and  C_25 
ROOT
HETATM    1  N           1     -21.376  -6.498  -3.008  0.00  0.00    -0.344 N 
HETATM    2  C           1     -21.729  -6.330  -4.319  0.00  0.00     0.249 C 
HETATM    3  H           1     -21.122  -5.696  -2.445  0.00  0.00     0.163 HD
HETATM    4  O           1     -22.885  -6.139  -4.615  0.00  0.00    -0.271 OA
ENDROOT
BRANCH   1   5
HETATM    5  C           1     -21.366  -7.826  -2.424  0.00  0.00     0.191 C 
BRANCH   5   6
HETATM    6  C           1     -19.932  -8.228  -2.106  0.00  0.00     0.094 C 
BRANCH   6   7
HETATM    7  C           1     -19.434  -9.174  -3.154  0.00  0.00     0.028 A 
HETATM    8  N           1     -18.121  -9.301  -3.530  0.00  0.00    -0.354 N 
HETATM    9  C           1     -18.116 -10.225  -4.462  0.00  0.00     0.180 A 
ATOM     10  HN          1     -17.320  -8.788  -3.163  1.00  0.00     0.166 HD
HETATM   11  N           1     -19.373 -10.700  -4.703  0.00  0.00    -0.360 N 
HETATM   12  H           1     -19.635 -11.441  -5.400  0.00  0.00     0.166 HD
HETATM   13  C           1     -20.230 -10.035  -3.871  0.00  0.00     0.114 A 
ENDBRANCH   6   7
ENDBRANCH   5   6
BRANCH   5  14
HETATM   14  C           1     -22.181  -7.822  -1.154  0.00  0.00     0.197 C 
HETATM   15  O           1     -22.713  -6.763  -0.756  0.00  0.00    -0.646 OA
HETATM   16  O           1     -22.323  -8.878  -0.499  0.00  0.00    -0.646 OA
ENDBRANCH   5  14
ENDBRANCH   1   5
BRANCH   2  17
HETATM   17  C           1     -20.675  -6.384  -5.398  0.00  0.00     0.278 C 
BRANCH  17  18
HETATM   18  N           1     -20.968  -7.525  -6.326  0.00  0.00    -0.066 N 
HETATM   19  H           1     -20.436  -8.370  -6.019  0.00  0.00     0.275 HD
HETATM   20  H           1     -21.992  -7.734  -6.308  0.00  0.00     0.275 HD
HETATM   21  H           1     -20.682  -7.267  -7.297  0.00  0.00     0.275 HD
ENDBRANCH  17  18
BRANCH  17  22
HETATM   22  C           1     -20.683  -5.078  -6.183  0.00  0.00     0.021 C 
HETATM   23  C           1     -19.259  -4.716  -6.582  0.00  0.00     0.012 C 
BRANCH  22  24
HETATM   24  C           1     -21.533  -5.246  -7.436  0.00  0.00     0.002 C 
HETATM   25  C           1     -22.013  -3.880  -7.911  0.00  0.00     0.005 C 
ENDBRANCH  22  24
ENDBRANCH  17  22
ENDBRANCH   2  17
TORSDOF 8
ENDMDL
MODEL 9
REMARK VINA RESULT:      -6.0     16.630     18.911
REMARK  8 active torsions:
REMARK  status: ('A' for Active; 'I' for Inactive)
REMARK    1  A    between atoms: C_1  and  C_19 
REMARK    2  A    between atoms: N_3  and  C_18 
REMARK    3  A    between atoms: N_9  and  C_21 
REMARK       I    between atoms: N_9  and  C_10 
REMARK    4  A    between atoms: C_10  and  C_18 
REMARK    5  A    between atoms: C_15  and  C_17 
REMARK    6  A    between atoms: C_17  and  C_21 
REMARK    7  A    between atoms: C_18  and  C_19 
REMARK    8  A    between atoms: C_21  and  C_25 
ROOT
HETATM    1  N           1     -21.183  -7.649  -1.823  0.00  0.00    -0.344 N 
HETATM    2  C           1     -21.712  -6.756  -2.715  0.00  0.00     0.249 C 
HETATM    3  H           1     -20.190  -7.641  -1.628  0.00  0.00     0.163 HD
HETATM    4  O           1     -22.104  -5.679  -2.332  0.00  0.00    -0.271 OA
ENDROOT
BRANCH   1   5
HETATM    5  C           1     -22.046  -8.607  -1.159  0.00  0.00     0.191 C 
BRANCH   5   6
HETATM    6  C           1     -21.324  -9.943  -1.040  0.00  0.00     0.094 C 
BRANCH   6   7
HETATM    7  C           1     -22.317 -11.022  -0.741  0.00  0.00     0.028 A 
HETATM    8  N           1     -22.246 -11.872   0.333  0.00  0.00    -0.354 N 
HETATM    9  C           1     -23.295 -12.653   0.227  0.00  0.00     0.180 A 
ATOM     10  HN          1     -21.531 -11.892   1.060  1.00  0.00     0.166 HD
HETATM   11  N           1     -24.042 -12.342  -0.873  0.00  0.00    -0.360 N 
HETATM   12  H           1     -24.926 -12.818  -1.179  0.00  0.00     0.166 HD
HETATM   13  C           1     -23.426 -11.297  -1.505  0.00  0.00     0.114 A 
ENDBRANCH   6   7
ENDBRANCH   5   6
BRANCH   5  14
HETATM   14  C           1     -22.392  -8.098   0.219  0.00  0.00     0.197 C 
HETATM   15  O           1     -23.518  -7.603   0.438  0.00  0.00    -0.646 OA
HETATM   16  O           1     -21.552  -8.172   1.142  0.00  0.00    -0.646 OA
ENDBRANCH   5  14
ENDBRANCH   1   5
BRANCH   2  17
HETATM   17  C           1     -21.806  -7.114  -4.178  0.00  0.00     0.278 C 
BRANCH  17  18
HETATM   18  N           1     -22.848  -6.259  -4.836  0.00  0.00    -0.066 N 
HETATM   19  H           1     -22.447  -5.317  -5.043  0.00  0.00     0.275 HD
HETATM   20  H           1     -23.155  -6.709  -5.727  0.00  0.00     0.275 HD
HETATM   21  H           1     -23.668  -6.155  -4.196  0.00  0.00     0.275 HD
ENDBRANCH  17  18
BRANCH  17  22
HETATM   22  C           1     -20.459  -6.876  -4.848  0.00  0.00     0.021 C 
HETATM   23  C           1     -19.784  -8.213  -5.123  0.00  0.00     0.012 C 
BRANCH  22  24
HETATM   24  C           1     -20.671  -6.136  -6.163  0.00  0.00     0.002 C 
HETATM   25  C           1     -19.879  -4.834  -6.147  0.00  0.00     0.005 C 
ENDBRANCH  22  24
ENDBRANCH  17  22
ENDBRANCH   2  17
TORSDOF 8
ENDMDL
