MODEL 1
REMARK VINA RESULT:      -6.9      0.000      0.000
REMARK  6 active torsions:
REMARK  status: ('A' for Active; 'I' for Inactive)
REMARK       I    between atoms: C_2  and  N_3 
REMARK    1  A    between atoms: C_2  and  C_20 
REMARK    2  A    between atoms: N_3  and  C_11 
REMARK    3  A    between atoms: C_9  and  C_10 
REMARK    4  A    between atoms: C_10  and  C_11 
REMARK    5  A    between atoms: C_11  and  C_13 
REMARK    6  A    between atoms: C_20  and  N_22 
ROOT
HETATM    1  C           1     -36.790  -0.452 -11.285  0.00  0.00     0.190 C 
ENDROOT
BRANCH   1   2
HETATM    2  N           1     -36.961   0.310 -12.507  0.00  0.00    -0.344 N 
HETATM    3  C           1     -36.896  -0.318 -13.722  0.00  0.00     0.248 C 
HETATM    4  O           1     -37.898  -0.771 -14.223  0.00  0.00    -0.271 OA
HETATM    5  H           1     -37.129   1.307 -12.462  0.00  0.00     0.163 HD
BRANCH   3   6
HETATM    6  C           1     -35.572  -0.446 -14.434  0.00  0.00     0.270 C 
HETATM    7  C           1     -34.797   0.859 -14.306  0.00  0.00     0.050 C 
BRANCH   6   8
HETATM    8  N           1     -35.812  -0.745 -15.884  0.00  0.00    -0.067 N 
HETATM    9  H           1     -34.896  -0.865 -16.372  0.00  0.00     0.275 HD
HETATM   10  H           1     -36.370  -1.624 -15.971  0.00  0.00     0.275 HD
HETATM   11  H           1     -36.337   0.047 -16.320  0.00  0.00     0.275 HD
ENDBRANCH   6   8
ENDBRANCH   3   6
ENDBRANCH   1   2
BRANCH   1  12
HETATM   12  C           1     -35.371  -1.002 -11.226  0.00  0.00     0.077 C 
BRANCH  12  13
HETATM   13  C           1     -35.419  -2.481 -10.994  0.00  0.00    -0.028 A 
HETATM   14  C           1     -34.363  -3.402 -11.239  0.00  0.00    -0.002 A 
HETATM   15  C           1     -33.048  -3.279 -11.729  0.00  0.00     0.014 A 
HETATM   16  C           1     -34.832  -4.668 -10.886  0.00  0.00     0.042 A 
HETATM   17  C           1     -32.251  -4.424 -11.848  0.00  0.00     0.001 A 
HETATM   18  C           1     -32.747  -5.675 -11.488  0.00  0.00     0.002 A 
HETATM   19  C           1     -34.049  -5.822 -11.000  0.00  0.00     0.030 A 
HETATM   20  N           1     -36.127  -4.510 -10.444  0.00  0.00    -0.365 N 
HETATM   21  C           1     -36.492  -3.191 -10.505  0.00  0.00     0.096 A 
HETATM   22  H           1     -36.746  -5.290 -10.108  0.00  0.00     0.165 HD
ENDBRANCH  12  13
ENDBRANCH   1  12
BRANCH   1  23
HETATM   23  C           1     -37.033   0.445 -10.096  0.00  0.00     0.197 C 
HETATM   24  O           1     -38.075   1.131 -10.034  0.00  0.00    -0.646 OA
HETATM   25  O           1     -36.191   0.502  -9.174  0.00  0.00    -0.646 OA
ENDBRANCH   1  23
TORSDOF 6
ENDMDL
MODEL 2
REMARK VINA RESULT:      -6.8     15.652     17.951
REMARK  6 active torsions:
REMARK  status: ('A' for Active; 'I' for Inactive)
REMARK       I    between atoms: C_2  and  N_3 
REMARK    1  A    between atoms: C_2  and  C_20 
REMARK    2  A    between atoms: N_3  and  C_11 
REMARK    3  A    between atoms: C_9  and  C_10 
REMARK    4  A    between atoms: C_10  and  C_11 
REMARK    5  A    between atoms: C_11  and  C_13 
REMARK    6  A    between atoms: C_20  and  N_22 
ROOT
HETATM    1  C           1     -21.309  -8.984  -3.968  0.00  0.00     0.190 C 
ENDROOT
BRANCH   1   2
HETATM    2  N           1     -20.914  -9.406  -2.637  0.00  0.00    -0.344 N 
HETATM    3  C           1     -21.707  -9.111  -1.562  0.00  0.00     0.248 C 
HETATM    4  O           1     -22.573  -9.882  -1.220  0.00  0.00    -0.271 OA
HETATM    5  H           1     -20.051  -9.919  -2.505  0.00  0.00     0.163 HD
BRANCH   3   6
HETATM    6  C           1     -21.502  -7.823  -0.803  0.00  0.00     0.270 C 
HETATM    7  C           1     -21.822  -8.044   0.670  0.00  0.00     0.050 C 
BRANCH   6   8
HETATM    8  N           1     -22.408  -6.766  -1.359  0.00  0.00    -0.067 N 
HETATM    9  H           1     -23.163  -7.215  -1.925  0.00  0.00     0.275 HD
HETATM   10  H           1     -22.837  -6.227  -0.572  0.00  0.00     0.275 HD
HETATM   11  H           1     -21.857  -6.118  -1.965  0.00  0.00     0.275 HD
ENDBRANCH   6   8
ENDBRANCH   3   6
ENDBRANCH   1   2
BRANCH   1  12
HETATM   12  C           1     -20.400  -7.854  -4.432  0.00  0.00     0.077 C 
BRANCH  12  13
HETATM   13  C           1     -21.217  -6.812  -5.133  0.00  0.00    -0.028 A 
HETATM   14  C           1     -20.740  -5.884  -6.098  0.00  0.00    -0.002 A 
HETATM   15  C           1     -19.482  -5.632  -6.680  0.00  0.00     0.014 A 
HETATM   16  C           1     -21.828  -5.103  -6.490  0.00  0.00     0.042 A 
HETATM   17  C           1     -19.357  -4.611  -7.629  0.00  0.00     0.001 A 
HETATM   18  C           1     -20.462  -3.848  -8.000  0.00  0.00     0.002 A 
HETATM   19  C           1     -21.721  -4.079  -7.438  0.00  0.00     0.030 A 
HETATM   20  N           1     -22.922  -5.551  -5.782  0.00  0.00    -0.365 N 
HETATM   21  C           1     -22.563  -6.584  -4.958  0.00  0.00     0.096 A 
HETATM   22  H           1     -23.892  -5.154  -5.862  0.00  0.00     0.165 HD
ENDBRANCH  12  13
ENDBRANCH   1  12
BRANCH   1  23
HETATM   23  C           1     -21.190 -10.149  -4.920  0.00  0.00     0.197 C 
HETATM   24  O           1     -21.881 -11.175  -4.742  0.00  0.00    -0.646 OA
HETATM   25  O           1     -20.399 -10.089  -5.886  0.00  0.00    -0.646 OA
ENDBRANCH   1  23
TORSDOF 6
ENDMDL
MODEL 3
REMARK VINA RESULT:      -6.6     14.849     17.291
REMARK  6 active torsions:
REMARK  status: ('A' for Active; 'I' for Inactive)
REMARK       I    between atoms: C_2  and  N_3 
REMARK    1  A    between atoms: C_2  and  C_20 
REMARK    2  A    between atoms: N_3  and  C_11 
REMARK    3  A    between atoms: C_9  and  C_10 
REMARK    4  A    between atoms: C_10  and  C_11 
REMARK    5  A    between atoms: C_11  and  C_13 
REMARK    6  A    between atoms: C_20  and  N_22 
ROOT
HETATM    1  C           1     -21.463  -7.345  -3.853  0.00  0.00     0.190 C 
ENDROOT
BRANCH   1   2
HETATM    2  N           1     -22.044  -8.669  -3.967  0.00  0.00    -0.344 N 
HETATM    3  C           1     -21.237  -9.757  -4.160  0.00  0.00     0.248 C 
HETATM    4  O           1     -20.800 -10.362  -3.210  0.00  0.00    -0.271 OA
HETATM    5  H           1     -23.047  -8.787  -3.903  0.00  0.00     0.163 HD
BRANCH   3   6
HETATM    6  C           1     -20.892 -10.201  -5.561  0.00  0.00     0.270 C 
HETATM    7  C           1     -21.339 -11.643  -5.761  0.00  0.00     0.050 C 
BRANCH   6   8
HETATM    8  N           1     -19.409 -10.105  -5.764  0.00  0.00    -0.067 N 
HETATM    9  H           1     -19.011 -11.062  -5.891  0.00  0.00     0.275 HD
HETATM   10  H           1     -19.211  -9.531  -6.616  0.00  0.00     0.275 HD
HETATM   11  H           1     -18.972  -9.653  -4.930  0.00  0.00     0.275 HD
ENDBRANCH   6   8
ENDBRANCH   3   6
ENDBRANCH   1   2
BRANCH   1  12
HETATM   12  C           1     -22.185  -6.391  -4.795  0.00  0.00     0.077 C 
BRANCH  12  13
HETATM   13  C           1     -21.313  -6.103  -5.978  0.00  0.00    -0.028 A 
HETATM   14  C           1     -21.648  -5.273  -7.083  0.00  0.00    -0.002 A 
HETATM   15  C           1     -22.781  -4.512  -7.431  0.00  0.00     0.014 A 
HETATM   16  C           1     -20.554  -5.282  -7.950  0.00  0.00     0.042 A 
HETATM   17  C           1     -22.780  -3.790  -8.630  0.00  0.00     0.001 A 
HETATM   18  C           1     -21.673  -3.818  -9.475  0.00  0.00     0.002 A 
HETATM   19  C           1     -20.537  -4.566  -9.152  0.00  0.00     0.030 A 
HETATM   20  N           1     -19.595  -6.091  -7.381  0.00  0.00    -0.365 N 
HETATM   21  C           1     -20.044  -6.592  -6.188  0.00  0.00     0.096 A 
HETATM   22  H           1     -18.655  -6.295  -7.804  0.00  0.00     0.165 HD
ENDBRANCH  12  13
ENDBRANCH   1  12
BRANCH   1  23
HETATM   23  C           1     -21.607  -6.854  -2.433  0.00  0.00     0.197 C 
HETATM   24  O           1     -20.937  -7.381  -1.519  0.00  0.00    -0.646 OA
HETATM   25  O           1     -22.397  -5.922  -2.170  0.00  0.00    -0.646 OA
ENDBRANCH   1  23
TORSDOF 6
ENDMDL
MODEL 4
REMARK VINA RESULT:      -6.6     15.540     17.232
REMARK  6 active torsions:
REMARK  status: ('A' for Active; 'I' for Inactive)
REMARK       I    between atoms: C_2  and  N_3 
REMARK    1  A    between atoms: C_2  and  C_20 
REMARK    2  A    between atoms: N_3  and  C_11 
REMARK    3  A    between atoms: C_9  and  C_10 
REMARK    4  A    between atoms: C_10  and  C_11 
REMARK    5  A    between atoms: C_11  and  C_13 
REMARK    6  A    between atoms: C_20  and  N_22 
ROOT
HETATM    1  C           1     -21.144  -7.601  -5.092  0.00  0.00     0.190 C 
ENDROOT
BRANCH   1   2
HETATM    2  N           1     -20.131  -6.956  -5.906  0.00  0.00    -0.344 N 
HETATM    3  C           1     -20.326  -5.679  -6.357  0.00  0.00     0.248 C 
HETATM    4  O           1     -19.957  -4.740  -5.692  0.00  0.00    -0.271 OA
HETATM    5  H           1     -19.280  -7.451  -6.139  0.00  0.00     0.163 HD
BRANCH   3   6
HETATM    6  C           1     -21.002  -5.443  -7.685  0.00  0.00     0.270 C 
HETATM    7  C           1     -20.041  -4.728  -8.626  0.00  0.00     0.050 C 
BRANCH   6   8
HETATM    8  N           1     -22.223  -4.596  -7.481  0.00  0.00    -0.067 N 
HETATM    9  H           1     -22.496  -4.615  -6.472  0.00  0.00     0.275 HD
HETATM   10  H           1     -22.016  -3.613  -7.767  0.00  0.00     0.275 HD
HETATM   11  H           1     -23.008  -4.971  -8.060  0.00  0.00     0.275 HD
ENDBRANCH   6   8
ENDBRANCH   3   6
ENDBRANCH   1   2
BRANCH   1  12
HETATM   12  C           1     -20.470  -8.444  -4.018  0.00  0.00     0.077 C 
BRANCH  12  13
HETATM   13  C           1     -21.374  -9.574  -3.631  0.00  0.00    -0.028 A 
HETATM   14  C           1     -22.053  -9.717  -2.390  0.00  0.00    -0.002 A 
HETATM   15  C           1     -22.119  -8.945  -1.214  0.00  0.00     0.014 A 
HETATM   16  C           1     -22.781 -10.906  -2.454  0.00  0.00     0.042 A 
HETATM   17  C           1     -22.908  -9.389  -0.146  0.00  0.00     0.001 A 
HETATM   18  C           1     -23.623 -10.580  -0.239  0.00  0.00     0.002 A 
HETATM   19  C           1     -23.574 -11.364  -1.396  0.00  0.00     0.030 A 
HETATM   20  N           1     -22.545 -11.457  -3.694  0.00  0.00    -0.365 N 
HETATM   21  C           1     -21.695 -10.660  -4.414  0.00  0.00     0.096 A 
HETATM   22  H           1     -22.957 -12.361  -4.037  0.00  0.00     0.165 HD
ENDBRANCH  12  13
ENDBRANCH   1  12
BRANCH   1  23
HETATM   23  C           1     -22.007  -6.549  -4.438  0.00  0.00     0.197 C 
HETATM   24  O           1     -23.075  -6.192  -4.979  0.00  0.00    -0.646 OA
HETATM   25  O           1     -21.652  -6.033  -3.356  0.00  0.00    -0.646 OA
ENDBRANCH   1  23
TORSDOF 6
ENDMDL
MODEL 5
REMARK VINA RESULT:      -6.5     16.537     18.951
REMARK  6 active torsions:
REMARK  status: ('A' for Active; 'I' for Inactive)
REMARK       I    between atoms: C_2  and  N_3 
REMARK    1  A    between atoms: C_2  and  C_20 
REMARK    2  A    between atoms: N_3  and  C_11 
REMARK    3  A    between atoms: C_9  and  C_10 
REMARK    4  A    between atoms: C_10  and  C_11 
REMARK    5  A    between atoms: C_11  and  C_13 
REMARK    6  A    between atoms: C_20  and  N_22 
ROOT
HETATM    1  C           1     -21.369  -7.831  -2.424  0.00  0.00     0.190 C 
ENDROOT
BRANCH   1   2
HETATM    2  N           1     -21.369  -6.486  -2.967  0.00  0.00    -0.344 N 
HETATM    3  C           1     -21.633  -6.283  -4.294  0.00  0.00     0.248 C 
HETATM    4  O           1     -22.770  -6.107  -4.664  0.00  0.00    -0.271 OA
HETATM    5  H           1     -21.173  -5.697  -2.364  0.00  0.00     0.163 HD
BRANCH   3   6
HETATM    6  C           1     -20.505  -6.282  -5.297  0.00  0.00     0.270 C 
HETATM    7  C           1     -20.171  -4.847  -5.683  0.00  0.00     0.050 C 
BRANCH   6   8
HETATM    8  N           1     -20.922  -7.044  -6.519  0.00  0.00    -0.067 N 
HETATM    9  H           1     -20.921  -6.406  -7.346  0.00  0.00     0.275 HD
HETATM   10  H           1     -20.252  -7.829  -6.685  0.00  0.00     0.275 HD
HETATM   11  H           1     -21.883  -7.430  -6.378  0.00  0.00     0.275 HD
ENDBRANCH   6   8
ENDBRANCH   3   6
ENDBRANCH   1   2
BRANCH   1  12
HETATM   12  C           1     -19.935  -8.271  -2.160  0.00  0.00     0.077 C 
BRANCH  12  13
HETATM   13  C           1     -19.490  -9.199  -3.248  0.00  0.00    -0.028 A 
HETATM   14  C           1     -18.156  -9.628  -3.489  0.00  0.00    -0.002 A 
HETATM   15  C           1     -16.916  -9.370  -2.873  0.00  0.00     0.014 A 
HETATM   16  C           1     -18.192 -10.482  -4.592  0.00  0.00     0.042 A 
HETATM   17  C           1     -15.759  -9.974  -3.381  0.00  0.00     0.001 A 
HETATM   18  C           1     -15.827 -10.822  -4.484  0.00  0.00     0.002 A 
HETATM   19  C           1     -17.046 -11.094  -5.112  0.00  0.00     0.030 A 
HETATM   20  N           1     -19.506 -10.563  -4.997  0.00  0.00    -0.365 N 
HETATM   21  C           1     -20.300  -9.791  -4.191  0.00  0.00     0.096 A 
HETATM   22  H           1     -19.850 -11.134  -5.809  0.00  0.00     0.165 HD
ENDBRANCH  12  13
ENDBRANCH   1  12
BRANCH   1  23
HETATM   23  C           1     -22.147  -7.850  -1.131  0.00  0.00     0.197 C 
HETATM   24  O           1     -22.763  -6.829  -0.757  0.00  0.00    -0.646 OA
HETATM   25  O           1     -22.175  -8.886  -0.433  0.00  0.00    -0.646 OA
ENDBRANCH   1  23
TORSDOF 6
ENDMDL
MODEL 6
REMARK VINA RESULT:      -6.5     17.190     18.762
REMARK  6 active torsions:
REMARK  status: ('A' for Active; 'I' for Inactive)
REMARK       I    between atoms: C_2  and  N_3 
REMARK    1  A    between atoms: C_2  and  C_20 
REMARK    2  A    between atoms: N_3  and  C_11 
REMARK    3  A    between atoms: C_9  and  C_10 
REMARK    4  A    between atoms: C_10  and  C_11 
REMARK    5  A    between atoms: C_11  and  C_13 
REMARK    6  A    between atoms: C_20  and  N_22 
ROOT
HETATM    1  C           1     -21.184  -7.737  -3.139  0.00  0.00     0.190 C 
ENDROOT
BRANCH   1   2
HETATM    2  N           1     -20.009  -7.941  -3.965  0.00  0.00    -0.344 N 
HETATM    3  C           1     -19.797  -9.152  -4.568  0.00  0.00     0.248 C 
HETATM    4  O           1     -20.238  -9.362  -5.673  0.00  0.00    -0.271 OA
HETATM    5  H           1     -19.346  -7.187  -4.096  0.00  0.00     0.163 HD
BRANCH   3   6
HETATM    6  C           1     -19.014 -10.224  -3.851  0.00  0.00     0.270 C 
HETATM    7  C           1     -17.855  -9.587  -3.095  0.00  0.00     0.050 C 
BRANCH   6   8
HETATM    8  N           1     -18.479 -11.205  -4.852  0.00  0.00    -0.067 N 
HETATM    9  H           1     -18.280 -10.713  -5.752  0.00  0.00     0.275 HD
HETATM   10  H           1     -17.596 -11.629  -4.485  0.00  0.00     0.275 HD
HETATM   11  H           1     -19.186 -11.956  -5.015  0.00  0.00     0.275 HD
ENDBRANCH   6   8
ENDBRANCH   3   6
ENDBRANCH   1   2
BRANCH   1  12
HETATM   12  C           1     -20.794  -7.839  -1.671  0.00  0.00     0.077 C 
BRANCH  12  13
HETATM   13  C           1     -21.927  -8.436  -0.894  0.00  0.00    -0.028 A 
HETATM   14  C           1     -22.440  -9.754  -1.040  0.00  0.00    -0.002 A 
HETATM   15  C           1     -22.114 -10.848  -1.865  0.00  0.00     0.014 A 
HETATM   16  C           1     -23.486  -9.892  -0.126  0.00  0.00     0.042 A 
HETATM   17  C           1     -22.844 -12.037  -1.748  0.00  0.00     0.001 A 
HETATM   18  C           1     -23.883 -12.144  -0.825  0.00  0.00     0.002 A 
HETATM   19  C           1     -24.225 -11.073   0.005  0.00  0.00     0.030 A 
HETATM   20  N           1     -23.594  -8.694   0.546  0.00  0.00    -0.365 N 
HETATM   21  C           1     -22.656  -7.807   0.090  0.00  0.00     0.096 A 
HETATM   22  H           1     -24.297  -8.491   1.301  0.00  0.00     0.165 HD
ENDBRANCH  12  13
ENDBRANCH   1  12
BRANCH   1  23
HETATM   23  C           1     -21.759  -6.369  -3.414  0.00  0.00     0.197 C 
HETATM   24  O           1     -22.012  -5.596  -2.465  0.00  0.00    -0.646 OA
HETATM   25  O           1     -21.983  -6.009  -4.589  0.00  0.00    -0.646 OA
ENDBRANCH   1  23
TORSDOF 6
ENDMDL
MODEL 7
REMARK VINA RESULT:      -6.4      1.529      2.061
REMARK  6 active torsions:
REMARK  status: ('A' for Active; 'I' for Inactive)
REMARK       I    between atoms: C_2  and  N_3 
REMARK    1  A    between atoms: C_2  and  C_20 
REMARK    2  A    between atoms: N_3  and  C_11 
REMARK    3  A    between atoms: C_9  and  C_10 
REMARK    4  A    between atoms: C_10  and  C_11 
REMARK    5  A    between atoms: C_11  and  C_13 
REMARK    6  A    between atoms: C_20  and  N_22 
ROOT
HETATM    1  C           1     -35.410  -0.938 -13.118  0.00  0.00     0.190 C 
ENDROOT
BRANCH   1   2
HETATM    2  N           1     -34.735  -0.268 -14.214  0.00  0.00    -0.344 N 
HETATM    3  C           1     -35.464   0.271 -15.239  0.00  0.00     0.248 C 
HETATM    4  O           1     -35.845   1.415 -15.173  0.00  0.00    -0.271 OA
HETATM    5  H           1     -33.726  -0.199 -14.219  0.00  0.00     0.163 HD
BRANCH   3   6
HETATM    6  C           1     -35.793  -0.565 -16.452  0.00  0.00     0.270 C 
HETATM    7  C           1     -37.267  -0.947 -16.422  0.00  0.00     0.050 C 
BRANCH   6   8
HETATM    8  N           1     -34.955  -1.809 -16.443  0.00  0.00    -0.067 N 
HETATM    9  H           1     -34.613  -2.006 -17.411  0.00  0.00     0.275 HD
HETATM   10  H           1     -34.136  -1.672 -15.807  0.00  0.00     0.275 HD
HETATM   11  H           1     -35.529  -2.614 -16.106  0.00  0.00     0.275 HD
ENDBRANCH   6   8
ENDBRANCH   3   6
ENDBRANCH   1   2
BRANCH   1  12
HETATM   12  C           1     -34.378  -1.418 -12.106  0.00  0.00     0.077 C 
BRANCH  12  13
HETATM   13  C           1     -34.859  -2.682 -11.463  0.00  0.00    -0.028 A 
HETATM   14  C           1     -34.139  -3.905 -11.376  0.00  0.00    -0.002 A 
HETATM   15  C           1     -32.866  -4.326 -11.807  0.00  0.00     0.014 A 
HETATM   16  C           1     -34.954  -4.815 -10.701  0.00  0.00     0.042 A 
HETATM   17  C           1     -32.455  -5.639 -11.549  0.00  0.00     0.001 A 
HETATM   18  C           1     -33.291  -6.526 -10.874  0.00  0.00     0.002 A 
HETATM   19  C           1     -34.558  -6.131 -10.436  0.00  0.00     0.030 A 
HETATM   20  N           1     -36.125  -4.158 -10.395  0.00  0.00    -0.365 N 
HETATM   21  C           1     -36.078  -2.867 -10.851  0.00  0.00     0.096 A 
HETATM   22  H           1     -36.938  -4.586  -9.885  0.00  0.00     0.165 HD
ENDBRANCH  12  13
ENDBRANCH   1  12
BRANCH   1  23
HETATM   23  C           1     -36.360   0.025 -12.449  0.00  0.00     0.197 C 
HETATM   24  O           1     -35.942   0.800 -11.562  0.00  0.00    -0.646 OA
HETATM   25  O           1     -37.565   0.047 -12.781  0.00  0.00    -0.646 OA
ENDBRANCH   1  23
TORSDOF 6
ENDMDL
MODEL 8
REMARK VINA RESULT:      -6.4     17.326     18.982
REMARK  6 active torsions:
REMARK  status: ('A' for Active; 'I' for Inactive)
REMARK       I    between atoms: C_2  and  N_3 
REMARK    1  A    between atoms: C_2  and  C_20 
REMARK    2  A    between atoms: N_3  and  C_11 
REMARK    3  A    between atoms: C_9  and  C_10 
REMARK    4  A    between atoms: C_10  and  C_11 
REMARK    5  A    between atoms: C_11  and  C_13 
REMARK    6  A    between atoms: C_20  and  N_22 
ROOT
HETATM    1  C           1     -21.240  -7.934  -2.917  0.00  0.00     0.190 C 
ENDROOT
BRANCH   1   2
HETATM    2  N           1     -20.333  -7.910  -4.049  0.00  0.00    -0.344 N 
HETATM    3  C           1     -20.501  -8.796  -5.079  0.00  0.00     0.248 C 
HETATM    4  O           1     -21.200  -8.503  -6.020  0.00  0.00    -0.271 OA
HETATM    5  H           1     -19.577  -7.238  -4.076  0.00  0.00     0.163 HD
BRANCH   3   6
HETATM    6  C           1     -19.812 -10.138  -5.039  0.00  0.00     0.270 C 
HETATM    7  C           1     -18.324  -9.938  -4.784  0.00  0.00     0.050 C 
BRANCH   6   8
HETATM    8  N           1     -20.005 -10.837  -6.352  0.00  0.00    -0.067 N 
HETATM    9  H           1     -19.878 -10.155  -7.133  0.00  0.00     0.275 HD
HETATM   10  H           1     -19.301 -11.605  -6.443  0.00  0.00     0.275 HD
HETATM   11  H           1     -20.968 -11.239  -6.394  0.00  0.00     0.275 HD
ENDBRANCH   6   8
ENDBRANCH   3   6
ENDBRANCH   1   2
BRANCH   1  12
HETATM   12  C           1     -20.449  -8.186  -1.640  0.00  0.00     0.077 C 
BRANCH  12  13
HETATM   13  C           1     -20.582  -9.624  -1.245  0.00  0.00    -0.028 A 
HETATM   14  C           1     -21.761 -10.256  -0.764  0.00  0.00    -0.002 A 
HETATM   15  C           1     -23.075  -9.817  -0.511  0.00  0.00     0.014 A 
HETATM   16  C           1     -21.441 -11.593  -0.520  0.00  0.00     0.042 A 
HETATM   17  C           1     -24.020 -10.728  -0.024  0.00  0.00     0.001 A 
HETATM   18  C           1     -23.671 -12.057   0.210  0.00  0.00     0.002 A 
HETATM   19  C           1     -22.374 -12.516  -0.034  0.00  0.00     0.030 A 
HETATM   20  N           1     -20.113 -11.755  -0.846  0.00  0.00    -0.365 N 
HETATM   21  C           1     -19.583 -10.571  -1.286  0.00  0.00     0.096 A 
HETATM   22  H           1     -19.582 -12.659  -0.768  0.00  0.00     0.165 HD
ENDBRANCH  12  13
ENDBRANCH   1  12
BRANCH   1  23
HETATM   23  C           1     -21.951  -6.607  -2.815  0.00  0.00     0.197 C 
HETATM   24  O           1     -22.166  -5.933  -3.845  0.00  0.00    -0.646 OA
HETATM   25  O           1     -22.325  -6.181  -1.701  0.00  0.00    -0.646 OA
ENDBRANCH   1  23
TORSDOF 6
ENDMDL
MODEL 9
REMARK VINA RESULT:      -6.4     18.189     19.965
REMARK  6 active torsions:
REMARK  status: ('A' for Active; 'I' for Inactive)
REMARK       I    between atoms: C_2  and  N_3 
REMARK    1  A    between atoms: C_2  and  C_20 
REMARK    2  A    between atoms: N_3  and  C_11 
REMARK    3  A    between atoms: C_9  and  C_10 
REMARK    4  A    between atoms: C_10  and  C_11 
REMARK    5  A    between atoms: C_11  and  C_13 
REMARK    6  A    between atoms: C_20  and  N_22 
ROOT
HETATM    1  C           1     -19.437 -10.051  -4.740  0.00  0.00     0.190 C 
ENDROOT
BRANCH   1   2
HETATM    2  N           1     -18.553  -9.915  -5.882  0.00  0.00    -0.344 N 
HETATM    3  C           1     -18.067 -11.031  -6.508  0.00  0.00     0.248 C 
HETATM    4  O           1     -18.681 -11.526  -7.424  0.00  0.00    -0.271 OA
HETATM    5  H           1     -18.297  -8.995  -6.216  0.00  0.00     0.163 HD
BRANCH   3   6
HETATM    6  C           1     -16.766 -11.645  -6.054  0.00  0.00     0.270 C 
HETATM    7  C           1     -15.769 -10.540  -5.729  0.00  0.00     0.050 C 
BRANCH   6   8
HETATM    8  N           1     -16.214 -12.511  -7.146  0.00  0.00    -0.067 N 
HETATM    9  H           1     -15.467 -11.992  -7.660  0.00  0.00     0.275 HD
HETATM   10  H           1     -15.809 -13.381  -6.730  0.00  0.00     0.275 HD
HETATM   11  H           1     -16.980 -12.766  -7.809  0.00  0.00     0.275 HD
ENDBRANCH   6   8
ENDBRANCH   3   6
ENDBRANCH   1   2
BRANCH   1  12
HETATM   12  C           1     -19.056  -9.024  -3.681  0.00  0.00     0.077 C 
BRANCH  12  13
HETATM   13  C           1     -19.776  -9.333  -2.404  0.00  0.00    -0.028 A 
HETATM   14  C           1     -20.749  -8.513  -1.771  0.00  0.00    -0.002 A 
HETATM   15  C           1     -21.323  -7.263  -2.073  0.00  0.00     0.014 A 
HETATM   16  C           1     -21.158  -9.178  -0.614  0.00  0.00     0.042 A 
HETATM   17  C           1     -22.284  -6.723  -1.208  0.00  0.00     0.001 A 
HETATM   18  C           1     -22.672  -7.411  -0.061  0.00  0.00     0.002 A 
HETATM   19  C           1     -22.117  -8.653   0.260  0.00  0.00     0.030 A 
HETATM   20  N           1     -20.453 -10.360  -0.558  0.00  0.00    -0.365 N 
HETATM   21  C           1     -19.613 -10.464  -1.635  0.00  0.00     0.096 A 
HETATM   22  H           1     -20.545 -11.077   0.204  0.00  0.00     0.165 HD
ENDBRANCH  12  13
ENDBRANCH   1  12
BRANCH   1  23
HETATM   23  C           1     -20.862  -9.818  -5.177  0.00  0.00     0.197 C 
HETATM   24  O           1     -21.173  -8.752  -5.750  0.00  0.00    -0.646 OA
HETATM   25  O           1     -21.732 -10.690  -4.965  0.00  0.00    -0.646 OA
ENDBRANCH   1  23
TORSDOF 6
ENDMDL
