MODEL 1
REMARK VINA RESULT:      -6.4      0.000      0.000
REMARK  8 active torsions:
REMARK  status: ('A' for Active; 'I' for Inactive)
REMARK    1  A    between atoms: N_4  and  C_12 
REMARK    2  A    between atoms: C_7  and  C_8 
REMARK    3  A    between atoms: C_8  and  C_12 
REMARK    4  A    between atoms: S_10  and  C_14 
REMARK    5  A    between atoms: N_11  and  C_15 
REMARK       I    between atoms: N_11  and  C_19 
REMARK    6  A    between atoms: C_12  and  C_19 
REMARK    7  A    between atoms: C_14  and  C_15 
REMARK    8  A    between atoms: C_15  and  C_18 
ROOT
HETATM    1  H           1     -34.015  -1.325 -14.375  0.00  0.00     0.163 HD
HETATM    2  O           1     -36.512  -1.471 -12.483  0.00  0.00    -0.271 OA
HETATM    3  N           1     -34.975  -1.202 -14.080  0.00  0.00    -0.344 N 
HETATM    4  C           1     -35.367  -1.617 -12.836  0.00  0.00     0.249 C 
ENDROOT
BRANCH   4   5
HETATM    5  C           1     -34.368  -2.260 -11.906  0.00  0.00     0.275 C 
BRANCH   5   6
HETATM    6  N           1     -34.238  -1.432 -10.662  0.00  0.00    -0.066 N 
HETATM    7  H           1     -33.827  -2.013  -9.897  0.00  0.00     0.275 HD
HETATM    8  H           1     -33.614  -0.615 -10.852  0.00  0.00     0.275 HD
HETATM    9  H           1     -35.181  -1.090 -10.371  0.00  0.00     0.275 HD
ENDBRANCH   5   6
BRANCH   5  10
HETATM   10  C           1     -34.844  -3.659 -11.536  0.00  0.00     0.046 C 
BRANCH  10  11
HETATM   11  C           1     -33.678  -4.461 -10.975  0.00  0.00    -0.020 C 
HETATM   12  C           1     -32.535  -4.465 -11.981  0.00  0.00     0.009 C 
HETATM   13  C           1     -34.126  -5.892 -10.712  0.00  0.00     0.009 C 
ENDBRANCH  10  11
ENDBRANCH   5  10
ENDBRANCH   4   5
BRANCH   3  14
HETATM   14  C           1     -35.935  -0.584 -14.974  0.00  0.00     0.194 C 
BRANCH  14  15
HETATM   15  C           1     -35.722   0.924 -14.984  0.00  0.00     0.106 C 
BRANCH  15  16
HETATM   16  S           1     -34.528   1.377 -13.695  0.00  0.00    -0.180 SA
HETATM   17  H           1     -35.441   1.613 -12.735  0.00  0.00     0.101 HD
ENDBRANCH  15  16
ENDBRANCH  14  15
BRANCH  14  18
HETATM   18  C           1     -35.744  -1.129 -16.368  0.00  0.00     0.197 C 
HETATM   19  O           1     -34.741  -1.824 -16.636  0.00  0.00    -0.646 OA
HETATM   20  O           1     -36.589  -0.884 -17.256  0.00  0.00    -0.646 OA
ENDBRANCH  14  18
ENDBRANCH   3  14
TORSDOF 8
ENDMDL
MODEL 2
REMARK VINA RESULT:      -6.3      2.011      2.432
REMARK  8 active torsions:
REMARK  status: ('A' for Active; 'I' for Inactive)
REMARK    1  A    between atoms: N_4  and  C_12 
REMARK    2  A    between atoms: C_7  and  C_8 
REMARK    3  A    between atoms: C_8  and  C_12 
REMARK    4  A    between atoms: S_10  and  C_14 
REMARK    5  A    between atoms: N_11  and  C_15 
REMARK       I    between atoms: N_11  and  C_19 
REMARK    6  A    between atoms: C_12  and  C_19 
REMARK    7  A    between atoms: C_14  and  C_15 
REMARK    8  A    between atoms: C_15  and  C_18 
ROOT
HETATM    1  H           1     -35.413  -0.568 -11.630  0.00  0.00     0.163 HD
HETATM    2  O           1     -34.694  -2.748 -13.768  0.00  0.00    -0.271 OA
HETATM    3  N           1     -35.411  -1.036 -12.527  0.00  0.00    -0.344 N 
HETATM    4  C           1     -34.697  -2.191 -12.697  0.00  0.00     0.249 C 
ENDROOT
BRANCH   4   5
HETATM    5  C           1     -33.913  -2.768 -11.544  0.00  0.00     0.275 C 
BRANCH   5   6
HETATM    6  N           1     -33.639  -1.691 -10.536  0.00  0.00    -0.066 N 
HETATM    7  H           1     -33.028  -0.959 -10.964  0.00  0.00     0.275 HD
HETATM    8  H           1     -34.543  -1.259 -10.237  0.00  0.00     0.275 HD
HETATM    9  H           1     -33.159  -2.105  -9.706  0.00  0.00     0.275 HD
ENDBRANCH   5   6
BRANCH   5  10
HETATM   10  C           1     -34.718  -3.882 -10.889  0.00  0.00     0.046 C 
BRANCH  10  11
HETATM   11  C           1     -34.183  -5.232 -11.346  0.00  0.00    -0.020 C 
HETATM   12  C           1     -34.417  -6.267 -10.254  0.00  0.00     0.009 C 
HETATM   13  C           1     -32.690  -5.120 -11.626  0.00  0.00     0.009 C 
ENDBRANCH  10  11
ENDBRANCH   5  10
ENDBRANCH   4   5
BRANCH   3  14
HETATM   14  C           1     -36.165  -0.481 -13.634  0.00  0.00     0.194 C 
BRANCH  14  15
HETATM   15  C           1     -37.540  -0.044 -13.145  0.00  0.00     0.106 C 
BRANCH  15  16
HETATM   16  S           1     -37.605  -0.163 -11.335  0.00  0.00    -0.180 SA
HETATM   17  H           1     -37.541  -1.506 -11.280  0.00  0.00     0.101 HD
ENDBRANCH  15  16
ENDBRANCH  14  15
BRANCH  14  18
HETATM   18  C           1     -35.429   0.711 -14.196  0.00  0.00     0.197 C 
HETATM   19  O           1     -34.532   1.264 -13.525  0.00  0.00    -0.646 OA
HETATM   20  O           1     -35.718   1.147 -15.331  0.00  0.00    -0.646 OA
ENDBRANCH  14  18
ENDBRANCH   3  14
TORSDOF 8
ENDMDL
MODEL 3
REMARK VINA RESULT:      -6.0     12.921     14.503
REMARK  8 active torsions:
REMARK  status: ('A' for Active; 'I' for Inactive)
REMARK    1  A    between atoms: N_4  and  C_12 
REMARK    2  A    between atoms: C_7  and  C_8 
REMARK    3  A    between atoms: C_8  and  C_12 
REMARK    4  A    between atoms: S_10  and  C_14 
REMARK    5  A    between atoms: N_11  and  C_15 
REMARK       I    between atoms: N_11  and  C_19 
REMARK    6  A    between atoms: C_12  and  C_19 
REMARK    7  A    between atoms: C_14  and  C_15 
REMARK    8  A    between atoms: C_15  and  C_18 
ROOT
HETATM    1  H           1     -22.286  -5.642  -9.269  0.00  0.00     0.163 HD
HETATM    2  O           1     -21.648  -3.532  -7.038  0.00  0.00    -0.271 OA
HETATM    3  N           1     -22.254  -4.737  -8.817  0.00  0.00    -0.344 N 
HETATM    4  C           1     -21.686  -4.610  -7.578  0.00  0.00     0.249 C 
ENDROOT
BRANCH   4   5
HETATM    5  C           1     -21.108  -5.821  -6.887  0.00  0.00     0.275 C 
BRANCH   5   6
HETATM    6  N           1     -19.797  -6.181  -7.521  0.00  0.00    -0.066 N 
HETATM    7  H           1     -19.969  -6.760  -8.374  0.00  0.00     0.275 HD
HETATM    8  H           1     -19.291  -5.307  -7.791  0.00  0.00     0.275 HD
HETATM    9  H           1     -19.219  -6.724  -6.842  0.00  0.00     0.275 HD
ENDBRANCH   5   6
BRANCH   5  10
HETATM   10  C           1     -20.888  -5.507  -5.413  0.00  0.00     0.046 C 
BRANCH  10  11
HETATM   11  C           1     -21.799  -6.383  -4.565  0.00  0.00    -0.020 C 
HETATM   12  C           1     -21.467  -6.185  -3.092  0.00  0.00     0.009 C 
HETATM   13  C           1     -21.593  -7.844  -4.939  0.00  0.00     0.009 C 
ENDBRANCH  10  11
ENDBRANCH   5  10
ENDBRANCH   4   5
BRANCH   3  14
HETATM   14  C           1     -22.810  -3.574  -9.482  0.00  0.00     0.194 C 
BRANCH  14  15
HETATM   15  C           1     -22.145  -3.400 -10.840  0.00  0.00     0.106 C 
BRANCH  15  16
HETATM   16  S           1     -20.549  -4.264 -10.851  0.00  0.00    -0.180 SA
HETATM   17  H           1     -20.758  -4.930 -12.001  0.00  0.00     0.101 HD
ENDBRANCH  15  16
ENDBRANCH  14  15
BRANCH  14  18
HETATM   18  C           1     -24.295  -3.765  -9.668  0.00  0.00     0.197 C 
HETATM   19  O           1     -24.749  -4.895  -9.949  0.00  0.00    -0.646 OA
HETATM   20  O           1     -25.072  -2.794  -9.543  0.00  0.00    -0.646 OA
ENDBRANCH  14  18
ENDBRANCH   3  14
TORSDOF 8
ENDMDL
MODEL 4
REMARK VINA RESULT:      -5.4     25.187     26.124
REMARK  8 active torsions:
REMARK  status: ('A' for Active; 'I' for Inactive)
REMARK    1  A    between atoms: N_4  and  C_12 
REMARK    2  A    between atoms: C_7  and  C_8 
REMARK    3  A    between atoms: C_8  and  C_12 
REMARK    4  A    between atoms: S_10  and  C_14 
REMARK    5  A    between atoms: N_11  and  C_15 
REMARK       I    between atoms: N_11  and  C_19 
REMARK    6  A    between atoms: C_12  and  C_19 
REMARK    7  A    between atoms: C_14  and  C_15 
REMARK    8  A    between atoms: C_15  and  C_18 
ROOT
HETATM    1  H           1     -10.708   4.697 -21.409  0.00  0.00     0.163 HD
HETATM    2  O           1     -12.566   6.245 -19.411  0.00  0.00    -0.271 OA
HETATM    3  N           1     -11.565   4.963 -20.941  0.00  0.00    -0.344 N 
HETATM    4  C           1     -11.544   5.928 -19.970  0.00  0.00     0.249 C 
ENDROOT
BRANCH   4   5
HETATM    5  C           1     -10.243   6.596 -19.600  0.00  0.00     0.275 C 
BRANCH   5   6
HETATM    6  N           1      -9.345   5.602 -18.923  0.00  0.00    -0.066 N 
HETATM    7  H           1      -8.488   6.086 -18.574  0.00  0.00     0.275 HD
HETATM    8  H           1      -9.852   5.168 -18.119  0.00  0.00     0.275 HD
HETATM    9  H           1      -9.073   4.858 -19.605  0.00  0.00     0.275 HD
ENDBRANCH   5   6
BRANCH   5  10
HETATM   10  C           1      -9.562   7.117 -20.859  0.00  0.00     0.046 C 
BRANCH  10  11
HETATM   11  C           1      -9.817   8.612 -20.992  0.00  0.00    -0.020 C 
HETATM   12  C           1      -8.555   9.298 -21.498  0.00  0.00     0.009 C 
HETATM   13  C           1     -10.195   9.187 -19.633  0.00  0.00     0.009 C 
ENDBRANCH  10  11
ENDBRANCH   5  10
ENDBRANCH   4   5
BRANCH   3  14
HETATM   14  C           1     -12.815   4.321 -21.298  0.00  0.00     0.194 C 
BRANCH  14  15
HETATM   15  C           1     -13.175   4.674 -22.734  0.00  0.00     0.106 C 
BRANCH  15  16
HETATM   16  S           1     -14.802   5.478 -22.772  0.00  0.00    -0.180 SA
HETATM   17  H           1     -15.097   5.138 -24.040  0.00  0.00     0.101 HD
ENDBRANCH  15  16
ENDBRANCH  14  15
BRANCH  14  18
HETATM   18  C           1     -12.665   2.825 -21.169  0.00  0.00     0.197 C 
HETATM   19  O           1     -13.642   2.078 -21.390  0.00  0.00    -0.646 OA
HETATM   20  O           1     -11.564   2.332 -20.841  0.00  0.00    -0.646 OA
ENDBRANCH  14  18
ENDBRANCH   3  14
TORSDOF 8
ENDMDL
MODEL 5
REMARK VINA RESULT:      -5.4      3.227      5.377
REMARK  8 active torsions:
REMARK  status: ('A' for Active; 'I' for Inactive)
REMARK    1  A    between atoms: N_4  and  C_12 
REMARK    2  A    between atoms: C_7  and  C_8 
REMARK    3  A    between atoms: C_8  and  C_12 
REMARK    4  A    between atoms: S_10  and  C_14 
REMARK    5  A    between atoms: N_11  and  C_15 
REMARK       I    between atoms: N_11  and  C_19 
REMARK    6  A    between atoms: C_12  and  C_19 
REMARK    7  A    between atoms: C_14  and  C_15 
REMARK    8  A    between atoms: C_15  and  C_18 
ROOT
HETATM    1  H           1     -36.105  -3.066 -12.348  0.00  0.00     0.163 HD
HETATM    2  O           1     -33.968  -1.462 -10.707  0.00  0.00    -0.271 OA
HETATM    3  N           1     -35.268  -2.909 -11.801  0.00  0.00    -0.344 N 
HETATM    4  C           1     -34.966  -1.650 -11.358  0.00  0.00     0.249 C 
ENDROOT
BRANCH   4   5
HETATM    5  C           1     -35.881  -0.496 -11.686  0.00  0.00     0.275 C 
BRANCH   5   6
HETATM    6  N           1     -36.161   0.290 -10.439  0.00  0.00    -0.066 N 
HETATM    7  H           1     -36.719   1.140 -10.680  0.00  0.00     0.275 HD
HETATM    8  H           1     -36.702  -0.303  -9.769  0.00  0.00     0.275 HD
HETATM    9  H           1     -35.258   0.579 -10.000  0.00  0.00     0.275 HD
ENDBRANCH   5   6
BRANCH   5  10
HETATM   10  C           1     -35.213   0.407 -12.714  0.00  0.00     0.046 C 
BRANCH  10  11
HETATM   11  C           1     -35.729   0.063 -14.104  0.00  0.00    -0.020 C 
HETATM   12  C           1     -35.367   1.182 -15.071  0.00  0.00     0.009 C 
HETATM   13  C           1     -37.243  -0.098 -14.059  0.00  0.00     0.009 C 
ENDBRANCH  10  11
ENDBRANCH   5  10
ENDBRANCH   4   5
BRANCH   3  14
HETATM   14  C           1     -34.389  -4.019 -11.487  0.00  0.00     0.194 C 
BRANCH  14  15
HETATM   15  C           1     -35.183  -5.318 -11.508  0.00  0.00     0.106 C 
BRANCH  15  16
HETATM   16  S           1     -34.429  -6.509 -10.365  0.00  0.00    -0.180 SA
HETATM   17  H           1     -34.994  -6.010  -9.250  0.00  0.00     0.101 HD
ENDBRANCH  15  16
ENDBRANCH  14  15
BRANCH  14  18
HETATM   18  C           1     -33.283  -4.088 -12.510  0.00  0.00     0.197 C 
HETATM   19  O           1     -32.121  -4.380 -12.156  0.00  0.00    -0.646 OA
HETATM   20  O           1     -33.528  -3.852 -13.714  0.00  0.00    -0.646 OA
ENDBRANCH  14  18
ENDBRANCH   3  14
TORSDOF 8
ENDMDL
MODEL 6
REMARK VINA RESULT:      -5.2     14.880     17.209
REMARK  8 active torsions:
REMARK  status: ('A' for Active; 'I' for Inactive)
REMARK    1  A    between atoms: N_4  and  C_12 
REMARK    2  A    between atoms: C_7  and  C_8 
REMARK    3  A    between atoms: C_8  and  C_12 
REMARK    4  A    between atoms: S_10  and  C_14 
REMARK    5  A    between atoms: N_11  and  C_15 
REMARK       I    between atoms: N_11  and  C_19 
REMARK    6  A    between atoms: C_12  and  C_19 
REMARK    7  A    between atoms: C_14  and  C_15 
REMARK    8  A    between atoms: C_15  and  C_18 
ROOT
HETATM    1  H           1     -19.975  -6.529  -4.917  0.00  0.00     0.163 HD
HETATM    2  O           1     -22.859  -5.608  -5.736  0.00  0.00    -0.271 OA
HETATM    3  N           1     -20.987  -6.506  -4.916  0.00  0.00    -0.344 N 
HETATM    4  C           1     -21.653  -5.637  -5.738  0.00  0.00     0.249 C 
ENDROOT
BRANCH   4   5
HETATM    5  C           1     -20.877  -4.715  -6.647  0.00  0.00     0.275 C 
BRANCH   5   6
HETATM    6  N           1     -19.451  -4.645  -6.187  0.00  0.00    -0.066 N 
HETATM    7  H           1     -19.396  -4.905  -5.177  0.00  0.00     0.275 HD
HETATM    8  H           1     -18.872  -5.309  -6.750  0.00  0.00     0.275 HD
HETATM    9  H           1     -19.091  -3.672  -6.317  0.00  0.00     0.275 HD
ENDBRANCH   5   6
BRANCH   5  10
HETATM   10  C           1     -20.924  -5.249  -8.072  0.00  0.00     0.046 C 
BRANCH  10  11
HETATM   11  C           1     -21.303  -4.123  -9.024  0.00  0.00    -0.020 C 
HETATM   12  C           1     -22.800  -4.170  -9.296  0.00  0.00     0.009 C 
HETATM   13  C           1     -20.545  -4.288 -10.334  0.00  0.00     0.009 C 
ENDBRANCH  10  11
ENDBRANCH   5  10
ENDBRANCH   4   5
BRANCH   3  14
HETATM   14  C           1     -21.732  -7.392  -4.043  0.00  0.00     0.194 C 
BRANCH  14  15
HETATM   15  C           1     -21.125  -8.788  -4.099  0.00  0.00     0.106 C 
BRANCH  15  16
HETATM   16  S           1     -19.511  -8.715  -4.925  0.00  0.00    -0.180 SA
HETATM   17  H           1     -18.801  -8.429  -3.819  0.00  0.00     0.101 HD
ENDBRANCH  15  16
ENDBRANCH  14  15
BRANCH  14  18
HETATM   18  C           1     -21.668  -6.872  -2.628  0.00  0.00     0.197 C 
HETATM   19  O           1     -20.874  -7.384  -1.809  0.00  0.00    -0.646 OA
HETATM   20  O           1     -22.409  -5.930  -2.273  0.00  0.00    -0.646 OA
ENDBRANCH  14  18
ENDBRANCH   3  14
TORSDOF 8
ENDMDL
MODEL 7
REMARK VINA RESULT:      -5.2     14.908     16.977
REMARK  8 active torsions:
REMARK  status: ('A' for Active; 'I' for Inactive)
REMARK    1  A    between atoms: N_4  and  C_12 
REMARK    2  A    between atoms: C_7  and  C_8 
REMARK    3  A    between atoms: C_8  and  C_12 
REMARK    4  A    between atoms: S_10  and  C_14 
REMARK    5  A    between atoms: N_11  and  C_15 
REMARK       I    between atoms: N_11  and  C_19 
REMARK    6  A    between atoms: C_12  and  C_19 
REMARK    7  A    between atoms: C_14  and  C_15 
REMARK    8  A    between atoms: C_15  and  C_18 
ROOT
HETATM    1  H           1     -22.060  -7.093  -6.493  0.00  0.00     0.163 HD
HETATM    2  O           1     -19.921  -4.914  -5.776  0.00  0.00    -0.271 OA
HETATM    3  N           1     -21.281  -6.669  -6.005  0.00  0.00    -0.344 N 
HETATM    4  C           1     -20.851  -5.418  -6.356  0.00  0.00     0.249 C 
ENDROOT
BRANCH   4   5
HETATM    5  C           1     -21.540  -4.670  -7.471  0.00  0.00     0.275 C 
BRANCH   5   6
HETATM    6  N           1     -21.653  -3.220  -7.105  0.00  0.00    -0.066 N 
HETATM    7  H           1     -21.722  -3.126  -6.067  0.00  0.00     0.275 HD
HETATM    8  H           1     -20.806  -2.710  -7.445  0.00  0.00     0.275 HD
HETATM    9  H           1     -22.506  -2.813  -7.550  0.00  0.00     0.275 HD
ENDBRANCH   5   6
BRANCH   5  10
HETATM   10  C           1     -20.729  -4.808  -8.753  0.00  0.00     0.046 C 
BRANCH  10  11
HETATM   11  C           1     -21.385  -3.994  -9.859  0.00  0.00    -0.020 C 
HETATM   12  C           1     -22.718  -4.627 -10.233  0.00  0.00     0.009 C 
HETATM   13  C           1     -20.476  -3.970 -11.080  0.00  0.00     0.009 C 
ENDBRANCH  10  11
ENDBRANCH   5  10
ENDBRANCH   4   5
BRANCH   3  14
HETATM   14  C           1     -20.619  -7.389  -4.934  0.00  0.00     0.194 C 
BRANCH  14  15
HETATM   15  C           1     -21.616  -7.667  -3.817  0.00  0.00     0.106 C 
BRANCH  15  16
HETATM   16  S           1     -21.628  -6.273  -2.654  0.00  0.00    -0.180 SA
HETATM   17  H           1     -22.625  -5.598  -3.255  0.00  0.00     0.101 HD
ENDBRANCH  15  16
ENDBRANCH  14  15
BRANCH  14  18
HETATM   18  C           1     -20.081  -8.695  -5.465  0.00  0.00     0.197 C 
HETATM   19  O           1     -18.866  -8.809  -5.730  0.00  0.00    -0.646 OA
HETATM   20  O           1     -20.852  -9.664  -5.640  0.00  0.00    -0.646 OA
ENDBRANCH  14  18
ENDBRANCH   3  14
TORSDOF 8
ENDMDL
MODEL 8
REMARK VINA RESULT:      -5.1     25.082     26.064
REMARK  8 active torsions:
REMARK  status: ('A' for Active; 'I' for Inactive)
REMARK    1  A    between atoms: N_4  and  C_12 
REMARK    2  A    between atoms: C_7  and  C_8 
REMARK    3  A    between atoms: C_8  and  C_12 
REMARK    4  A    between atoms: S_10  and  C_14 
REMARK    5  A    between atoms: N_11  and  C_15 
REMARK       I    between atoms: N_11  and  C_19 
REMARK    6  A    between atoms: C_12  and  C_19 
REMARK    7  A    between atoms: C_14  and  C_15 
REMARK    8  A    between atoms: C_15  and  C_18 
ROOT
HETATM    1  H           1     -12.061   4.898 -19.485  0.00  0.00     0.163 HD
HETATM    2  O           1     -11.560   6.563 -22.096  0.00  0.00    -0.271 OA
HETATM    3  N           1     -12.191   5.203 -20.442  0.00  0.00    -0.344 N 
HETATM    4  C           1     -11.404   6.198 -20.957  0.00  0.00     0.249 C 
ENDROOT
BRANCH   4   5
HETATM    5  C           1     -10.342   6.839 -20.098  0.00  0.00     0.275 C 
BRANCH   5   6
HETATM    6  N           1      -9.796   5.825 -19.136  0.00  0.00    -0.066 N 
HETATM    7  H           1     -10.574   5.446 -18.550  0.00  0.00     0.275 HD
HETATM    8  H           1      -9.351   5.045 -19.671  0.00  0.00     0.275 HD
HETATM    9  H           1      -9.084   6.277 -18.520  0.00  0.00     0.275 HD
ENDBRANCH   5   6
BRANCH   5  10
HETATM   10  C           1      -9.215   7.354 -20.984  0.00  0.00     0.046 C 
BRANCH  10  11
HETATM   11  C           1      -9.185   8.875 -20.936  0.00  0.00    -0.020 C 
HETATM   12  C           1     -10.096   9.366 -19.819  0.00  0.00     0.009 C 
HETATM   13  C           1      -9.669   9.435 -22.267  0.00  0.00     0.009 C 
ENDBRANCH  10  11
ENDBRANCH   5  10
ENDBRANCH   4   5
BRANCH   3  14
HETATM   14  C           1     -13.212   4.587 -21.266  0.00  0.00     0.194 C 
BRANCH  14  15
HETATM   15  C           1     -13.140   3.073 -21.116  0.00  0.00     0.106 C 
BRANCH  15  16
HETATM   16  S           1     -11.423   2.576 -20.801  0.00  0.00    -0.180 SA
HETATM   17  H           1     -10.858   3.654 -21.372  0.00  0.00     0.101 HD
ENDBRANCH  15  16
ENDBRANCH  14  15
BRANCH  14  18
HETATM   18  C           1     -14.572   5.072 -20.827  0.00  0.00     0.197 C 
HETATM   19  O           1     -15.444   5.344 -21.680  0.00  0.00    -0.646 OA
HETATM   20  O           1     -14.827   5.203 -19.610  0.00  0.00    -0.646 OA
ENDBRANCH  14  18
ENDBRANCH   3  14
TORSDOF 8
ENDMDL
MODEL 9
REMARK VINA RESULT:      -4.9     18.174     18.925
REMARK  8 active torsions:
REMARK  status: ('A' for Active; 'I' for Inactive)
REMARK    1  A    between atoms: N_4  and  C_12 
REMARK    2  A    between atoms: C_7  and  C_8 
REMARK    3  A    between atoms: C_8  and  C_12 
REMARK    4  A    between atoms: S_10  and  C_14 
REMARK    5  A    between atoms: N_11  and  C_15 
REMARK       I    between atoms: N_11  and  C_19 
REMARK    6  A    between atoms: C_12  and  C_19 
REMARK    7  A    between atoms: C_14  and  C_15 
REMARK    8  A    between atoms: C_15  and  C_18 
ROOT
HETATM    1  H           1     -20.348  -9.314  -2.935  0.00  0.00     0.163 HD
HETATM    2  O           1     -21.260  -6.662  -4.339  0.00  0.00    -0.271 OA
HETATM    3  N           1     -20.531  -8.671  -3.695  0.00  0.00    -0.344 N 
HETATM    4  C           1     -21.040  -7.428  -3.433  0.00  0.00     0.249 C 
ENDROOT
BRANCH   4   5
HETATM    5  C           1     -21.328  -7.016  -2.010  0.00  0.00     0.275 C 
BRANCH   5   6
HETATM    6  N           1     -22.360  -5.928  -2.003  0.00  0.00    -0.066 N 
HETATM    7  H           1     -23.296  -6.335  -1.779  0.00  0.00     0.275 HD
HETATM    8  H           1     -22.108  -5.215  -1.281  0.00  0.00     0.275 HD
HETATM    9  H           1     -22.393  -5.473  -2.944  0.00  0.00     0.275 HD
ENDBRANCH   5   6
BRANCH   5  10
HETATM   10  C           1     -21.851  -8.215  -1.230  0.00  0.00     0.046 C 
BRANCH  10  11
HETATM   11  C           1     -22.069  -7.819   0.224  0.00  0.00    -0.020 C 
HETATM   12  C           1     -21.097  -8.586   1.109  0.00  0.00     0.009 C 
HETATM   13  C           1     -23.498  -8.153   0.632  0.00  0.00     0.009 C 
ENDBRANCH  10  11
ENDBRANCH   5  10
ENDBRANCH   4   5
BRANCH   3  14
HETATM   14  C           1     -20.255  -9.068  -5.062  0.00  0.00     0.194 C 
BRANCH  14  15
HETATM   15  C           1     -18.758  -9.285  -5.235  0.00  0.00     0.106 C 
BRANCH  15  16
HETATM   16  S           1     -18.025  -9.757  -3.643  0.00  0.00    -0.180 SA
HETATM   17  H           1     -18.277 -11.074  -3.758  0.00  0.00     0.101 HD
ENDBRANCH  15  16
ENDBRANCH  14  15
BRANCH  14  18
HETATM   18  C           1     -20.988 -10.350  -5.371  0.00  0.00     0.197 C 
HETATM   19  O           1     -21.793 -10.825  -4.541  0.00  0.00    -0.646 OA
HETATM   20  O           1     -20.790 -10.939  -6.456  0.00  0.00    -0.646 OA
ENDBRANCH  14  18
ENDBRANCH   3  14
TORSDOF 8
ENDMDL
