MODEL 1
REMARK VINA RESULT:      -5.3      0.000      0.000
REMARK  8 active torsions:
REMARK  status: ('A' for Active; 'I' for Inactive)
REMARK    1  A    between atoms: N_3  and  C_14 
REMARK    2  A    between atoms: C_7  and  C_8 
REMARK    3  A    between atoms: C_8  and  C_21 
REMARK    4  A    between atoms: N_11  and  C_21 
REMARK       I    between atoms: N_11  and  C_12 
REMARK    5  A    between atoms: C_12  and  C_14 
REMARK    6  A    between atoms: C_14  and  C_15 
REMARK    7  A    between atoms: C_15  and  O_16 
REMARK    8  A    between atoms: C_19  and  C_21 
ROOT
HETATM    1  O           1     -19.883  -4.959  -5.969  0.00  0.00    -0.271 OA
HETATM    2  N           1     -21.476  -6.475  -5.582  0.00  0.00    -0.344 N 
HETATM    3  C           1     -21.011  -5.335  -6.181  0.00  0.00     0.251 C 
HETATM    4  H           1     -22.421  -6.791  -5.758  0.00  0.00     0.163 HD
ENDROOT
BRANCH   3   5
HETATM    5  C           1     -21.909  -4.548  -7.104  0.00  0.00     0.302 C 
BRANCH   5   6
HETATM    6  N           1     -21.557  -3.092  -7.023  0.00  0.00    -0.064 N 
HETATM    7  H           1     -22.019  -2.578  -7.806  0.00  0.00     0.275 HD
HETATM    8  H           1     -21.888  -2.706  -6.110  0.00  0.00     0.275 HD
HETATM    9  H           1     -20.521  -2.980  -7.095  0.00  0.00     0.275 HD
ENDBRANCH   5   6
BRANCH   5  10
HETATM   10  C           1     -21.718  -5.036  -8.535  0.00  0.00     0.153 C 
HETATM   11  C           1     -22.593  -4.214  -9.471  0.00  0.00     0.042 C 
BRANCH  10  12
HETATM   12  O           1     -20.374  -4.891  -8.903  0.00  0.00    -0.393 OA
HETATM   13  H           1     -20.366  -4.521  -9.771  0.00  0.00     0.210 HD
ENDBRANCH  10  12
ENDBRANCH   5  10
ENDBRANCH   3   5
BRANCH   2  14
HETATM   14  C           1     -20.613  -7.231  -4.694  0.00  0.00     0.189 C 
BRANCH  14  15
HETATM   15  C           1     -21.368  -7.561  -3.414  0.00  0.00     0.014 C 
HETATM   16  C           1     -20.438  -8.285  -2.450  0.00  0.00     0.012 C 
BRANCH  15  17
HETATM   17  C           1     -21.864  -6.272  -2.771  0.00  0.00     0.002 C 
HETATM   18  C           1     -22.274  -6.548  -1.330  0.00  0.00     0.005 C 
ENDBRANCH  15  17
ENDBRANCH  14  15
BRANCH  14  19
HETATM   19  C           1     -20.191  -8.511  -5.374  0.00  0.00     0.197 C 
HETATM   20  O           1     -21.049  -9.366  -5.683  0.00  0.00    -0.646 OA
HETATM   21  O           1     -18.985  -8.716  -5.628  0.00  0.00    -0.646 OA
ENDBRANCH  14  19
ENDBRANCH   2  14
TORSDOF 8
ENDMDL
MODEL 2
REMARK VINA RESULT:      -5.1      3.327      4.740
REMARK  8 active torsions:
REMARK  status: ('A' for Active; 'I' for Inactive)
REMARK    1  A    between atoms: N_3  and  C_14 
REMARK    2  A    between atoms: C_7  and  C_8 
REMARK    3  A    between atoms: C_8  and  C_21 
REMARK    4  A    between atoms: N_11  and  C_21 
REMARK       I    between atoms: N_11  and  C_12 
REMARK    5  A    between atoms: C_12  and  C_14 
REMARK    6  A    between atoms: C_14  and  C_15 
REMARK    7  A    between atoms: C_15  and  O_16 
REMARK    8  A    between atoms: C_19  and  C_21 
ROOT
HETATM    1  O           1     -20.831  -7.009  -2.242  0.00  0.00    -0.271 OA
HETATM    2  N           1     -21.643  -9.090  -2.210  0.00  0.00    -0.344 N 
HETATM    3  C           1     -21.397  -7.897  -2.835  0.00  0.00     0.251 C 
HETATM    4  H           1     -22.117  -9.834  -2.706  0.00  0.00     0.163 HD
ENDROOT
BRANCH   3   5
HETATM    5  C           1     -21.834  -7.691  -4.264  0.00  0.00     0.302 C 
BRANCH   5   6
HETATM    6  N           1     -22.314  -6.281  -4.443  0.00  0.00    -0.064 N 
HETATM    7  H           1     -22.747  -5.944  -3.553  0.00  0.00     0.275 HD
HETATM    8  H           1     -21.504  -5.668  -4.689  0.00  0.00     0.275 HD
HETATM    9  H           1     -23.022  -6.248  -5.209  0.00  0.00     0.275 HD
ENDBRANCH   5   6
BRANCH   5  10
HETATM   10  C           1     -20.656  -7.946  -5.197  0.00  0.00     0.153 C 
HETATM   11  C           1     -20.259  -6.644  -5.879  0.00  0.00     0.042 C 
BRANCH  10  12
HETATM   12  O           1     -19.572  -8.437  -4.457  0.00  0.00    -0.393 OA
HETATM   13  H           1     -19.884  -9.187  -3.978  0.00  0.00     0.210 HD
ENDBRANCH  10  12
ENDBRANCH   5  10
ENDBRANCH   3   5
BRANCH   2  14
HETATM   14  C           1     -21.223  -9.288  -0.835  0.00  0.00     0.189 C 
BRANCH  14  15
HETATM   15  C           1     -22.443  -9.570   0.031  0.00  0.00     0.014 C 
HETATM   16  C           1     -23.110  -8.255   0.410  0.00  0.00     0.012 C 
BRANCH  15  17
HETATM   17  C           1     -23.428 -10.435  -0.745  0.00  0.00     0.002 C 
HETATM   18  C           1     -23.745 -11.689   0.059  0.00  0.00     0.005 C 
ENDBRANCH  15  17
ENDBRANCH  14  15
BRANCH  14  19
HETATM   19  C           1     -20.273 -10.458  -0.764  0.00  0.00     0.197 C 
HETATM   20  O           1     -20.057 -11.022   0.331  0.00  0.00    -0.646 OA
HETATM   21  O           1     -19.702 -10.864  -1.799  0.00  0.00    -0.646 OA
ENDBRANCH  14  19
ENDBRANCH   2  14
TORSDOF 8
ENDMDL
MODEL 3
REMARK VINA RESULT:      -4.8      4.761      7.203
REMARK  8 active torsions:
REMARK  status: ('A' for Active; 'I' for Inactive)
REMARK    1  A    between atoms: N_3  and  C_14 
REMARK    2  A    between atoms: C_7  and  C_8 
REMARK    3  A    between atoms: C_8  and  C_21 
REMARK    4  A    between atoms: N_11  and  C_21 
REMARK       I    between atoms: N_11  and  C_12 
REMARK    5  A    between atoms: C_12  and  C_14 
REMARK    6  A    between atoms: C_14  and  C_15 
REMARK    7  A    between atoms: C_15  and  O_16 
REMARK    8  A    between atoms: C_19  and  C_21 
ROOT
HETATM    1  O           1     -22.815 -10.785  -3.371  0.00  0.00    -0.271 OA
HETATM    2  N           1     -21.543 -10.164  -1.644  0.00  0.00    -0.344 N 
HETATM    3  C           1     -22.305 -11.080  -2.317  0.00  0.00     0.251 C 
HETATM    4  H           1     -21.116 -10.410  -0.760  0.00  0.00     0.163 HD
ENDROOT
BRANCH   3   5
HETATM    5  C           1     -22.510 -12.459  -1.739  0.00  0.00     0.302 C 
BRANCH   5   6
HETATM    6  N           1     -21.255 -12.902  -1.046  0.00  0.00    -0.064 N 
HETATM    7  H           1     -20.656 -12.070  -0.842  0.00  0.00     0.275 HD
HETATM    8  H           1     -21.504 -13.378  -0.150  0.00  0.00     0.275 HD
HETATM    9  H           1     -20.732 -13.565  -1.660  0.00  0.00     0.275 HD
ENDBRANCH   5   6
BRANCH   5  10
HETATM   10  C           1     -23.656 -12.425  -0.736  0.00  0.00     0.153 C 
HETATM   11  C           1     -23.113 -12.681   0.664  0.00  0.00     0.042 C 
BRANCH  10  12
HETATM   12  O           1     -24.274 -11.167  -0.774  0.00  0.00    -0.393 OA
HETATM   13  H           1     -23.613 -10.530  -0.557  0.00  0.00     0.210 HD
ENDBRANCH  10  12
ENDBRANCH   5  10
ENDBRANCH   3   5
BRANCH   2  14
HETATM   14  C           1     -21.346  -8.838  -2.199  0.00  0.00     0.189 C 
BRANCH  14  15
HETATM   15  C           1     -21.323  -7.815  -1.071  0.00  0.00     0.014 C 
HETATM   16  C           1     -22.270  -6.670  -1.406  0.00  0.00     0.012 C 
BRANCH  15  17
HETATM   17  C           1     -21.767  -8.479   0.226  0.00  0.00     0.002 C 
HETATM   18  C           1     -23.174  -8.014   0.579  0.00  0.00     0.005 C 
ENDBRANCH  15  17
ENDBRANCH  14  15
BRANCH  14  19
HETATM   19  C           1     -20.034  -8.795  -2.945  0.00  0.00     0.197 C 
HETATM   20  O           1     -19.981  -8.287  -4.085  0.00  0.00    -0.646 OA
HETATM   21  O           1     -19.002  -9.267  -2.422  0.00  0.00    -0.646 OA
ENDBRANCH  14  19
ENDBRANCH   2  14
TORSDOF 8
ENDMDL
MODEL 4
REMARK VINA RESULT:      -4.7      3.144      6.213
REMARK  8 active torsions:
REMARK  status: ('A' for Active; 'I' for Inactive)
REMARK    1  A    between atoms: N_3  and  C_14 
REMARK    2  A    between atoms: C_7  and  C_8 
REMARK    3  A    between atoms: C_8  and  C_21 
REMARK    4  A    between atoms: N_11  and  C_21 
REMARK       I    between atoms: N_11  and  C_12 
REMARK    5  A    between atoms: C_12  and  C_14 
REMARK    6  A    between atoms: C_14  and  C_15 
REMARK    7  A    between atoms: C_15  and  O_16 
REMARK    8  A    between atoms: C_19  and  C_21 
ROOT
HETATM    1  O           1     -20.195  -8.001  -1.585  0.00  0.00    -0.271 OA
HETATM    2  N           1     -21.579  -8.550  -3.250  0.00  0.00    -0.344 N 
HETATM    3  C           1     -21.241  -8.500  -1.924  0.00  0.00     0.251 C 
HETATM    4  H           1     -22.455  -8.969  -3.535  0.00  0.00     0.163 HD
ENDROOT
BRANCH   3   5
HETATM    5  C           1     -22.177  -9.071  -0.887  0.00  0.00     0.302 C 
BRANCH   5   6
HETATM    6  N           1     -21.407  -9.956   0.048  0.00  0.00    -0.064 N 
HETATM    7  H           1     -21.980 -10.144   0.902  0.00  0.00     0.275 HD
HETATM    8  H           1     -21.190 -10.860  -0.431  0.00  0.00     0.275 HD
HETATM    9  H           1     -20.517  -9.484   0.322  0.00  0.00     0.275 HD
ENDBRANCH   5   6
BRANCH   5  10
HETATM   10  C           1     -22.813  -7.934  -0.097  0.00  0.00     0.153 C 
HETATM   11  C           1     -22.124  -7.808   1.256  0.00  0.00     0.042 C 
BRANCH  10  12
HETATM   12  O           1     -22.671  -6.734  -0.807  0.00  0.00    -0.393 OA
HETATM   13  H           1     -23.243  -6.104  -0.399  0.00  0.00     0.210 HD
ENDBRANCH  10  12
ENDBRANCH   5  10
ENDBRANCH   3   5
BRANCH   2  14
HETATM   14  C           1     -20.679  -8.002  -4.248  0.00  0.00     0.189 C 
BRANCH  14  15
HETATM   15  C           1     -20.079  -9.137  -5.067  0.00  0.00     0.014 C 
HETATM   16  C           1     -18.612  -9.308  -4.696  0.00  0.00     0.012 C 
BRANCH  15  17
HETATM   17  C           1     -20.832 -10.428  -4.772  0.00  0.00     0.002 C 
HETATM   18  C           1     -21.177 -11.125  -6.082  0.00  0.00     0.005 C 
ENDBRANCH  15  17
ENDBRANCH  14  15
BRANCH  14  19
HETATM   19  C           1     -21.445  -7.074  -5.158  0.00  0.00     0.197 C 
HETATM   20  O           1     -21.200  -7.058  -6.384  0.00  0.00    -0.646 OA
HETATM   21  O           1     -22.325  -6.321  -4.687  0.00  0.00    -0.646 OA
ENDBRANCH  14  19
ENDBRANCH   2  14
TORSDOF 8
ENDMDL
MODEL 5
REMARK VINA RESULT:      -4.7      4.622      6.077
REMARK  8 active torsions:
REMARK  status: ('A' for Active; 'I' for Inactive)
REMARK    1  A    between atoms: N_3  and  C_14 
REMARK    2  A    between atoms: C_7  and  C_8 
REMARK    3  A    between atoms: C_8  and  C_21 
REMARK    4  A    between atoms: N_11  and  C_21 
REMARK       I    between atoms: N_11  and  C_12 
REMARK    5  A    between atoms: C_12  and  C_14 
REMARK    6  A    between atoms: C_14  and  C_15 
REMARK    7  A    between atoms: C_15  and  O_16 
REMARK    8  A    between atoms: C_19  and  C_21 
ROOT
HETATM    1  O           1     -19.812 -11.254  -1.321  0.00  0.00    -0.271 OA
HETATM    2  N           1     -21.446  -9.966  -2.133  0.00  0.00    -0.344 N 
HETATM    3  C           1     -20.302 -10.704  -2.278  0.00  0.00     0.251 C 
HETATM    4  H           1     -21.857  -9.505  -2.934  0.00  0.00     0.163 HD
ENDROOT
BRANCH   3   5
HETATM    5  C           1     -19.654 -10.829  -3.635  0.00  0.00     0.302 C 
BRANCH   5   6
HETATM    6  N           1     -20.716 -10.864  -4.695  0.00  0.00    -0.064 N 
HETATM    7  H           1     -20.304 -10.577  -5.611  0.00  0.00     0.275 HD
HETATM    8  H           1     -21.096 -11.834  -4.773  0.00  0.00     0.275 HD
HETATM    9  H           1     -21.487 -10.207  -4.438  0.00  0.00     0.275 HD
ENDBRANCH   5   6
BRANCH   5  10
HETATM   10  C           1     -18.741  -9.633  -3.874  0.00  0.00     0.153 C 
HETATM   11  C           1     -19.455  -8.618  -4.757  0.00  0.00     0.042 C 
BRANCH  10  12
HETATM   12  O           1     -18.416  -9.040  -2.647  0.00  0.00    -0.393 OA
HETATM   13  H           1     -17.497  -9.195  -2.502  0.00  0.00     0.210 HD
ENDBRANCH  10  12
ENDBRANCH   5  10
ENDBRANCH   3   5
BRANCH   2  14
HETATM   14  C           1     -22.069  -9.845  -0.828  0.00  0.00     0.189 C 
BRANCH  14  15
HETATM   15  C           1     -22.281  -8.372  -0.502  0.00  0.00     0.014 C 
HETATM   16  C           1     -21.852  -8.105   0.934  0.00  0.00     0.012 C 
BRANCH  15  17
HETATM   17  C           1     -21.448  -7.518  -1.450  0.00  0.00     0.002 C 
HETATM   18  C           1     -22.254  -6.298  -1.874  0.00  0.00     0.005 C 
ENDBRANCH  15  17
ENDBRANCH  14  15
BRANCH  14  19
HETATM   19  C           1     -23.401 -10.555  -0.840  0.00  0.00     0.197 C 
HETATM   20  O           1     -24.150 -10.495   0.159  0.00  0.00    -0.646 OA
HETATM   21  O           1     -23.755 -11.203  -1.848  0.00  0.00    -0.646 OA
ENDBRANCH  14  19
ENDBRANCH   2  14
TORSDOF 8
ENDMDL
MODEL 6
REMARK VINA RESULT:      -4.7      4.851      7.946
REMARK  8 active torsions:
REMARK  status: ('A' for Active; 'I' for Inactive)
REMARK    1  A    between atoms: N_3  and  C_14 
REMARK    2  A    between atoms: C_7  and  C_8 
REMARK    3  A    between atoms: C_8  and  C_21 
REMARK    4  A    between atoms: N_11  and  C_21 
REMARK       I    between atoms: N_11  and  C_12 
REMARK    5  A    between atoms: C_12  and  C_14 
REMARK    6  A    between atoms: C_14  and  C_15 
REMARK    7  A    between atoms: C_15  and  O_16 
REMARK    8  A    between atoms: C_19  and  C_21 
ROOT
HETATM    1  O           1     -20.816 -10.776   0.250  0.00  0.00    -0.271 OA
HETATM    2  N           1     -21.988  -9.784  -1.371  0.00  0.00    -0.344 N 
HETATM    3  C           1     -21.642 -10.878  -0.624  0.00  0.00     0.251 C 
HETATM    4  H           1     -22.681  -9.869  -2.105  0.00  0.00     0.163 HD
ENDROOT
BRANCH   3   5
HETATM    5  C           1     -22.294 -12.212  -0.896  0.00  0.00     0.302 C 
BRANCH   5   6
HETATM    6  N           1     -21.379 -13.315  -0.455  0.00  0.00    -0.064 N 
HETATM    7  H           1     -20.747 -13.581  -1.244  0.00  0.00     0.275 HD
HETATM    8  H           1     -20.805 -12.986   0.354  0.00  0.00     0.275 HD
HETATM    9  H           1     -21.945 -14.144  -0.167  0.00  0.00     0.275 HD
ENDBRANCH   5   6
BRANCH   5  10
HETATM   10  C           1     -23.605 -12.303  -0.124  0.00  0.00     0.153 C 
HETATM   11  C           1     -23.381 -13.086   1.164  0.00  0.00     0.042 C 
BRANCH  10  12
HETATM   12  O           1     -24.056 -11.013   0.186  0.00  0.00    -0.393 OA
HETATM   13  H           1     -23.771 -10.448  -0.513  0.00  0.00     0.210 HD
ENDBRANCH  10  12
ENDBRANCH   5  10
ENDBRANCH   3   5
BRANCH   2  14
HETATM   14  C           1     -21.362  -8.502  -1.111  0.00  0.00     0.189 C 
BRANCH  14  15
HETATM   15  C           1     -20.729  -7.977  -2.393  0.00  0.00     0.014 C 
HETATM   16  C           1     -19.330  -8.560  -2.542  0.00  0.00     0.012 C 
BRANCH  15  17
HETATM   17  C           1     -21.583  -8.390  -3.585  0.00  0.00     0.002 C 
HETATM   18  C           1     -21.779  -7.194  -4.507  0.00  0.00     0.005 C 
ENDBRANCH  15  17
ENDBRANCH  14  15
BRANCH  14  19
HETATM   19  C           1     -22.404  -7.523  -0.626  0.00  0.00     0.197 C 
HETATM   20  O           1     -22.443  -6.367  -1.099  0.00  0.00    -0.646 OA
HETATM   21  O           1     -23.226  -7.868   0.250  0.00  0.00    -0.646 OA
ENDBRANCH  14  19
ENDBRANCH   2  14
TORSDOF 8
ENDMDL
MODEL 7
REMARK VINA RESULT:      -4.5     18.643     20.250
REMARK  8 active torsions:
REMARK  status: ('A' for Active; 'I' for Inactive)
REMARK    1  A    between atoms: N_3  and  C_14 
REMARK    2  A    between atoms: C_7  and  C_8 
REMARK    3  A    between atoms: C_8  and  C_21 
REMARK    4  A    between atoms: N_11  and  C_21 
REMARK       I    between atoms: N_11  and  C_12 
REMARK    5  A    between atoms: C_12  and  C_14 
REMARK    6  A    between atoms: C_14  and  C_15 
REMARK    7  A    between atoms: C_15  and  O_16 
REMARK    8  A    between atoms: C_19  and  C_21 
ROOT
HETATM    1  O           1     -16.279  10.984   5.049  0.00  0.00    -0.271 OA
HETATM    2  N           1     -15.630   9.581   3.437  0.00  0.00    -0.344 N 
HETATM    3  C           1     -15.813   9.910   4.753  0.00  0.00     0.251 C 
HETATM    4  H           1     -15.240   8.681   3.188  0.00  0.00     0.163 HD
ENDROOT
BRANCH   3   5
HETATM    5  C           1     -15.431   8.929   5.835  0.00  0.00     0.302 C 
BRANCH   5   6
HETATM    6  N           1     -15.115   7.600   5.215  0.00  0.00    -0.064 N 
HETATM    7  H           1     -15.937   7.268   4.662  0.00  0.00     0.275 HD
HETATM    8  H           1     -14.289   7.701   4.583  0.00  0.00     0.275 HD
HETATM    9  H           1     -14.897   6.908   5.966  0.00  0.00     0.275 HD
ENDBRANCH   5   6
BRANCH   5  10
HETATM   10  C           1     -14.205   9.445   6.578  0.00  0.00     0.153 C 
HETATM   11  C           1     -12.961   9.199   5.736  0.00  0.00     0.042 C 
BRANCH  10  12
HETATM   12  O           1     -14.345  10.819   6.815  0.00  0.00    -0.393 OA
HETATM   13  H           1     -15.242  11.040   6.622  0.00  0.00     0.210 HD
ENDBRANCH  10  12
ENDBRANCH   5  10
ENDBRANCH   3   5
BRANCH   2  14
HETATM   14  C           1     -15.998  10.524   2.397  0.00  0.00     0.189 C 
BRANCH  14  15
HETATM   15  C           1     -14.958  10.482   1.286  0.00  0.00     0.014 C 
HETATM   16  C           1     -14.330  11.861   1.127  0.00  0.00     0.012 C 
BRANCH  15  17
HETATM   17  C           1     -13.877   9.468   1.639  0.00  0.00     0.002 C 
HETATM   18  C           1     -12.505  10.107   1.468  0.00  0.00     0.005 C 
ENDBRANCH  15  17
ENDBRANCH  14  15
BRANCH  14  19
HETATM   19  C           1     -17.349  10.153   1.837  0.00  0.00     0.197 C 
HETATM   20  O           1     -17.823   9.016   2.050  0.00  0.00    -0.646 OA
HETATM   21  O           1     -17.994  10.982   1.159  0.00  0.00    -0.646 OA
ENDBRANCH  14  19
ENDBRANCH   2  14
TORSDOF 8
ENDMDL
MODEL 8
REMARK VINA RESULT:      -4.5      3.598      5.043
REMARK  8 active torsions:
REMARK  status: ('A' for Active; 'I' for Inactive)
REMARK    1  A    between atoms: N_3  and  C_14 
REMARK    2  A    between atoms: C_7  and  C_8 
REMARK    3  A    between atoms: C_8  and  C_21 
REMARK    4  A    between atoms: N_11  and  C_21 
REMARK       I    between atoms: N_11  and  C_12 
REMARK    5  A    between atoms: C_12  and  C_14 
REMARK    6  A    between atoms: C_14  and  C_15 
REMARK    7  A    between atoms: C_15  and  O_16 
REMARK    8  A    between atoms: C_19  and  C_21 
ROOT
HETATM    1  O           1     -19.154  -8.868  -2.550  0.00  0.00    -0.271 OA
HETATM    2  N           1     -21.278  -9.366  -2.073  0.00  0.00    -0.344 N 
HETATM    3  C           1     -20.324  -8.698  -2.794  0.00  0.00     0.251 C 
HETATM    4  H           1     -22.259  -9.224  -2.277  0.00  0.00     0.163 HD
ENDROOT
BRANCH   3   5
HETATM    5  C           1     -20.738  -7.749  -3.891  0.00  0.00     0.302 C 
BRANCH   5   6
HETATM    6  N           1     -21.030  -8.526  -5.141  0.00  0.00    -0.064 N 
HETATM    7  H           1     -21.998  -8.916  -5.091  0.00  0.00     0.275 HD
HETATM    8  H           1     -20.952  -7.893  -5.969  0.00  0.00     0.275 HD
HETATM    9  H           1     -20.343  -9.308  -5.234  0.00  0.00     0.275 HD
ENDBRANCH   5   6
BRANCH   5  10
HETATM   10  C           1     -21.988  -6.991  -3.464  0.00  0.00     0.153 C 
HETATM   11  C           1     -21.646  -6.056  -2.311  0.00  0.00     0.042 C 
BRANCH  10  12
HETATM   12  O           1     -22.474  -6.243  -4.544  0.00  0.00    -0.393 OA
HETATM   13  H           1     -22.493  -5.341  -4.267  0.00  0.00     0.210 HD
ENDBRANCH  10  12
ENDBRANCH   5  10
ENDBRANCH   3   5
BRANCH   2  14
HETATM   14  C           1     -20.881 -10.279  -1.018  0.00  0.00     0.189 C 
BRANCH  14  15
HETATM   15  C           1     -21.724 -10.015   0.223  0.00  0.00     0.014 C 
HETATM   16  C           1     -20.964  -9.093   1.166  0.00  0.00     0.012 C 
BRANCH  15  17
HETATM   17  C           1     -23.036  -9.357  -0.185  0.00  0.00     0.002 C 
HETATM   18  C           1     -23.205  -8.048   0.575  0.00  0.00     0.005 C 
ENDBRANCH  15  17
ENDBRANCH  14  15
BRANCH  14  19
HETATM   19  C           1     -21.092 -11.701  -1.477  0.00  0.00     0.197 C 
HETATM   20  O           1     -20.433 -12.628  -0.961  0.00  0.00    -0.646 OA
HETATM   21  O           1     -21.925 -11.951  -2.375  0.00  0.00    -0.646 OA
ENDBRANCH  14  19
ENDBRANCH   2  14
TORSDOF 8
ENDMDL
MODEL 9
REMARK VINA RESULT:      -4.5      4.951      6.715
REMARK  8 active torsions:
REMARK  status: ('A' for Active; 'I' for Inactive)
REMARK    1  A    between atoms: N_3  and  C_14 
REMARK    2  A    between atoms: C_7  and  C_8 
REMARK    3  A    between atoms: C_8  and  C_21 
REMARK    4  A    between atoms: N_11  and  C_21 
REMARK       I    between atoms: N_11  and  C_12 
REMARK    5  A    between atoms: C_12  and  C_14 
REMARK    6  A    between atoms: C_14  and  C_15 
REMARK    7  A    between atoms: C_15  and  O_16 
REMARK    8  A    between atoms: C_19  and  C_21 
ROOT
HETATM    1  O           1     -21.841  -9.406  -2.483  0.00  0.00    -0.271 OA
HETATM    2  N           1     -19.664  -9.418  -1.985  0.00  0.00    -0.344 N 
HETATM    3  C           1     -20.933  -8.923  -1.849  0.00  0.00     0.251 C 
HETATM    4  H           1     -18.902  -9.014  -1.454  0.00  0.00     0.163 HD
ENDROOT
BRANCH   3   5
HETATM    5  C           1     -21.197  -7.775  -0.906  0.00  0.00     0.302 C 
BRANCH   5   6
HETATM    6  N           1     -22.267  -6.894  -1.479  0.00  0.00    -0.064 N 
HETATM    7  H           1     -22.981  -6.688  -0.744  0.00  0.00     0.275 HD
HETATM    8  H           1     -21.840  -5.999  -1.808  0.00  0.00     0.275 HD
HETATM    9  H           1     -22.724  -7.379  -2.284  0.00  0.00     0.275 HD
ENDBRANCH   5   6
BRANCH   5  10
HETATM   10  C           1     -21.657  -8.318   0.441  0.00  0.00     0.153 C 
HETATM   11  C           1     -23.160  -8.120   0.581  0.00  0.00     0.042 C 
BRANCH  10  12
HETATM   12  O           1     -21.356  -9.685   0.521  0.00  0.00    -0.393 OA
HETATM   13  H           1     -20.865  -9.811   1.316  0.00  0.00     0.210 HD
ENDBRANCH  10  12
ENDBRANCH   5  10
ENDBRANCH   3   5
BRANCH   2  14
HETATM   14  C           1     -19.409 -10.522  -2.891  0.00  0.00     0.189 C 
BRANCH  14  15
HETATM   15  C           1     -18.152 -10.235  -3.700  0.00  0.00     0.014 C 
HETATM   16  C           1     -18.526  -9.470  -4.962  0.00  0.00     0.012 C 
BRANCH  15  17
HETATM   17  C           1     -17.191  -9.399  -2.864  0.00  0.00     0.002 C 
HETATM   18  C           1     -15.878 -10.152  -2.694  0.00  0.00     0.005 C 
ENDBRANCH  15  17
ENDBRANCH  14  15
BRANCH  14  19
HETATM   19  C           1     -19.218 -11.791  -2.095  0.00  0.00     0.197 C 
HETATM   20  O           1     -18.669 -12.782  -2.623  0.00  0.00    -0.646 OA
HETATM   21  O           1     -19.608 -11.850  -0.909  0.00  0.00    -0.646 OA
ENDBRANCH  14  19
ENDBRANCH   2  14
TORSDOF 8
ENDMDL
