MODEL 1
REMARK VINA RESULT:      -7.0      0.000      0.000
REMARK  5 active torsions:
REMARK  status: ('A' for Active; 'I' for Inactive)
REMARK       I    between atoms: C_2  and  N_8 
REMARK    1  A    between atoms: C_2  and  C_3 
REMARK    2  A    between atoms: C_5  and  C_24 
REMARK    3  A    between atoms: C_5  and  C_6 
REMARK    4  A    between atoms: C_6  and  C_7 
REMARK    5  A    between atoms: C_6  and  N_8 
REMARK       I    between atoms: N_16  and  C_24 
ROOT
HETATM    1  C           1     -20.673  -4.221  -9.271  0.00  0.00     0.249 C 
HETATM    2  N           1     -21.894  -3.976  -9.840  0.00  0.00    -0.344 N 
HETATM    3  O           1     -19.810  -4.776  -9.908  0.00  0.00    -0.271 OA
HETATM    4  H           1     -22.617  -3.512  -9.306  0.00  0.00     0.163 HD
ENDROOT
BRANCH   1   5
HETATM    5  C           1     -20.406  -3.798  -7.847  0.00  0.00     0.274 C 
HETATM    6  C           1     -19.458  -4.794  -7.190  0.00  0.00     0.042 C 
HETATM    7  C           1     -20.092  -6.179  -7.198  0.00  0.00     0.004 C 
HETATM    8  C           1     -20.245  -6.675  -5.765  0.00  0.00     0.027 C 
HETATM    9  C           1     -21.134  -5.715  -4.987  0.00  0.00     0.229 C 
HETATM   10  N           1     -22.484  -5.644  -5.637  0.00  0.00    -0.079 N 
HETATM   11  H           1     -22.379  -5.302  -6.619  0.00  0.00     0.274 HD
HETATM   12  H           1     -23.094  -4.984  -5.104  0.00  0.00     0.274 HD
HETATM   13  H           1     -22.919  -6.594  -5.644  0.00  0.00     0.274 HD
HETATM   14  H           1     -22.132  -4.712  -7.091  0.00  0.00     0.275 HD
HETATM   15  N           1     -21.698  -3.762  -7.086  0.00  0.00    -0.067 N 
HETATM   16  H           1     -22.348  -3.079  -7.536  0.00  0.00     0.275 HD
HETATM   17  H           1     -21.515  -3.469  -6.100  0.00  0.00     0.275 HD
ENDBRANCH   1   5
BRANCH   2  18
HETATM   18  C           1     -22.151  -4.383 -11.208  0.00  0.00     0.194 C 
BRANCH  18  19
HETATM   19  C           1     -23.573  -4.915 -11.319  0.00  0.00     0.138 C 
BRANCH  19  20
HETATM   20  C           1     -24.497  -4.064 -10.483  0.00  0.00     0.217 C 
HETATM   21  O           1     -24.648  -2.896 -10.749  0.00  0.00    -0.274 OA
HETATM   22  N           1     -25.164  -4.616  -9.423  0.00  0.00    -0.370 N 
HETATM   23  H           1     -25.784  -4.045  -8.862  0.00  0.00     0.159 HD
HETATM   24  H           1     -25.038  -5.595  -9.200  0.00  0.00     0.159 HD
ENDBRANCH  19  20
ENDBRANCH  18  19
BRANCH  18  25
HETATM   25  C           1     -21.984  -3.196 -12.124  0.00  0.00     0.197 C 
HETATM   26  O           1     -21.398  -2.169 -11.716  0.00  0.00    -0.646 OA
HETATM   27  O           1     -22.431  -3.239 -13.291  0.00  0.00    -0.646 OA
ENDBRANCH  18  25
ENDBRANCH   2  18
TORSDOF 5
ENDMDL
MODEL 2
REMARK VINA RESULT:      -6.6      1.579      2.777
REMARK  5 active torsions:
REMARK  status: ('A' for Active; 'I' for Inactive)
REMARK       I    between atoms: C_2  and  N_8 
REMARK    1  A    between atoms: C_2  and  C_3 
REMARK    2  A    between atoms: C_5  and  C_24 
REMARK    3  A    between atoms: C_5  and  C_6 
REMARK    4  A    between atoms: C_6  and  C_7 
REMARK    5  A    between atoms: C_6  and  N_8 
REMARK       I    between atoms: N_16  and  C_24 
ROOT
HETATM    1  C           1     -21.661  -3.806  -7.787  0.00  0.00     0.249 C 
HETATM    2  N           1     -22.850  -3.941  -8.450  0.00  0.00    -0.344 N 
HETATM    3  O           1     -20.704  -3.332  -8.351  0.00  0.00    -0.271 OA
HETATM    4  H           1     -23.651  -4.338  -7.977  0.00  0.00     0.163 HD
ENDROOT
BRANCH   1   5
HETATM    5  C           1     -21.545  -4.250  -6.349  0.00  0.00     0.274 C 
HETATM    6  C           1     -20.106  -4.655  -6.056  0.00  0.00     0.042 C 
HETATM    7  C           1     -19.703  -5.801  -6.975  0.00  0.00     0.004 C 
HETATM    8  C           1     -19.318  -7.013  -6.137  0.00  0.00     0.027 C 
HETATM    9  C           1     -20.506  -7.439  -5.284  0.00  0.00     0.229 C 
HETATM   10  N           1     -21.660  -7.795  -6.176  0.00  0.00    -0.079 N 
HETATM   11  H           1     -21.925  -6.962  -6.750  0.00  0.00     0.274 HD
HETATM   12  H           1     -22.475  -8.087  -5.590  0.00  0.00     0.274 HD
HETATM   13  H           1     -21.384  -8.580  -6.807  0.00  0.00     0.274 HD
HETATM   14  H           1     -22.174  -6.208  -6.744  0.00  0.00     0.275 HD
HETATM   15  N           1     -22.451  -5.422  -6.114  0.00  0.00    -0.067 N 
HETATM   16  H           1     -23.438  -5.144  -6.314  0.00  0.00     0.275 HD
HETATM   17  H           1     -22.371  -5.731  -5.118  0.00  0.00     0.275 HD
ENDBRANCH   1   5
BRANCH   2  18
HETATM   18  C           1     -22.962  -3.514  -9.832  0.00  0.00     0.194 C 
BRANCH  18  19
HETATM   19  C           1     -22.476  -4.630 -10.748  0.00  0.00     0.138 C 
BRANCH  19  20
HETATM   20  C           1     -21.500  -4.068 -11.752  0.00  0.00     0.217 C 
HETATM   21  O           1     -20.322  -4.020 -11.487  0.00  0.00    -0.274 OA
HETATM   22  N           1     -21.948  -3.614 -12.962  0.00  0.00    -0.370 N 
HETATM   23  H           1     -21.293  -3.237 -13.636  0.00  0.00     0.159 HD
HETATM   24  H           1     -22.935  -3.655 -13.184  0.00  0.00     0.159 HD
ENDBRANCH  19  20
ENDBRANCH  18  19
BRANCH  18  25
HETATM   25  C           1     -24.404  -3.198 -10.145  0.00  0.00     0.197 C 
HETATM   26  O           1     -24.825  -3.297 -11.318  0.00  0.00    -0.646 OA
HETATM   27  O           1     -25.177  -2.837  -9.231  0.00  0.00    -0.646 OA
ENDBRANCH  18  25
ENDBRANCH   2  18
TORSDOF 5
ENDMDL
MODEL 3
REMARK VINA RESULT:      -6.4      1.883      2.674
REMARK  5 active torsions:
REMARK  status: ('A' for Active; 'I' for Inactive)
REMARK       I    between atoms: C_2  and  N_8 
REMARK    1  A    between atoms: C_2  and  C_3 
REMARK    2  A    between atoms: C_5  and  C_24 
REMARK    3  A    between atoms: C_5  and  C_6 
REMARK    4  A    between atoms: C_6  and  C_7 
REMARK    5  A    between atoms: C_6  and  N_8 
REMARK       I    between atoms: N_16  and  C_24 
ROOT
HETATM    1  C           1     -20.807  -4.108  -7.663  0.00  0.00     0.249 C 
HETATM    2  N           1     -20.958  -4.476  -8.973  0.00  0.00    -0.344 N 
HETATM    3  O           1     -21.442  -3.183  -7.218  0.00  0.00    -0.271 OA
HETATM    4  H           1     -20.425  -5.251  -9.346  0.00  0.00     0.163 HD
ENDROOT
BRANCH   1   5
HETATM    5  C           1     -19.845  -4.858  -6.775  0.00  0.00     0.274 C 
HETATM    6  C           1     -20.049  -6.358  -6.956  0.00  0.00     0.042 C 
HETATM    7  C           1     -21.479  -6.724  -6.580  0.00  0.00     0.004 C 
HETATM    8  C           1     -21.461  -7.726  -5.432  0.00  0.00     0.027 C 
HETATM    9  C           1     -20.762  -7.108  -4.229  0.00  0.00     0.229 C 
HETATM   10  N           1     -21.500  -5.873  -3.802  0.00  0.00    -0.079 N 
HETATM   11  H           1     -21.511  -5.185  -4.589  0.00  0.00     0.274 HD
HETATM   12  H           1     -21.020  -5.448  -2.976  0.00  0.00     0.274 HD
HETATM   13  H           1     -22.481  -6.124  -3.544  0.00  0.00     0.274 HD
HETATM   14  H           1     -21.076  -4.742  -5.086  0.00  0.00     0.275 HD
HETATM   15  N           1     -20.096  -4.490  -5.343  0.00  0.00    -0.067 N 
HETATM   16  H           1     -19.955  -3.462  -5.219  0.00  0.00     0.275 HD
HETATM   17  H           1     -19.430  -5.009  -4.727  0.00  0.00     0.275 HD
ENDBRANCH   1   5
BRANCH   2  18
HETATM   18  C           1     -21.883  -3.755  -9.826  0.00  0.00     0.194 C 
BRANCH  18  19
HETATM   19  C           1     -21.445  -3.894 -11.278  0.00  0.00     0.138 C 
BRANCH  19  20
HETATM   20  C           1     -22.461  -3.231 -12.176  0.00  0.00     0.217 C 
HETATM   21  O           1     -22.616  -2.034 -12.132  0.00  0.00    -0.274 OA
HETATM   22  N           1     -23.206  -3.985 -13.041  0.00  0.00    -0.370 N 
HETATM   23  H           1     -23.888  -3.541 -13.643  0.00  0.00     0.159 HD
HETATM   24  H           1     -23.077  -4.988 -13.078  0.00  0.00     0.159 HD
ENDBRANCH  19  20
ENDBRANCH  18  19
BRANCH  18  25
HETATM   25  C           1     -23.269  -4.328  -9.661  0.00  0.00     0.197 C 
HETATM   26  O           1     -23.562  -5.420 -10.195  0.00  0.00    -0.646 OA
HETATM   27  O           1     -24.125  -3.710  -8.991  0.00  0.00    -0.646 OA
ENDBRANCH  18  25
ENDBRANCH   2  18
TORSDOF 5
ENDMDL
MODEL 4
REMARK VINA RESULT:      -6.2      2.047      2.769
REMARK  5 active torsions:
REMARK  status: ('A' for Active; 'I' for Inactive)
REMARK       I    between atoms: C_2  and  N_8 
REMARK    1  A    between atoms: C_2  and  C_3 
REMARK    2  A    between atoms: C_5  and  C_24 
REMARK    3  A    between atoms: C_5  and  C_6 
REMARK    4  A    between atoms: C_6  and  C_7 
REMARK    5  A    between atoms: C_6  and  N_8 
REMARK       I    between atoms: N_16  and  C_24 
ROOT
HETATM    1  C           1     -23.015  -3.895  -8.691  0.00  0.00     0.249 C 
HETATM    2  N           1     -22.531  -3.267  -9.807  0.00  0.00    -0.344 N 
HETATM    3  O           1     -24.021  -4.561  -8.761  0.00  0.00    -0.271 OA
HETATM    4  H           1     -21.689  -2.709  -9.748  0.00  0.00     0.163 HD
ENDROOT
BRANCH   1   5
HETATM    5  C           1     -22.294  -3.754  -7.373  0.00  0.00     0.274 C 
HETATM    6  C           1     -20.789  -3.797  -7.610  0.00  0.00     0.042 C 
HETATM    7  C           1     -20.414  -5.125  -8.256  0.00  0.00     0.004 C 
HETATM    8  C           1     -19.436  -5.870  -7.355  0.00  0.00     0.027 C 
HETATM    9  C           1     -20.086  -6.128  -6.003  0.00  0.00     0.229 C 
HETATM   10  N           1     -21.321  -6.959  -6.192  0.00  0.00    -0.079 N 
HETATM   11  H           1     -21.993  -6.448  -6.808  0.00  0.00     0.274 HD
HETATM   12  H           1     -21.768  -7.136  -5.263  0.00  0.00     0.274 HD
HETATM   13  H           1     -21.065  -7.869  -6.635  0.00  0.00     0.274 HD
HETATM   14  H           1     -22.431  -5.792  -6.908  0.00  0.00     0.275 HD
HETATM   15  N           1     -22.688  -4.881  -6.465  0.00  0.00    -0.067 N 
HETATM   16  H           1     -23.720  -4.852  -6.302  0.00  0.00     0.275 HD
HETATM   17  H           1     -22.189  -4.786  -5.552  0.00  0.00     0.275 HD
ENDBRANCH   1   5
BRANCH   2  18
HETATM   18  C           1     -23.224  -3.402 -11.073  0.00  0.00     0.194 C 
BRANCH  18  19
HETATM   19  C           1     -22.790  -2.283 -12.011  0.00  0.00     0.138 C 
BRANCH  19  20
HETATM   20  C           1     -23.370  -2.522 -13.383  0.00  0.00     0.217 C 
HETATM   21  O           1     -24.543  -2.317 -13.586  0.00  0.00    -0.274 OA
HETATM   22  N           1     -22.568  -2.969 -14.397  0.00  0.00    -0.370 N 
HETATM   23  H           1     -22.958  -3.129 -15.318  0.00  0.00     0.159 HD
HETATM   24  H           1     -21.586  -3.141 -14.227  0.00  0.00     0.159 HD
ENDBRANCH  19  20
ENDBRANCH  18  19
BRANCH  18  25
HETATM   25  C           1     -22.886  -4.737 -11.691  0.00  0.00     0.197 C 
HETATM   26  O           1     -23.793  -5.565 -11.925  0.00  0.00    -0.646 OA
HETATM   27  O           1     -21.700  -5.014 -11.970  0.00  0.00    -0.646 OA
ENDBRANCH  18  25
ENDBRANCH   2  18
TORSDOF 5
ENDMDL
MODEL 5
REMARK VINA RESULT:      -6.0      3.780      6.957
REMARK  5 active torsions:
REMARK  status: ('A' for Active; 'I' for Inactive)
REMARK       I    between atoms: C_2  and  N_8 
REMARK    1  A    between atoms: C_2  and  C_3 
REMARK    2  A    between atoms: C_5  and  C_24 
REMARK    3  A    between atoms: C_5  and  C_6 
REMARK    4  A    between atoms: C_6  and  C_7 
REMARK    5  A    between atoms: C_6  and  N_8 
REMARK       I    between atoms: N_16  and  C_24 
ROOT
HETATM    1  C           1     -20.831  -5.634  -6.373  0.00  0.00     0.249 C 
HETATM    2  N           1     -20.959  -5.705  -5.013  0.00  0.00    -0.344 N 
HETATM    3  O           1     -21.022  -6.616  -7.051  0.00  0.00    -0.271 OA
HETATM    4  H           1     -20.799  -4.883  -4.446  0.00  0.00     0.163 HD
ENDROOT
BRANCH   1   5
HETATM    5  C           1     -20.451  -4.329  -7.028  0.00  0.00     0.274 C 
HETATM    6  C           1     -21.695  -3.673  -7.615  0.00  0.00     0.042 C 
HETATM    7  C           1     -22.316  -4.600  -8.653  0.00  0.00     0.004 C 
HETATM    8  C           1     -22.346  -3.900 -10.006  0.00  0.00     0.027 C 
HETATM    9  C           1     -20.926  -3.546 -10.427  0.00  0.00     0.229 C 
HETATM   10  N           1     -20.108  -4.800 -10.531  0.00  0.00    -0.079 N 
HETATM   11  H           1     -20.086  -5.279  -9.603  0.00  0.00     0.274 HD
HETATM   12  H           1     -19.133  -4.557 -10.819  0.00  0.00     0.274 HD
HETATM   13  H           1     -20.534  -5.436 -11.242  0.00  0.00     0.274 HD
HETATM   14  H           1     -19.887  -5.225  -8.835  0.00  0.00     0.275 HD
HETATM   15  N           1     -19.460  -4.589  -8.124  0.00  0.00    -0.067 N 
HETATM   16  H           1     -18.607  -5.038  -7.721  0.00  0.00     0.275 HD
HETATM   17  H           1     -19.197  -3.686  -8.578  0.00  0.00     0.275 HD
ENDBRANCH   1   5
BRANCH   2  18
HETATM   18  C           1     -21.324  -6.959  -4.383  0.00  0.00     0.194 C 
BRANCH  18  19
HETATM   19  C           1     -20.177  -7.951  -4.524  0.00  0.00     0.138 C 
BRANCH  19  20
HETATM   20  C           1     -20.731  -9.336  -4.749  0.00  0.00     0.217 C 
HETATM   21  O           1     -20.956  -9.721  -5.872  0.00  0.00    -0.274 OA
HETATM   22  N           1     -20.980 -10.155  -3.682  0.00  0.00    -0.370 N 
HETATM   23  H           1     -21.353 -11.084  -3.833  0.00  0.00     0.159 HD
HETATM   24  H           1     -20.792  -9.832  -2.741  0.00  0.00     0.159 HD
ENDBRANCH  19  20
ENDBRANCH  18  19
BRANCH  18  25
HETATM   25  C           1     -21.608  -6.723  -2.920  0.00  0.00     0.197 C 
HETATM   26  O           1     -22.495  -5.911  -2.579  0.00  0.00    -0.646 OA
HETATM   27  O           1     -20.956  -7.339  -2.049  0.00  0.00    -0.646 OA
ENDBRANCH  18  25
ENDBRANCH   2  18
TORSDOF 5
ENDMDL
MODEL 6
REMARK VINA RESULT:      -5.9      1.558      2.048
REMARK  5 active torsions:
REMARK  status: ('A' for Active; 'I' for Inactive)
REMARK       I    between atoms: C_2  and  N_8 
REMARK    1  A    between atoms: C_2  and  C_3 
REMARK    2  A    between atoms: C_5  and  C_24 
REMARK    3  A    between atoms: C_5  and  C_6 
REMARK    4  A    between atoms: C_6  and  C_7 
REMARK    5  A    between atoms: C_6  and  N_8 
REMARK       I    between atoms: N_16  and  C_24 
ROOT
HETATM    1  C           1     -22.353  -4.508  -7.671  0.00  0.00     0.249 C 
HETATM    2  N           1     -21.644  -4.199  -8.800  0.00  0.00    -0.344 N 
HETATM    3  O           1     -23.530  -4.768  -7.748  0.00  0.00    -0.271 OA
HETATM    4  H           1     -20.658  -3.980  -8.734  0.00  0.00     0.163 HD
ENDROOT
BRANCH   1   5
HETATM    5  C           1     -21.665  -4.523  -6.328  0.00  0.00     0.274 C 
HETATM    6  C           1     -20.231  -5.008  -6.497  0.00  0.00     0.042 C 
HETATM    7  C           1     -20.235  -6.415  -7.081  0.00  0.00     0.004 C 
HETATM    8  C           1     -19.544  -7.369  -6.114  0.00  0.00     0.027 C 
HETATM    9  C           1     -20.285  -7.368  -4.784  0.00  0.00     0.229 C 
HETATM   10  N           1     -21.701  -7.816  -4.999  0.00  0.00    -0.079 N 
HETATM   11  H           1     -22.175  -7.161  -5.661  0.00  0.00     0.274 HD
HETATM   12  H           1     -22.210  -7.815  -4.086  0.00  0.00     0.274 HD
HETATM   13  H           1     -21.705  -8.781  -5.401  0.00  0.00     0.274 HD
HETATM   14  H           1     -22.401  -6.412  -5.802  0.00  0.00     0.275 HD
HETATM   15  N           1     -22.398  -5.447  -5.401  0.00  0.00    -0.067 N 
HETATM   16  H           1     -23.382  -5.114  -5.285  0.00  0.00     0.275 HD
HETATM   17  H           1     -21.923  -5.459  -4.471  0.00  0.00     0.275 HD
ENDBRANCH   1   5
BRANCH   2  18
HETATM   18  C           1     -22.305  -4.184 -10.090  0.00  0.00     0.194 C 
BRANCH  18  19
HETATM   19  C           1     -23.124  -2.908 -10.226  0.00  0.00     0.138 C 
BRANCH  19  20
HETATM   20  C           1     -24.537  -3.255 -10.625  0.00  0.00     0.217 C 
HETATM   21  O           1     -24.893  -3.110 -11.771  0.00  0.00    -0.274 OA
HETATM   22  N           1     -25.415  -3.734  -9.691  0.00  0.00    -0.370 N 
HETATM   23  H           1     -26.363  -3.967  -9.960  0.00  0.00     0.159 HD
HETATM   24  H           1     -25.116  -3.856  -8.732  0.00  0.00     0.159 HD
ENDBRANCH  19  20
ENDBRANCH  18  19
BRANCH  18  25
HETATM   25  C           1     -21.269  -4.237 -11.186  0.00  0.00     0.197 C 
HETATM   26  O           1     -21.570  -3.889 -12.348  0.00  0.00    -0.646 OA
HETATM   27  O           1     -20.109  -4.628 -10.931  0.00  0.00    -0.646 OA
ENDBRANCH  18  25
ENDBRANCH   2  18
TORSDOF 5
ENDMDL
MODEL 7
REMARK VINA RESULT:      -5.8      3.074      6.413
REMARK  5 active torsions:
REMARK  status: ('A' for Active; 'I' for Inactive)
REMARK       I    between atoms: C_2  and  N_8 
REMARK    1  A    between atoms: C_2  and  C_3 
REMARK    2  A    between atoms: C_5  and  C_24 
REMARK    3  A    between atoms: C_5  and  C_6 
REMARK    4  A    between atoms: C_6  and  C_7 
REMARK    5  A    between atoms: C_6  and  N_8 
REMARK       I    between atoms: N_16  and  C_24 
ROOT
HETATM    1  C           1     -21.074  -5.066  -7.820  0.00  0.00     0.249 C 
HETATM    2  N           1     -21.678  -5.116  -6.593  0.00  0.00    -0.344 N 
HETATM    3  O           1     -20.490  -6.033  -8.246  0.00  0.00    -0.271 OA
HETATM    4  H           1     -22.167  -4.304  -6.236  0.00  0.00     0.163 HD
ENDROOT
BRANCH   1   5
HETATM    5  C           1     -21.136  -3.801  -8.641  0.00  0.00     0.274 C 
HETATM    6  C           1     -22.592  -3.418  -8.876  0.00  0.00     0.042 C 
HETATM    7  C           1     -23.299  -4.543  -9.622  0.00  0.00     0.004 C 
HETATM    8  C           1     -23.832  -4.016 -10.949  0.00  0.00     0.027 C 
HETATM    9  C           1     -22.675  -3.496 -11.791  0.00  0.00     0.229 C 
HETATM   10  N           1     -21.705  -4.611 -12.051  0.00  0.00    -0.079 N 
HETATM   11  H           1     -21.338  -4.971 -11.141  0.00  0.00     0.274 HD
HETATM   12  H           1     -20.910  -4.254 -12.629  0.00  0.00     0.274 HD
HETATM   13  H           1     -22.189  -5.383 -12.562  0.00  0.00     0.274 HD
HETATM   14  H           1     -20.945  -4.799 -10.472  0.00  0.00     0.275 HD
HETATM   15  N           1     -20.460  -4.028  -9.960  0.00  0.00    -0.067 N 
HETATM   16  H           1     -19.462  -4.290  -9.799  0.00  0.00     0.275 HD
HETATM   17  H           1     -20.503  -3.153 -10.530  0.00  0.00     0.275 HD
ENDBRANCH   1   5
BRANCH   2  18
HETATM   18  C           1     -21.619  -6.331  -5.804  0.00  0.00     0.194 C 
BRANCH  18  19
HETATM   19  C           1     -20.246  -6.447  -5.155  0.00  0.00     0.138 C 
BRANCH  19  20
HETATM   20  C           1     -19.855  -7.901  -5.059  0.00  0.00     0.217 C 
HETATM   21  O           1     -19.336  -8.450  -6.001  0.00  0.00    -0.274 OA
HETATM   22  N           1     -20.088  -8.598  -3.904  0.00  0.00    -0.370 N 
HETATM   23  H           1     -19.825  -9.573  -3.840  0.00  0.00     0.159 HD
HETATM   24  H           1     -20.522  -8.138  -3.115  0.00  0.00     0.159 HD
ENDBRANCH  19  20
ENDBRANCH  18  19
BRANCH  18  25
HETATM   25  C           1     -22.681  -6.287  -4.733  0.00  0.00     0.197 C 
HETATM   26  O           1     -22.357  -6.376  -3.529  0.00  0.00    -0.646 OA
HETATM   27  O           1     -23.883  -6.161  -5.050  0.00  0.00    -0.646 OA
ENDBRANCH  18  25
ENDBRANCH   2  18
TORSDOF 5
ENDMDL
MODEL 8
REMARK VINA RESULT:      -5.7      6.614      9.246
REMARK  5 active torsions:
REMARK  status: ('A' for Active; 'I' for Inactive)
REMARK       I    between atoms: C_2  and  N_8 
REMARK    1  A    between atoms: C_2  and  C_3 
REMARK    2  A    between atoms: C_5  and  C_24 
REMARK    3  A    between atoms: C_5  and  C_6 
REMARK    4  A    between atoms: C_6  and  C_7 
REMARK    5  A    between atoms: C_6  and  N_8 
REMARK       I    between atoms: N_16  and  C_24 
ROOT
HETATM    1  C           1     -21.023  -9.972  -2.434  0.00  0.00     0.249 C 
HETATM    2  N           1     -21.692  -8.963  -3.071  0.00  0.00    -0.344 N 
HETATM    3  O           1     -19.976  -9.745  -1.876  0.00  0.00    -0.271 OA
HETATM    4  H           1     -22.569  -9.154  -3.539  0.00  0.00     0.163 HD
ENDROOT
BRANCH   1   5
HETATM    5  C           1     -21.593 -11.369  -2.427  0.00  0.00     0.274 C 
HETATM    6  C           1     -23.073 -11.313  -2.071  0.00  0.00     0.042 C 
HETATM    7  C           1     -23.240 -10.690  -0.691  0.00  0.00     0.004 C 
HETATM    8  C           1     -23.927 -11.686   0.236  0.00  0.00     0.027 C 
HETATM    9  C           1     -23.078 -12.945   0.347  0.00  0.00     0.229 C 
HETATM   10  N           1     -21.730 -12.593   0.904  0.00  0.00    -0.079 N 
HETATM   11  H           1     -21.259 -11.911   0.267  0.00  0.00     0.274 HD
HETATM   12  H           1     -21.147 -13.457   0.979  0.00  0.00     0.274 HD
HETATM   13  H           1     -21.844 -12.165   1.850  0.00  0.00     0.274 HD
HETATM   14  H           1     -20.981 -11.773  -0.465  0.00  0.00     0.275 HD
HETATM   15  N           1     -20.866 -12.200  -1.412  0.00  0.00    -0.067 N 
HETATM   16  H           1     -19.851 -12.239  -1.656  0.00  0.00     0.275 HD
HETATM   17  H           1     -21.260 -13.168  -1.406  0.00  0.00     0.275 HD
ENDBRANCH   1   5
BRANCH   2  18
HETATM   18  C           1     -21.144  -7.620  -3.078  0.00  0.00     0.194 C 
BRANCH  18  19
HETATM   19  C           1     -21.349  -6.996  -4.452  0.00  0.00     0.138 C 
BRANCH  19  20
HETATM   20  C           1     -20.223  -7.410  -5.367  0.00  0.00     0.217 C 
HETATM   21  O           1     -19.488  -8.314  -5.048  0.00  0.00    -0.274 OA
HETATM   22  N           1     -20.035  -6.763  -6.557  0.00  0.00    -0.370 N 
HETATM   23  H           1     -19.279  -7.041  -7.171  0.00  0.00     0.159 HD
HETATM   24  H           1     -20.651  -6.005  -6.824  0.00  0.00     0.159 HD
ENDBRANCH  19  20
ENDBRANCH  18  19
BRANCH  18  25
HETATM   25  C           1     -21.848  -6.786  -2.035  0.00  0.00     0.197 C 
HETATM   26  O           1     -22.015  -7.238  -0.882  0.00  0.00    -0.646 OA
HETATM   27  O           1     -22.263  -5.644  -2.326  0.00  0.00    -0.646 OA
ENDBRANCH  18  25
ENDBRANCH   2  18
TORSDOF 5
ENDMDL
MODEL 9
REMARK VINA RESULT:      -5.6      5.062      7.504
REMARK  5 active torsions:
REMARK  status: ('A' for Active; 'I' for Inactive)
REMARK       I    between atoms: C_2  and  N_8 
REMARK    1  A    between atoms: C_2  and  C_3 
REMARK    2  A    between atoms: C_5  and  C_24 
REMARK    3  A    between atoms: C_5  and  C_6 
REMARK    4  A    between atoms: C_6  and  C_7 
REMARK    5  A    between atoms: C_6  and  N_8 
REMARK       I    between atoms: N_16  and  C_24 
ROOT
HETATM    1  C           1     -19.759  -8.677  -5.088  0.00  0.00     0.249 C 
HETATM    2  N           1     -20.675  -8.368  -4.119  0.00  0.00    -0.344 N 
HETATM    3  O           1     -19.325  -7.810  -5.808  0.00  0.00    -0.271 OA
HETATM    4  H           1     -21.039  -9.094  -3.516  0.00  0.00     0.163 HD
ENDROOT
BRANCH   1   5
HETATM    5  C           1     -19.291 -10.102  -5.256  0.00  0.00     0.274 C 
HETATM    6  C           1     -18.631 -10.576  -3.968  0.00  0.00     0.042 C 
HETATM    7  C           1     -17.437  -9.683  -3.650  0.00  0.00     0.004 C 
HETATM    8  C           1     -16.169 -10.527  -3.609  0.00  0.00     0.027 C 
HETATM    9  C           1     -15.959 -11.194  -4.962  0.00  0.00     0.229 C 
HETATM   10  N           1     -15.824 -10.142  -6.023  0.00  0.00    -0.079 N 
HETATM   11  H           1     -16.695  -9.564  -6.052  0.00  0.00     0.274 HD
HETATM   12  H           1     -15.680 -10.600  -6.952  0.00  0.00     0.274 HD
HETATM   13  H           1     -15.007  -9.529  -5.806  0.00  0.00     0.274 HD
HETATM   14  H           1     -17.482  -9.560  -6.162  0.00  0.00     0.275 HD
HETATM   15  N           1     -18.300 -10.172  -6.380  0.00  0.00    -0.067 N 
HETATM   16  H           1     -18.753  -9.848  -7.264  0.00  0.00     0.275 HD
HETATM   17  H           1     -17.975 -11.158  -6.498  0.00  0.00     0.275 HD
ENDBRANCH   1   5
BRANCH   2  18
HETATM   18  C           1     -21.125  -6.999  -3.957  0.00  0.00     0.194 C 
BRANCH  18  19
HETATM   19  C           1     -22.292  -6.734  -4.899  0.00  0.00     0.138 C 
BRANCH  19  20
HETATM   20  C           1     -21.965  -5.558  -5.787  0.00  0.00     0.217 C 
HETATM   21  O           1     -22.845  -5.002  -6.400  0.00  0.00    -0.274 OA
HETATM   22  N           1     -20.673  -5.122  -5.898  0.00  0.00    -0.370 N 
HETATM   23  H           1     -20.454  -4.333  -6.494  0.00  0.00     0.159 HD
HETATM   24  H           1     -19.936  -5.588  -5.385  0.00  0.00     0.159 HD
ENDBRANCH  19  20
ENDBRANCH  18  19
BRANCH  18  25
HETATM   25  C           1     -21.570  -6.782  -2.531  0.00  0.00     0.197 C 
HETATM   26  O           1     -21.058  -7.452  -1.608  0.00  0.00    -0.646 OA
HETATM   27  O           1     -22.451  -5.933  -2.274  0.00  0.00    -0.646 OA
ENDBRANCH  18  25
ENDBRANCH   2  18
TORSDOF 5
ENDMDL
