MODEL 1
REMARK VINA RESULT:      -6.3      0.000      0.000
REMARK  9 active torsions:
REMARK  status: ('A' for Active; 'I' for Inactive)
REMARK    1  A    between atoms: C_2  and  C_19 
REMARK    2  A    between atoms: N_5  and  C_7 
REMARK       I    between atoms: N_5  and  C_15 
REMARK    3  A    between atoms: O_6  and  C_12 
REMARK    4  A    between atoms: C_7  and  C_14 
REMARK    5  A    between atoms: C_7  and  C_18 
REMARK    6  A    between atoms: N_11  and  C_13 
REMARK    7  A    between atoms: C_12  and  C_13 
REMARK    8  A    between atoms: C_13  and  C_15 
REMARK    9  A    between atoms: C_14  and  C_19 
ROOT
HETATM    1  N           1     -34.848  -1.904 -12.606  0.00  0.00    -0.345 N 
HETATM    2  O           1     -33.301  -2.356 -11.060  0.00  0.00    -0.271 OA
HETATM    3  C           1     -33.961  -2.748 -11.992  0.00  0.00     0.251 C 
HETATM    4  H           1     -35.402  -2.232 -13.386  0.00  0.00     0.163 HD
ENDROOT
BRANCH   1   5
HETATM    5  C           1     -34.994  -0.539 -12.136  0.00  0.00     0.186 C 
BRANCH   5   6
HETATM    6  C           1     -35.150   0.394 -13.330  0.00  0.00     0.046 C 
BRANCH   6   7
HETATM    7  C           1     -36.380  -0.010 -14.132  0.00  0.00     0.116 C 
BRANCH   7   8
HETATM    8  C           1     -35.954  -0.504 -15.493  0.00  0.00     0.172 C 
HETATM    9  O           1     -35.237  -1.523 -15.592  0.00  0.00    -0.648 OA
HETATM   10  O           1     -36.318   0.107 -16.522  0.00  0.00    -0.648 OA
ENDBRANCH   7   8
ENDBRANCH   6   7
ENDBRANCH   5   6
BRANCH   5  11
HETATM   11  C           1     -36.214  -0.439 -11.255  0.00  0.00     0.196 C 
HETATM   12  O           1     -37.003  -1.405 -11.169  0.00  0.00    -0.646 OA
HETATM   13  O           1     -36.438   0.609 -10.612  0.00  0.00    -0.646 OA
ENDBRANCH   5  11
ENDBRANCH   1   5
BRANCH   3  14
HETATM   14  C           1     -33.811  -4.167 -12.480  0.00  0.00     0.302 C 
BRANCH  14  15
HETATM   15  N           1     -32.420  -4.650 -12.189  0.00  0.00    -0.064 N 
HETATM   16  H           1     -32.360  -4.960 -11.192  0.00  0.00     0.275 HD
HETATM   17  H           1     -32.192  -5.453 -12.817  0.00  0.00     0.275 HD
HETATM   18  H           1     -31.741  -3.873 -12.353  0.00  0.00     0.275 HD
ENDBRANCH  14  15
BRANCH  14  19
HETATM   19  C           1     -34.817  -5.060 -11.766  0.00  0.00     0.153 C 
HETATM   20  C           1     -34.087  -5.949 -10.767  0.00  0.00     0.042 C 
BRANCH  19  21
HETATM   21  O           1     -35.750  -4.263 -11.087  0.00  0.00    -0.393 OA
HETATM   22  H           1     -35.353  -4.015 -10.269  0.00  0.00     0.210 HD
ENDBRANCH  19  21
ENDBRANCH  14  19
ENDBRANCH   3  14
TORSDOF 9
ENDMDL
MODEL 2
REMARK VINA RESULT:      -6.2     11.521     13.200
REMARK  9 active torsions:
REMARK  status: ('A' for Active; 'I' for Inactive)
REMARK    1  A    between atoms: C_2  and  C_19 
REMARK    2  A    between atoms: N_5  and  C_7 
REMARK       I    between atoms: N_5  and  C_15 
REMARK    3  A    between atoms: O_6  and  C_12 
REMARK    4  A    between atoms: C_7  and  C_14 
REMARK    5  A    between atoms: C_7  and  C_18 
REMARK    6  A    between atoms: N_11  and  C_13 
REMARK    7  A    between atoms: C_12  and  C_13 
REMARK    8  A    between atoms: C_13  and  C_15 
REMARK    9  A    between atoms: C_14  and  C_19 
ROOT
HETATM    1  N           1     -22.117  -4.770  -9.345  0.00  0.00    -0.345 N 
HETATM    2  O           1     -21.551  -3.291  -7.770  0.00  0.00    -0.271 OA
HETATM    3  C           1     -21.509  -4.432  -8.165  0.00  0.00     0.251 C 
HETATM    4  H           1     -22.082  -5.726  -9.676  0.00  0.00     0.163 HD
ENDROOT
BRANCH   1   5
HETATM    5  C           1     -22.810  -3.759 -10.119  0.00  0.00     0.186 C 
BRANCH   5   6
HETATM    6  C           1     -22.564  -4.000 -11.603  0.00  0.00     0.046 C 
BRANCH   6   7
HETATM    7  C           1     -22.716  -2.689 -12.362  0.00  0.00     0.116 C 
BRANCH   7   8
HETATM    8  C           1     -23.782  -2.840 -13.419  0.00  0.00     0.172 C 
HETATM    9  O           1     -23.460  -2.959 -14.621  0.00  0.00    -0.648 OA
HETATM   10  O           1     -24.990  -2.846 -13.093  0.00  0.00    -0.648 OA
ENDBRANCH   7   8
ENDBRANCH   6   7
ENDBRANCH   5   6
BRANCH   5  11
HETATM   11  C           1     -24.290  -3.837  -9.836  0.00  0.00     0.196 C 
HETATM   12  O           1     -24.928  -2.799  -9.554  0.00  0.00    -0.646 OA
HETATM   13  O           1     -24.879  -4.939  -9.881  0.00  0.00    -0.646 OA
ENDBRANCH   5  11
ENDBRANCH   1   5
BRANCH   3  14
HETATM   14  C           1     -20.788  -5.483  -7.359  0.00  0.00     0.302 C 
BRANCH  14  15
HETATM   15  N           1     -19.484  -4.929  -6.868  0.00  0.00    -0.064 N 
HETATM   16  H           1     -18.894  -5.705  -6.490  0.00  0.00     0.275 HD
HETATM   17  H           1     -18.983  -4.465  -7.659  0.00  0.00     0.275 HD
HETATM   18  H           1     -19.665  -4.230  -6.112  0.00  0.00     0.275 HD
ENDBRANCH  14  15
BRANCH  14  19
HETATM   19  C           1     -21.647  -5.889  -6.168  0.00  0.00     0.153 C 
HETATM   20  C           1     -20.897  -5.589  -4.877  0.00  0.00     0.042 C 
BRANCH  19  21
HETATM   21  O           1     -22.847  -5.165  -6.189  0.00  0.00    -0.393 OA
HETATM   22  H           1     -23.277  -5.372  -7.002  0.00  0.00     0.210 HD
ENDBRANCH  19  21
ENDBRANCH  14  19
ENDBRANCH   3  14
TORSDOF 9
ENDMDL
MODEL 3
REMARK VINA RESULT:      -5.7      1.832      3.654
REMARK  9 active torsions:
REMARK  status: ('A' for Active; 'I' for Inactive)
REMARK    1  A    between atoms: C_2  and  C_19 
REMARK    2  A    between atoms: N_5  and  C_7 
REMARK       I    between atoms: N_5  and  C_15 
REMARK    3  A    between atoms: O_6  and  C_12 
REMARK    4  A    between atoms: C_7  and  C_14 
REMARK    5  A    between atoms: C_7  and  C_18 
REMARK    6  A    between atoms: N_11  and  C_13 
REMARK    7  A    between atoms: C_12  and  C_13 
REMARK    8  A    between atoms: C_13  and  C_15 
REMARK    9  A    between atoms: C_14  and  C_19 
ROOT
HETATM    1  N           1     -35.062  -1.201 -12.219  0.00  0.00    -0.345 N 
HETATM    2  O           1     -34.479  -2.993 -13.417  0.00  0.00    -0.271 OA
HETATM    3  C           1     -34.358  -2.363 -12.394  0.00  0.00     0.251 C 
HETATM    4  H           1     -34.962  -0.672 -11.363  0.00  0.00     0.163 HD
ENDROOT
BRANCH   1   5
HETATM    5  C           1     -35.952  -0.728 -13.263  0.00  0.00     0.186 C 
BRANCH   5   6
HETATM    6  C           1     -37.121   0.017 -12.633  0.00  0.00     0.046 C 
BRANCH   6   7
HETATM    7  C           1     -37.507  -0.658 -11.324  0.00  0.00     0.116 C 
BRANCH   7   8
HETATM    8  C           1     -37.081   0.211 -10.165  0.00  0.00     0.172 C 
HETATM    9  O           1     -37.735   1.237  -9.879  0.00  0.00    -0.648 OA
HETATM   10  O           1     -36.074  -0.096  -9.491  0.00  0.00    -0.648 OA
ENDBRANCH   7   8
ENDBRANCH   6   7
ENDBRANCH   5   6
BRANCH   5  11
HETATM   11  C           1     -35.198   0.201 -14.182  0.00  0.00     0.196 C 
HETATM   12  O           1     -34.933  -0.156 -15.351  0.00  0.00    -0.646 OA
HETATM   13  O           1     -34.838   1.327 -13.776  0.00  0.00    -0.646 OA
ENDBRANCH   5  11
ENDBRANCH   1   5
BRANCH   3  14
HETATM   14  C           1     -33.433  -2.853 -11.309  0.00  0.00     0.302 C 
BRANCH  14  15
HETATM   15  N           1     -33.556  -1.963 -10.108  0.00  0.00    -0.064 N 
HETATM   16  H           1     -32.741  -2.120  -9.472  0.00  0.00     0.275 HD
HETATM   17  H           1     -33.569  -0.964 -10.415  0.00  0.00     0.275 HD
HETATM   18  H           1     -34.441  -2.184  -9.599  0.00  0.00     0.275 HD
ENDBRANCH  14  15
BRANCH  14  19
HETATM   19  C           1     -33.811  -4.278 -10.924  0.00  0.00     0.153 C 
HETATM   20  C           1     -35.321  -4.375 -10.759  0.00  0.00     0.042 C 
BRANCH  19  21
HETATM   21  O           1     -33.394  -5.160 -11.932  0.00  0.00    -0.393 OA
HETATM   22  H           1     -34.166  -5.414 -12.409  0.00  0.00     0.210 HD
ENDBRANCH  19  21
ENDBRANCH  14  19
ENDBRANCH   3  14
TORSDOF 9
ENDMDL
MODEL 4
REMARK VINA RESULT:      -5.6      2.747      4.864
REMARK  9 active torsions:
REMARK  status: ('A' for Active; 'I' for Inactive)
REMARK    1  A    between atoms: C_2  and  C_19 
REMARK    2  A    between atoms: N_5  and  C_7 
REMARK       I    between atoms: N_5  and  C_15 
REMARK    3  A    between atoms: O_6  and  C_12 
REMARK    4  A    between atoms: C_7  and  C_14 
REMARK    5  A    between atoms: C_7  and  C_18 
REMARK    6  A    between atoms: N_11  and  C_13 
REMARK    7  A    between atoms: C_12  and  C_13 
REMARK    8  A    between atoms: C_13  and  C_15 
REMARK    9  A    between atoms: C_14  and  C_19 
ROOT
HETATM    1  N           1     -35.848  -0.029 -10.533  0.00  0.00    -0.345 N 
HETATM    2  O           1     -38.016   0.502 -10.610  0.00  0.00    -0.271 OA
HETATM    3  C           1     -36.964   0.582 -10.023  0.00  0.00     0.251 C 
HETATM    4  H           1     -34.966   0.037 -10.042  0.00  0.00     0.163 HD
ENDROOT
BRANCH   1   5
HETATM    5  C           1     -35.932  -0.772 -11.776  0.00  0.00     0.186 C 
BRANCH   5   6
HETATM    6  C           1     -35.462   0.109 -12.925  0.00  0.00     0.046 C 
BRANCH   6   7
HETATM    7  C           1     -36.533   0.147 -14.008  0.00  0.00     0.116 C 
BRANCH   7   8
HETATM    8  C           1     -35.983  -0.450 -15.281  0.00  0.00     0.172 C 
HETATM    9  O           1     -36.361  -0.014 -16.390  0.00  0.00    -0.648 OA
HETATM   10  O           1     -35.149  -1.380 -15.226  0.00  0.00    -0.648 OA
ENDBRANCH   7   8
ENDBRANCH   6   7
ENDBRANCH   5   6
BRANCH   5  11
HETATM   11  C           1     -35.056  -1.997 -11.689  0.00  0.00     0.196 C 
HETATM   12  O           1     -35.450  -3.083 -12.167  0.00  0.00    -0.646 OA
HETATM   13  O           1     -33.936  -1.927 -11.139  0.00  0.00    -0.646 OA
ENDBRANCH   5  11
ENDBRANCH   1   5
BRANCH   3  14
HETATM   14  C           1     -36.876   1.354  -8.731  0.00  0.00     0.302 C 
BRANCH  14  15
HETATM   15  N           1     -38.074   2.246  -8.601  0.00  0.00    -0.064 N 
HETATM   16  H           1     -38.763   1.813  -7.944  0.00  0.00     0.275 HD
HETATM   17  H           1     -37.777   3.176  -8.228  0.00  0.00     0.275 HD
HETATM   18  H           1     -38.519   2.371  -9.538  0.00  0.00     0.275 HD
ENDBRANCH  14  15
BRANCH  14  19
HETATM   19  C           1     -36.839   0.381  -7.559  0.00  0.00     0.153 C 
HETATM   20  C           1     -37.299   1.093  -6.294  0.00  0.00     0.042 C 
BRANCH  19  21
HETATM   21  O           1     -37.693  -0.700  -7.822  0.00  0.00    -0.393 OA
HETATM   22  H           1     -37.502  -1.361  -7.178  0.00  0.00     0.210 HD
ENDBRANCH  19  21
ENDBRANCH  14  19
ENDBRANCH   3  14
TORSDOF 9
ENDMDL
MODEL 5
REMARK VINA RESULT:      -5.5     12.370     15.132
REMARK  9 active torsions:
REMARK  status: ('A' for Active; 'I' for Inactive)
REMARK    1  A    between atoms: C_2  and  C_19 
REMARK    2  A    between atoms: N_5  and  C_7 
REMARK       I    between atoms: N_5  and  C_15 
REMARK    3  A    between atoms: O_6  and  C_12 
REMARK    4  A    between atoms: C_7  and  C_14 
REMARK    5  A    between atoms: C_7  and  C_18 
REMARK    6  A    between atoms: N_11  and  C_13 
REMARK    7  A    between atoms: C_12  and  C_13 
REMARK    8  A    between atoms: C_13  and  C_15 
REMARK    9  A    between atoms: C_14  and  C_19 
ROOT
HETATM    1  N           1     -22.226  -5.238  -8.642  0.00  0.00    -0.345 N 
HETATM    2  O           1     -22.989  -3.139  -8.658  0.00  0.00    -0.271 OA
HETATM    3  C           1     -23.100  -4.272  -9.064  0.00  0.00     0.251 C 
HETATM    4  H           1     -22.317  -6.187  -8.981  0.00  0.00     0.163 HD
ENDROOT
BRANCH   1   5
HETATM    5  C           1     -21.168  -4.901  -7.707  0.00  0.00     0.186 C 
BRANCH   5   6
HETATM    6  C           1     -20.953  -6.062  -6.746  0.00  0.00     0.046 C 
BRANCH   6   7
HETATM    7  C           1     -20.942  -5.542  -5.315  0.00  0.00     0.116 C 
BRANCH   7   8
HETATM    8  C           1     -21.773  -6.451  -4.442  0.00  0.00     0.172 C 
HETATM    9  O           1     -22.082  -7.593  -4.845  0.00  0.00    -0.648 OA
HETATM   10  O           1     -22.152  -6.062  -3.316  0.00  0.00    -0.648 OA
ENDBRANCH   7   8
ENDBRANCH   6   7
ENDBRANCH   5   6
BRANCH   5  11
HETATM   11  C           1     -19.893  -4.633  -8.468  0.00  0.00     0.196 C 
HETATM   12  O           1     -19.857  -4.803  -9.706  0.00  0.00    -0.646 OA
HETATM   13  O           1     -18.873  -4.241  -7.862  0.00  0.00    -0.646 OA
ENDBRANCH   5  11
ENDBRANCH   1   5
BRANCH   3  14
HETATM   14  C           1     -24.199  -4.622 -10.036  0.00  0.00     0.302 C 
BRANCH  14  15
HETATM   15  N           1     -25.377  -3.723  -9.802  0.00  0.00    -0.064 N 
HETATM   16  H           1     -26.070  -4.209  -9.188  0.00  0.00     0.275 HD
HETATM   17  H           1     -25.057  -2.844  -9.337  0.00  0.00     0.275 HD
HETATM   18  H           1     -25.825  -3.492 -10.717  0.00  0.00     0.275 HD
ENDBRANCH  14  15
BRANCH  14  19
HETATM   19  C           1     -23.695  -4.437 -11.461  0.00  0.00     0.153 C 
HETATM   20  C           1     -24.279  -3.157 -12.043  0.00  0.00     0.042 C 
BRANCH  19  21
HETATM   21  O           1     -22.295  -4.350 -11.455  0.00  0.00    -0.393 OA
HETATM   22  H           1     -21.992  -4.882 -10.740  0.00  0.00     0.210 HD
ENDBRANCH  19  21
ENDBRANCH  14  19
ENDBRANCH   3  14
TORSDOF 9
ENDMDL
MODEL 6
REMARK VINA RESULT:      -5.3     12.197     14.134
REMARK  9 active torsions:
REMARK  status: ('A' for Active; 'I' for Inactive)
REMARK    1  A    between atoms: C_2  and  C_19 
REMARK    2  A    between atoms: N_5  and  C_7 
REMARK       I    between atoms: N_5  and  C_15 
REMARK    3  A    between atoms: O_6  and  C_12 
REMARK    4  A    between atoms: C_7  and  C_14 
REMARK    5  A    between atoms: C_7  and  C_18 
REMARK    6  A    between atoms: N_11  and  C_13 
REMARK    7  A    between atoms: C_12  and  C_13 
REMARK    8  A    between atoms: C_13  and  C_15 
REMARK    9  A    between atoms: C_14  and  C_19 
ROOT
HETATM    1  N           1     -22.552  -4.679  -9.169  0.00  0.00    -0.345 N 
HETATM    2  O           1     -22.132  -3.559  -7.282  0.00  0.00    -0.271 OA
HETATM    3  C           1     -22.009  -4.581  -7.915  0.00  0.00     0.251 C 
HETATM    4  H           1     -22.450  -5.534  -9.700  0.00  0.00     0.163 HD
ENDROOT
BRANCH   1   5
HETATM    5  C           1     -23.274  -3.555  -9.737  0.00  0.00     0.186 C 
BRANCH   5   6
HETATM    6  C           1     -22.801  -3.319 -11.165  0.00  0.00     0.046 C 
BRANCH   6   7
HETATM    7  C           1     -21.819  -4.412 -11.563  0.00  0.00     0.116 C 
BRANCH   7   8
HETATM    8  C           1     -20.422  -4.005 -11.161  0.00  0.00     0.172 C 
HETATM    9  O           1     -20.071  -2.808 -11.246  0.00  0.00    -0.648 OA
HETATM   10  O           1     -19.615  -4.865 -10.744  0.00  0.00    -0.648 OA
ENDBRANCH   7   8
ENDBRANCH   6   7
ENDBRANCH   5   6
BRANCH   5  11
HETATM   11  C           1     -24.752  -3.858  -9.738  0.00  0.00     0.196 C 
HETATM   12  O           1     -25.147  -5.043  -9.676  0.00  0.00    -0.646 OA
HETATM   13  O           1     -25.582  -2.926  -9.803  0.00  0.00    -0.646 OA
ENDBRANCH   5  11
ENDBRANCH   1   5
BRANCH   3  14
HETATM   14  C           1     -21.259  -5.749  -7.325  0.00  0.00     0.302 C 
BRANCH  14  15
HETATM   15  N           1     -19.881  -5.806  -7.915  0.00  0.00    -0.064 N 
HETATM   16  H           1     -19.940  -5.684  -8.952  0.00  0.00     0.275 HD
HETATM   17  H           1     -19.296  -5.042  -7.508  0.00  0.00     0.275 HD
HETATM   18  H           1     -19.448  -6.732  -7.699  0.00  0.00     0.275 HD
ENDBRANCH  14  15
BRANCH  14  19
HETATM   19  C           1     -21.158  -5.578  -5.815  0.00  0.00     0.153 C 
HETATM   20  C           1     -20.829  -6.919  -5.174  0.00  0.00     0.042 C 
BRANCH  19  21
HETATM   21  O           1     -20.143  -4.657  -5.517  0.00  0.00    -0.393 OA
HETATM   22  H           1     -20.358  -3.858  -5.968  0.00  0.00     0.210 HD
ENDBRANCH  19  21
ENDBRANCH  14  19
ENDBRANCH   3  14
TORSDOF 9
ENDMDL
MODEL 7
REMARK VINA RESULT:      -5.0     15.311     17.476
REMARK  9 active torsions:
REMARK  status: ('A' for Active; 'I' for Inactive)
REMARK    1  A    between atoms: C_2  and  C_19 
REMARK    2  A    between atoms: N_5  and  C_7 
REMARK       I    between atoms: N_5  and  C_15 
REMARK    3  A    between atoms: O_6  and  C_12 
REMARK    4  A    between atoms: C_7  and  C_14 
REMARK    5  A    between atoms: C_7  and  C_18 
REMARK    6  A    between atoms: N_11  and  C_13 
REMARK    7  A    between atoms: C_12  and  C_13 
REMARK    8  A    between atoms: C_13  and  C_15 
REMARK    9  A    between atoms: C_14  and  C_19 
ROOT
HETATM    1  N           1     -20.976  -6.767  -6.262  0.00  0.00    -0.345 N 
HETATM    2  O           1     -20.704  -4.595  -5.818  0.00  0.00    -0.271 OA
HETATM    3  C           1     -21.034  -5.444  -6.612  0.00  0.00     0.251 C 
HETATM    4  H           1     -21.251  -7.479  -6.926  0.00  0.00     0.163 HD
ENDROOT
BRANCH   1   5
HETATM    5  C           1     -20.517  -7.148  -4.939  0.00  0.00     0.186 C 
BRANCH   5   6
HETATM    6  C           1     -21.720  -7.422  -4.046  0.00  0.00     0.046 C 
BRANCH   6   7
HETATM    7  C           1     -21.788  -6.369  -2.949  0.00  0.00     0.116 C 
BRANCH   7   8
HETATM    8  C           1     -21.806  -7.048  -1.600  0.00  0.00     0.172 C 
HETATM    9  O           1     -20.883  -7.829  -1.281  0.00  0.00    -0.648 OA
HETATM   10  O           1     -22.743  -6.828  -0.802  0.00  0.00    -0.648 OA
ENDBRANCH   7   8
ENDBRANCH   6   7
ENDBRANCH   5   6
BRANCH   5  11
HETATM   11  C           1     -19.671  -8.393  -5.041  0.00  0.00     0.196 C 
HETATM   12  O           1     -19.639  -9.206  -4.092  0.00  0.00    -0.646 OA
HETATM   13  O           1     -19.000  -8.612  -6.073  0.00  0.00    -0.646 OA
ENDBRANCH   5  11
ENDBRANCH   1   5
BRANCH   3  14
HETATM   14  C           1     -21.510  -5.048  -7.987  0.00  0.00     0.302 C 
BRANCH  14  15
HETATM   15  N           1     -22.372  -3.825  -7.884  0.00  0.00    -0.064 N 
HETATM   16  H           1     -22.099  -3.141  -8.626  0.00  0.00     0.275 HD
HETATM   17  H           1     -23.374  -4.093  -8.010  0.00  0.00     0.275 HD
HETATM   18  H           1     -22.243  -3.386  -6.944  0.00  0.00     0.275 HD
ENDBRANCH  14  15
BRANCH  14  19
HETATM   19  C           1     -20.309  -4.749  -8.874  0.00  0.00     0.153 C 
HETATM   20  C           1     -20.785  -4.118 -10.176  0.00  0.00     0.042 C 
BRANCH  19  21
HETATM   21  O           1     -19.449  -3.860  -8.213  0.00  0.00    -0.393 OA
HETATM   22  H           1     -19.940  -3.483  -7.503  0.00  0.00     0.210 HD
ENDBRANCH  19  21
ENDBRANCH  14  19
ENDBRANCH   3  14
TORSDOF 9
ENDMDL
MODEL 8
REMARK VINA RESULT:      -4.8     16.222     18.198
REMARK  9 active torsions:
REMARK  status: ('A' for Active; 'I' for Inactive)
REMARK    1  A    between atoms: C_2  and  C_19 
REMARK    2  A    between atoms: N_5  and  C_7 
REMARK       I    between atoms: N_5  and  C_15 
REMARK    3  A    between atoms: O_6  and  C_12 
REMARK    4  A    between atoms: C_7  and  C_14 
REMARK    5  A    between atoms: C_7  and  C_18 
REMARK    6  A    between atoms: N_11  and  C_13 
REMARK    7  A    between atoms: C_12  and  C_13 
REMARK    8  A    between atoms: C_13  and  C_15 
REMARK    9  A    between atoms: C_14  and  C_19 
ROOT
HETATM    1  N           1     -21.918  -9.190  -1.936  0.00  0.00    -0.345 N 
HETATM    2  O           1     -20.730 -10.080  -0.268  0.00  0.00    -0.271 OA
HETATM    3  C           1     -21.570 -10.235  -1.122  0.00  0.00     0.251 C 
HETATM    4  H           1     -22.621  -9.318  -2.652  0.00  0.00     0.163 HD
ENDROOT
BRANCH   1   5
HETATM    5  C           1     -21.278  -7.898  -1.772  0.00  0.00     0.186 C 
BRANCH   5   6
HETATM    6  C           1     -20.743  -7.423  -3.117  0.00  0.00     0.046 C 
BRANCH   6   7
HETATM    7  C           1     -21.540  -8.075  -4.239  0.00  0.00     0.116 C 
BRANCH   7   8
HETATM    8  C           1     -21.785  -7.066  -5.334  0.00  0.00     0.172 C 
HETATM    9  O           1     -21.180  -7.165  -6.423  0.00  0.00    -0.648 OA
HETATM   10  O           1     -22.594  -6.130  -5.152  0.00  0.00    -0.648 OA
ENDBRANCH   7   8
ENDBRANCH   6   7
ENDBRANCH   5   6
BRANCH   5  11
HETATM   11  C           1     -22.284  -6.903  -1.249  0.00  0.00     0.196 C 
HETATM   12  O           1     -23.017  -7.205  -0.282  0.00  0.00    -0.646 OA
HETATM   13  O           1     -22.385  -5.777  -1.782  0.00  0.00    -0.646 OA
ENDBRANCH   5  11
ENDBRANCH   1   5
BRANCH   3  14
HETATM   14  C           1     -22.235 -11.577  -1.293  0.00  0.00     0.302 C 
BRANCH  14  15
HETATM   15  N           1     -21.350 -12.649  -0.729  0.00  0.00    -0.064 N 
HETATM   16  H           1     -21.726 -13.588  -0.992  0.00  0.00     0.275 HD
HETATM   17  H           1     -20.385 -12.542  -1.115  0.00  0.00     0.275 HD
HETATM   18  H           1     -21.321 -12.565   0.312  0.00  0.00     0.275 HD
ENDBRANCH  14  15
BRANCH  14  19
HETATM   19  C           1     -23.568 -11.581  -0.556  0.00  0.00     0.153 C 
HETATM   20  C           1     -23.489 -12.534   0.630  0.00  0.00     0.042 C 
BRANCH  19  21
HETATM   21  O           1     -23.852 -10.287  -0.095  0.00  0.00    -0.393 OA
HETATM   22  H           1     -23.038  -9.919   0.204  0.00  0.00     0.210 HD
ENDBRANCH  19  21
ENDBRANCH  14  19
ENDBRANCH   3  14
TORSDOF 9
ENDMDL
MODEL 9
REMARK VINA RESULT:      -4.8      9.000     10.776
REMARK  9 active torsions:
REMARK  status: ('A' for Active; 'I' for Inactive)
REMARK    1  A    between atoms: C_2  and  C_19 
REMARK    2  A    between atoms: N_5  and  C_7 
REMARK       I    between atoms: N_5  and  C_15 
REMARK    3  A    between atoms: O_6  and  C_12 
REMARK    4  A    between atoms: C_7  and  C_14 
REMARK    5  A    between atoms: C_7  and  C_18 
REMARK    6  A    between atoms: N_11  and  C_13 
REMARK    7  A    between atoms: C_12  and  C_13 
REMARK    8  A    between atoms: C_13  and  C_15 
REMARK    9  A    between atoms: C_14  and  C_19 
ROOT
HETATM    1  N           1     -28.662  -6.112 -17.865  0.00  0.00    -0.345 N 
HETATM    2  O           1     -29.738  -8.061 -17.687  0.00  0.00    -0.271 OA
HETATM    3  C           1     -29.807  -6.858 -17.775  0.00  0.00     0.251 C 
HETATM    4  H           1     -28.719  -5.104 -17.939  0.00  0.00     0.163 HD
ENDROOT
BRANCH   1   5
HETATM    5  C           1     -27.367  -6.766 -17.856  0.00  0.00     0.186 C 
BRANCH   5   6
HETATM    6  C           1     -26.492  -6.171 -18.951  0.00  0.00     0.046 C 
BRANCH   6   7
HETATM    7  C           1     -26.726  -6.924 -20.254  0.00  0.00     0.116 C 
BRANCH   7   8
HETATM    8  C           1     -25.465  -7.653 -20.648  0.00  0.00     0.172 C 
HETATM    9  O           1     -24.473  -7.644 -19.887  0.00  0.00    -0.648 OA
HETATM   10  O           1     -25.411  -8.267 -21.737  0.00  0.00    -0.648 OA
ENDBRANCH   7   8
ENDBRANCH   6   7
ENDBRANCH   5   6
BRANCH   5  11
HETATM   11  C           1     -26.709  -6.556 -16.515  0.00  0.00     0.196 C 
HETATM   12  O           1     -25.810  -5.697 -16.388  0.00  0.00    -0.646 OA
HETATM   13  O           1     -27.061  -7.241 -15.531  0.00  0.00    -0.646 OA
ENDBRANCH   5  11
ENDBRANCH   1   5
BRANCH   3  14
HETATM   14  C           1     -31.153  -6.178 -17.784  0.00  0.00     0.302 C 
BRANCH  14  15
HETATM   15  N           1     -32.196  -7.129 -17.276  0.00  0.00    -0.064 N 
HETATM   16  H           1     -31.991  -8.092 -17.626  0.00  0.00     0.275 HD
HETATM   17  H           1     -32.187  -7.130 -16.231  0.00  0.00     0.275 HD
HETATM   18  H           1     -33.137  -6.829 -17.617  0.00  0.00     0.275 HD
ENDBRANCH  14  15
BRANCH  14  19
HETATM   19  C           1     -31.108  -4.948 -16.886  0.00  0.00     0.153 C 
HETATM   20  C           1     -32.520  -4.413 -16.687  0.00  0.00     0.042 C 
BRANCH  19  21
HETATM   21  O           1     -30.562  -5.298 -15.642  0.00  0.00    -0.393 OA
HETATM   22  H           1     -29.839  -5.878 -15.814  0.00  0.00     0.210 HD
ENDBRANCH  19  21
ENDBRANCH  14  19
ENDBRANCH   3  14
TORSDOF 9
ENDMDL
