MODEL 1
REMARK VINA RESULT:      -6.1      0.000      0.000
REMARK  8 active torsions:
REMARK  status: ('A' for Active; 'I' for Inactive)
REMARK    1  A    between atoms: C_2  and  C_6 
REMARK    2  A    between atoms: C_4  and  C_5 
REMARK    3  A    between atoms: C_5  and  C_6 
REMARK    4  A    between atoms: C_6  and  N_10 
REMARK       I    between atoms: N_10  and  C_11 
REMARK    5  A    between atoms: C_11  and  C_18 
REMARK    6  A    between atoms: N_16  and  C_18 
REMARK    7  A    between atoms: C_18  and  C_24 
REMARK    8  A    between atoms: C_23  and  C_24 
ROOT
HETATM    1  N           1     -19.682  -8.212  -4.595  0.00  0.00    -0.344 N 
HETATM    2  C           1     -19.318  -9.522  -4.759  0.00  0.00     0.249 C 
HETATM    3  O           1     -19.467 -10.061  -5.830  0.00  0.00    -0.271 OA
HETATM    4  H           1     -19.013  -7.475  -4.775  0.00  0.00     0.163 HD
ENDROOT
BRANCH   1   5
HETATM    5  C           1     -21.027  -7.883  -4.165  0.00  0.00     0.189 C 
BRANCH   5   6
HETATM    6  C           1     -21.704  -7.050  -5.227  0.00  0.00     0.197 C 
HETATM    7  O           1     -22.673  -6.321  -4.926  0.00  0.00    -0.646 OA
HETATM    8  O           1     -21.294  -7.090  -6.407  0.00  0.00    -0.646 OA
ENDBRANCH   5   6
BRANCH   5   9
HETATM    9  C           1     -20.964  -7.094  -2.864  0.00  0.00     0.074 C 
BRANCH   9  10
HETATM   10  C           1     -21.713  -7.830  -1.797  0.00  0.00    -0.056 A 
HETATM   11  C           1     -22.292  -7.129  -0.740  0.00  0.00     0.007 A 
HETATM   12  C           1     -22.990  -7.817   0.254  0.00  0.00     0.001 A 
HETATM   13  C           1     -23.108  -9.205   0.190  0.00  0.00     0.000 A 
HETATM   14  C           1     -22.528  -9.906  -0.867  0.00  0.00     0.001 A 
HETATM   15  C           1     -21.830  -9.219  -1.861  0.00  0.00     0.007 A 
ENDBRANCH   9  10
ENDBRANCH   5   9
ENDBRANCH   1   5
BRANCH   2  16
HETATM   16  C           1     -18.729 -10.292  -3.602  0.00  0.00     0.284 C 
BRANCH  16  17
HETATM   17  N           1     -17.962 -11.470  -4.126  0.00  0.00    -0.066 N 
HETATM   18  H           1     -16.955 -11.375  -3.863  0.00  0.00     0.275 HD
HETATM   19  H           1     -18.348 -12.348  -3.712  0.00  0.00     0.275 HD
HETATM   20  H           1     -18.048 -11.506  -5.167  0.00  0.00     0.275 HD
ENDBRANCH  16  17
BRANCH  16  21
HETATM   21  C           1     -17.791  -9.387  -2.815  0.00  0.00     0.155 C 
BRANCH  21  22
HETATM   22  C           1     -16.361  -9.777  -3.092  0.00  0.00     0.175 C 
HETATM   23  O           1     -15.711 -10.419  -2.239  0.00  0.00    -0.648 OA
HETATM   24  O           1     -15.825  -9.461  -4.177  0.00  0.00    -0.648 OA
ENDBRANCH  21  22
ENDBRANCH  16  21
ENDBRANCH   2  16
TORSDOF 8
ENDMDL
MODEL 2
REMARK VINA RESULT:      -6.1      4.537      7.746
REMARK  8 active torsions:
REMARK  status: ('A' for Active; 'I' for Inactive)
REMARK    1  A    between atoms: C_2  and  C_6 
REMARK    2  A    between atoms: C_4  and  C_5 
REMARK    3  A    between atoms: C_5  and  C_6 
REMARK    4  A    between atoms: C_6  and  N_10 
REMARK       I    between atoms: N_10  and  C_11 
REMARK    5  A    between atoms: C_11  and  C_18 
REMARK    6  A    between atoms: N_16  and  C_18 
REMARK    7  A    between atoms: C_18  and  C_24 
REMARK    8  A    between atoms: C_23  and  C_24 
ROOT
HETATM    1  N           1     -21.828  -3.728  -7.333  0.00  0.00    -0.344 N 
HETATM    2  C           1     -23.046  -4.221  -7.718  0.00  0.00     0.249 C 
HETATM    3  O           1     -23.907  -4.417  -6.893  0.00  0.00    -0.271 OA
HETATM    4  H           1     -21.672  -2.729  -7.303  0.00  0.00     0.163 HD
ENDROOT
BRANCH   1   5
HETATM    5  C           1     -20.761  -4.640  -6.967  0.00  0.00     0.189 C 
BRANCH   5   6
HETATM    6  C           1     -19.610  -4.477  -7.929  0.00  0.00     0.197 C 
HETATM    7  O           1     -18.462  -4.236  -7.496  0.00  0.00    -0.646 OA
HETATM    8  O           1     -19.804  -4.581  -9.159  0.00  0.00    -0.646 OA
ENDBRANCH   5   6
BRANCH   5   9
HETATM    9  C           1     -21.275  -6.073  -7.029  0.00  0.00     0.074 C 
BRANCH   9  10
HETATM   10  C           1     -21.303  -6.653  -5.649  0.00  0.00    -0.056 A 
HETATM   11  C           1     -21.394  -8.033  -5.474  0.00  0.00     0.007 A 
HETATM   12  C           1     -21.421  -8.573  -4.187  0.00  0.00     0.001 A 
HETATM   13  C           1     -21.356  -7.731  -3.077  0.00  0.00     0.000 A 
HETATM   14  C           1     -21.265  -6.351  -3.252  0.00  0.00     0.001 A 
HETATM   15  C           1     -21.239  -5.811  -4.538  0.00  0.00     0.007 A 
ENDBRANCH   9  10
ENDBRANCH   5   9
ENDBRANCH   1   5
BRANCH   2  16
HETATM   16  C           1     -23.314  -4.518  -9.174  0.00  0.00     0.284 C 
BRANCH  16  17
HETATM   17  N           1     -24.792  -4.643  -9.393  0.00  0.00    -0.066 N 
HETATM   18  H           1     -25.079  -4.035 -10.193  0.00  0.00     0.275 HD
HETATM   19  H           1     -25.029  -5.637  -9.610  0.00  0.00     0.275 HD
HETATM   20  H           1     -25.300  -4.343  -8.529  0.00  0.00     0.275 HD
ENDBRANCH  16  17
BRANCH  16  21
HETATM   21  C           1     -22.769  -3.383 -10.032  0.00  0.00     0.155 C 
BRANCH  21  22
HETATM   22  C           1     -23.424  -3.418 -11.390  0.00  0.00     0.175 C 
HETATM   23  O           1     -24.540  -2.882 -11.560  0.00  0.00    -0.648 OA
HETATM   24  O           1     -22.850  -3.981 -12.347  0.00  0.00    -0.648 OA
ENDBRANCH  21  22
ENDBRANCH  16  21
ENDBRANCH   2  16
TORSDOF 8
ENDMDL
MODEL 3
REMARK VINA RESULT:      -6.1      3.359      5.106
REMARK  8 active torsions:
REMARK  status: ('A' for Active; 'I' for Inactive)
REMARK    1  A    between atoms: C_2  and  C_6 
REMARK    2  A    between atoms: C_4  and  C_5 
REMARK    3  A    between atoms: C_5  and  C_6 
REMARK    4  A    between atoms: C_6  and  N_10 
REMARK       I    between atoms: N_10  and  C_11 
REMARK    5  A    between atoms: C_11  and  C_18 
REMARK    6  A    between atoms: N_16  and  C_18 
REMARK    7  A    between atoms: C_18  and  C_24 
REMARK    8  A    between atoms: C_23  and  C_24 
ROOT
HETATM    1  N           1     -21.049  -7.633  -1.870  0.00  0.00    -0.344 N 
HETATM    2  C           1     -21.668  -6.799  -2.763  0.00  0.00     0.249 C 
HETATM    3  O           1     -22.078  -5.722  -2.399  0.00  0.00    -0.271 OA
HETATM    4  H           1     -20.047  -7.580  -1.738  0.00  0.00     0.163 HD
ENDROOT
BRANCH   1   5
HETATM    5  C           1     -21.831  -8.592  -1.114  0.00  0.00     0.189 C 
BRANCH   5   6
HETATM    6  C           1     -22.309  -7.952   0.166  0.00  0.00     0.197 C 
HETATM    7  O           1     -21.561  -7.919   1.166  0.00  0.00    -0.646 OA
HETATM    8  O           1     -23.455  -7.455   0.225  0.00  0.00    -0.646 OA
ENDBRANCH   5   6
BRANCH   5   9
HETATM    9  C           1     -20.967  -9.803  -0.785  0.00  0.00     0.074 C 
BRANCH   9  10
HETATM   10  C           1     -21.842 -10.933  -0.340  0.00  0.00    -0.056 A 
HETATM   11  C           1     -23.085 -11.132  -0.941  0.00  0.00     0.007 A 
HETATM   12  C           1     -23.900 -12.186  -0.525  0.00  0.00     0.001 A 
HETATM   13  C           1     -23.471 -13.040   0.491  0.00  0.00     0.000 A 
HETATM   14  C           1     -22.229 -12.840   1.092  0.00  0.00     0.001 A 
HETATM   15  C           1     -21.414 -11.787   0.677  0.00  0.00     0.007 A 
ENDBRANCH   9  10
ENDBRANCH   5   9
ENDBRANCH   1   5
BRANCH   2  16
HETATM   16  C           1     -21.836  -7.224  -4.201  0.00  0.00     0.284 C 
BRANCH  16  17
HETATM   17  N           1     -22.702  -6.229  -4.916  0.00  0.00    -0.066 N 
HETATM   18  H           1     -23.300  -5.726  -4.223  0.00  0.00     0.275 HD
HETATM   19  H           1     -22.098  -5.540  -5.418  0.00  0.00     0.275 HD
HETATM   20  H           1     -23.311  -6.727  -5.604  0.00  0.00     0.275 HD
ENDBRANCH  16  17
BRANCH  16  21
HETATM   21  C           1     -20.472  -7.285  -4.876  0.00  0.00     0.155 C 
BRANCH  21  22
HETATM   22  C           1     -20.378  -6.206  -5.925  0.00  0.00     0.175 C 
HETATM   23  O           1     -20.636  -6.471  -7.119  0.00  0.00    -0.648 OA
HETATM   24  O           1     -20.044  -5.046  -5.601  0.00  0.00    -0.648 OA
ENDBRANCH  21  22
ENDBRANCH  16  21
ENDBRANCH   2  16
TORSDOF 8
ENDMDL
MODEL 4
REMARK VINA RESULT:      -5.9      2.822      5.901
REMARK  8 active torsions:
REMARK  status: ('A' for Active; 'I' for Inactive)
REMARK    1  A    between atoms: C_2  and  C_6 
REMARK    2  A    between atoms: C_4  and  C_5 
REMARK    3  A    between atoms: C_5  and  C_6 
REMARK    4  A    between atoms: C_6  and  N_10 
REMARK       I    between atoms: N_10  and  C_11 
REMARK    5  A    between atoms: C_11  and  C_18 
REMARK    6  A    between atoms: N_16  and  C_18 
REMARK    7  A    between atoms: C_18  and  C_24 
REMARK    8  A    between atoms: C_23  and  C_24 
ROOT
HETATM    1  N           1     -20.045  -6.879  -6.539  0.00  0.00    -0.344 N 
HETATM    2  C           1     -20.183  -5.530  -6.727  0.00  0.00     0.249 C 
HETATM    3  O           1     -19.211  -4.813  -6.695  0.00  0.00    -0.271 OA
HETATM    4  H           1     -19.884  -7.487  -7.331  0.00  0.00     0.163 HD
ENDROOT
BRANCH   1   5
HETATM    5  C           1     -20.129  -7.436  -5.202  0.00  0.00     0.189 C 
BRANCH   5   6
HETATM    6  C           1     -19.380  -8.746  -5.156  0.00  0.00     0.197 C 
HETATM    7  O           1     -19.681  -9.667  -5.945  0.00  0.00    -0.646 OA
HETATM    8  O           1     -18.457  -8.908  -4.328  0.00  0.00    -0.646 OA
ENDBRANCH   5   6
BRANCH   5   9
HETATM    9  C           1     -21.590  -7.675  -4.843  0.00  0.00     0.074 C 
BRANCH   9  10
HETATM   10  C           1     -21.765  -7.561  -3.361  0.00  0.00    -0.056 A 
HETATM   11  C           1     -21.982  -6.313  -2.778  0.00  0.00     0.007 A 
HETATM   12  C           1     -22.144  -6.208  -1.395  0.00  0.00     0.001 A 
HETATM   13  C           1     -22.089  -7.351  -0.598  0.00  0.00     0.000 A 
HETATM   14  C           1     -21.870  -8.598  -1.181  0.00  0.00     0.001 A 
HETATM   15  C           1     -21.708  -8.704  -2.563  0.00  0.00     0.007 A 
ENDBRANCH   9  10
ENDBRANCH   5   9
ENDBRANCH   1   5
BRANCH   2  16
HETATM   16  C           1     -21.550  -4.939  -6.977  0.00  0.00     0.284 C 
BRANCH  16  17
HETATM   17  N           1     -21.471  -3.444  -6.881  0.00  0.00    -0.066 N 
HETATM   18  H           1     -20.977  -3.178  -5.999  0.00  0.00     0.275 HD
HETATM   19  H           1     -20.942  -3.071  -7.701  0.00  0.00     0.275 HD
HETATM   20  H           1     -22.436  -3.043  -6.873  0.00  0.00     0.275 HD
ENDBRANCH  16  17
BRANCH  16  21
HETATM   21  C           1     -22.027  -5.333  -8.368  0.00  0.00     0.155 C 
BRANCH  21  22
HETATM   22  C           1     -22.704  -4.155  -9.022  0.00  0.00     0.175 C 
HETATM   23  O           1     -22.082  -3.457  -9.851  0.00  0.00    -0.648 OA
HETATM   24  O           1     -23.889  -3.877  -8.737  0.00  0.00    -0.648 OA
ENDBRANCH  21  22
ENDBRANCH  16  21
ENDBRANCH   2  16
TORSDOF 8
ENDMDL
MODEL 5
REMARK VINA RESULT:      -5.8      3.384      6.237
REMARK  8 active torsions:
REMARK  status: ('A' for Active; 'I' for Inactive)
REMARK    1  A    between atoms: C_2  and  C_6 
REMARK    2  A    between atoms: C_4  and  C_5 
REMARK    3  A    between atoms: C_5  and  C_6 
REMARK    4  A    between atoms: C_6  and  N_10 
REMARK       I    between atoms: N_10  and  C_11 
REMARK    5  A    between atoms: C_11  and  C_18 
REMARK    6  A    between atoms: N_16  and  C_18 
REMARK    7  A    between atoms: C_18  and  C_24 
REMARK    8  A    between atoms: C_23  and  C_24 
ROOT
HETATM    1  N           1     -20.716  -6.236  -3.538  0.00  0.00    -0.344 N 
HETATM    2  C           1     -20.830  -7.446  -2.907  0.00  0.00     0.249 C 
HETATM    3  O           1     -19.900  -8.217  -2.905  0.00  0.00    -0.271 OA
HETATM    4  H           1     -20.377  -5.430  -3.029  0.00  0.00     0.163 HD
ENDROOT
BRANCH   1   5
HETATM    5  C           1     -21.081  -6.111  -4.936  0.00  0.00     0.189 C 
BRANCH   5   6
HETATM    6  C           1     -20.627  -7.341  -5.685  0.00  0.00     0.197 C 
HETATM    7  O           1     -19.426  -7.472  -6.002  0.00  0.00    -0.646 OA
HETATM    8  O           1     -21.454  -8.228  -5.987  0.00  0.00    -0.646 OA
ENDBRANCH   5   6
BRANCH   5   9
HETATM    9  C           1     -20.409  -4.879  -5.528  0.00  0.00     0.074 C 
BRANCH   9  10
HETATM   10  C           1     -20.954  -4.623  -6.898  0.00  0.00    -0.056 A 
HETATM   11  C           1     -22.326  -4.454  -7.082  0.00  0.00     0.007 A 
HETATM   12  C           1     -22.834  -4.216  -8.360  0.00  0.00     0.001 A 
HETATM   13  C           1     -21.969  -4.147  -9.453  0.00  0.00     0.000 A 
HETATM   14  C           1     -20.598  -4.317  -9.268  0.00  0.00     0.001 A 
HETATM   15  C           1     -20.089  -4.555  -7.990  0.00  0.00     0.007 A 
ENDBRANCH   9  10
ENDBRANCH   5   9
ENDBRANCH   1   5
BRANCH   2  16
HETATM   16  C           1     -22.118  -7.816  -2.212  0.00  0.00     0.284 C 
BRANCH  16  17
HETATM   17  N           1     -22.059  -9.253  -1.786  0.00  0.00    -0.066 N 
HETATM   18  H           1     -22.801  -9.795  -2.285  0.00  0.00     0.275 HD
HETATM   19  H           1     -21.122  -9.648  -2.024  0.00  0.00     0.275 HD
HETATM   20  H           1     -22.215  -9.319  -0.755  0.00  0.00     0.275 HD
ENDBRANCH  16  17
BRANCH  16  21
HETATM   21  C           1     -22.305  -6.932  -0.986  0.00  0.00     0.155 C 
BRANCH  21  22
HETATM   22  C           1     -22.384  -7.792   0.250  0.00  0.00     0.175 C 
HETATM   23  O           1     -21.337  -8.160   0.824  0.00  0.00    -0.648 OA
HETATM   24  O           1     -23.498  -8.136   0.703  0.00  0.00    -0.648 OA
ENDBRANCH  21  22
ENDBRANCH  16  21
ENDBRANCH   2  16
TORSDOF 8
ENDMDL
MODEL 6
REMARK VINA RESULT:      -5.6      1.283      2.100
REMARK  8 active torsions:
REMARK  status: ('A' for Active; 'I' for Inactive)
REMARK    1  A    between atoms: C_2  and  C_6 
REMARK    2  A    between atoms: C_4  and  C_5 
REMARK    3  A    between atoms: C_5  and  C_6 
REMARK    4  A    between atoms: C_6  and  N_10 
REMARK       I    between atoms: N_10  and  C_11 
REMARK    5  A    between atoms: C_11  and  C_18 
REMARK    6  A    between atoms: N_16  and  C_18 
REMARK    7  A    between atoms: C_18  and  C_24 
REMARK    8  A    between atoms: C_23  and  C_24 
ROOT
HETATM    1  N           1     -19.999  -7.905  -3.738  0.00  0.00    -0.344 N 
HETATM    2  C           1     -19.573  -8.979  -4.473  0.00  0.00     0.249 C 
HETATM    3  O           1     -19.768  -9.010  -5.665  0.00  0.00    -0.271 OA
HETATM    4  H           1     -19.387  -7.110  -3.602  0.00  0.00     0.163 HD
ENDROOT
BRANCH   1   5
HETATM    5  C           1     -21.326  -7.907  -3.153  0.00  0.00     0.189 C 
BRANCH   5   6
HETATM    6  C           1     -21.935  -6.532  -3.285  0.00  0.00     0.197 C 
HETATM    7  O           1     -21.987  -5.976  -4.403  0.00  0.00    -0.646 OA
HETATM    8  O           1     -22.386  -5.950  -2.275  0.00  0.00    -0.646 OA
ENDBRANCH   5   6
BRANCH   5   9
HETATM    9  C           1     -21.231  -8.282  -1.680  0.00  0.00     0.074 C 
BRANCH   9  10
HETATM   10  C           1     -22.182  -9.400  -1.387  0.00  0.00    -0.056 A 
HETATM   11  C           1     -22.305 -10.463  -2.281  0.00  0.00     0.007 A 
HETATM   12  C           1     -23.192 -11.505  -2.008  0.00  0.00     0.001 A 
HETATM   13  C           1     -23.955 -11.483  -0.840  0.00  0.00     0.000 A 
HETATM   14  C           1     -23.833 -10.419   0.053  0.00  0.00     0.001 A 
HETATM   15  C           1     -22.946  -9.377  -0.220  0.00  0.00     0.007 A 
ENDBRANCH   9  10
ENDBRANCH   5   9
ENDBRANCH   1   5
BRANCH   2  16
HETATM   16  C           1     -18.860 -10.123  -3.794  0.00  0.00     0.284 C 
BRANCH  16  17
HETATM   17  N           1     -18.072 -10.892  -4.813  0.00  0.00    -0.066 N 
HETATM   18  H           1     -18.497 -10.756  -5.758  0.00  0.00     0.275 HD
HETATM   19  H           1     -17.086 -10.547  -4.823  0.00  0.00     0.275 HD
HETATM   20  H           1     -18.084 -11.909  -4.569  0.00  0.00     0.275 HD
ENDBRANCH  16  17
BRANCH  16  21
HETATM   21  C           1     -17.916  -9.575  -2.732  0.00  0.00     0.155 C 
BRANCH  21  22
HETATM   22  C           1     -16.818 -10.574  -2.467  0.00  0.00     0.175 C 
HETATM   23  O           1     -17.077 -11.647  -1.880  0.00  0.00    -0.648 OA
HETATM   24  O           1     -15.649 -10.331  -2.836  0.00  0.00    -0.648 OA
ENDBRANCH  21  22
ENDBRANCH  16  21
ENDBRANCH   2  16
TORSDOF 8
ENDMDL
MODEL 7
REMARK VINA RESULT:      -5.6      2.467      4.953
REMARK  8 active torsions:
REMARK  status: ('A' for Active; 'I' for Inactive)
REMARK    1  A    between atoms: C_2  and  C_6 
REMARK    2  A    between atoms: C_4  and  C_5 
REMARK    3  A    between atoms: C_5  and  C_6 
REMARK    4  A    between atoms: C_6  and  N_10 
REMARK       I    between atoms: N_10  and  C_11 
REMARK    5  A    between atoms: C_11  and  C_18 
REMARK    6  A    between atoms: N_16  and  C_18 
REMARK    7  A    between atoms: C_18  and  C_24 
REMARK    8  A    between atoms: C_23  and  C_24 
ROOT
HETATM    1  N           1     -20.670  -8.675  -3.535  0.00  0.00    -0.344 N 
HETATM    2  C           1     -19.398  -9.088  -3.827  0.00  0.00     0.249 C 
HETATM    3  O           1     -18.553  -9.099  -2.962  0.00  0.00    -0.271 OA
HETATM    4  H           1     -21.361  -9.346  -3.223  0.00  0.00     0.163 HD
ENDROOT
BRANCH   1   5
HETATM    5  C           1     -21.028  -7.277  -3.674  0.00  0.00     0.189 C 
BRANCH   5   6
HETATM    6  C           1     -21.705  -6.804  -2.410  0.00  0.00     0.197 C 
HETATM    7  O           1     -21.460  -7.366  -1.321  0.00  0.00    -0.646 OA
HETATM    8  O           1     -22.511  -5.850  -2.453  0.00  0.00    -0.646 OA
ENDBRANCH   5   6
BRANCH   5   9
HETATM    9  C           1     -21.979  -7.111  -4.852  0.00  0.00     0.074 C 
BRANCH   9  10
HETATM   10  C           1     -21.464  -6.039  -5.762  0.00  0.00    -0.056 A 
HETATM   11  C           1     -20.091  -5.861  -5.922  0.00  0.00     0.007 A 
HETATM   12  C           1     -19.611  -4.862  -6.770  0.00  0.00     0.001 A 
HETATM   13  C           1     -20.506  -4.042  -7.458  0.00  0.00     0.000 A 
HETATM   14  C           1     -21.879  -4.220  -7.296  0.00  0.00     0.001 A 
HETATM   15  C           1     -22.360  -5.219  -6.448  0.00  0.00     0.007 A 
ENDBRANCH   9  10
ENDBRANCH   5   9
ENDBRANCH   1   5
BRANCH   2  16
HETATM   16  C           1     -19.050  -9.529  -5.227  0.00  0.00     0.284 C 
BRANCH  16  17
HETATM   17  N           1     -17.599  -9.908  -5.284  0.00  0.00    -0.066 N 
HETATM   18  H           1     -17.505 -10.864  -5.696  0.00  0.00     0.275 HD
HETATM   19  H           1     -17.084  -9.222  -5.880  0.00  0.00     0.275 HD
HETATM   20  H           1     -17.199  -9.904  -4.319  0.00  0.00     0.275 HD
ENDBRANCH  16  17
BRANCH  16  21
HETATM   21  C           1     -19.903 -10.732  -5.607  0.00  0.00     0.155 C 
BRANCH  21  22
HETATM   22  C           1     -19.071 -11.713  -6.395  0.00  0.00     0.175 C 
HETATM   23  O           1     -18.849 -11.512  -7.608  0.00  0.00    -0.648 OA
HETATM   24  O           1     -18.602 -12.727  -5.835  0.00  0.00    -0.648 OA
ENDBRANCH  21  22
ENDBRANCH  16  21
ENDBRANCH   2  16
TORSDOF 8
ENDMDL
MODEL 8
REMARK VINA RESULT:      -5.5      2.066      3.015
REMARK  8 active torsions:
REMARK  status: ('A' for Active; 'I' for Inactive)
REMARK    1  A    between atoms: C_2  and  C_6 
REMARK    2  A    between atoms: C_4  and  C_5 
REMARK    3  A    between atoms: C_5  and  C_6 
REMARK    4  A    between atoms: C_6  and  N_10 
REMARK       I    between atoms: N_10  and  C_11 
REMARK    5  A    between atoms: C_11  and  C_18 
REMARK    6  A    between atoms: N_16  and  C_18 
REMARK    7  A    between atoms: C_18  and  C_24 
REMARK    8  A    between atoms: C_23  and  C_24 
ROOT
HETATM    1  N           1     -20.481  -7.823  -2.569  0.00  0.00    -0.344 N 
HETATM    2  C           1     -20.480  -8.273  -3.862  0.00  0.00     0.249 C 
HETATM    3  O           1     -20.960  -7.595  -4.739  0.00  0.00    -0.271 OA
HETATM    4  H           1     -19.703  -7.275  -2.224  0.00  0.00     0.163 HD
ENDROOT
BRANCH   1   5
HETATM    5  C           1     -21.597  -8.131  -1.696  0.00  0.00     0.189 C 
BRANCH   5   6
HETATM    6  C           1     -22.328  -6.857  -1.347  0.00  0.00     0.197 C 
HETATM    7  O           1     -22.406  -5.932  -2.183  0.00  0.00    -0.646 OA
HETATM    8  O           1     -22.855  -6.728  -0.221  0.00  0.00    -0.646 OA
ENDBRANCH   5   6
BRANCH   5   9
HETATM    9  C           1     -21.078  -8.785  -0.422  0.00  0.00     0.074 C 
BRANCH   9  10
HETATM   10  C           1     -21.866 -10.026  -0.142  0.00  0.00    -0.056 A 
HETATM   11  C           1     -23.214 -10.091  -0.494  0.00  0.00     0.007 A 
HETATM   12  C           1     -23.948 -11.249  -0.232  0.00  0.00     0.001 A 
HETATM   13  C           1     -23.333 -12.341   0.381  0.00  0.00     0.000 A 
HETATM   14  C           1     -21.986 -12.275   0.734  0.00  0.00     0.001 A 
HETATM   15  C           1     -21.251 -11.118   0.473  0.00  0.00     0.007 A 
ENDBRANCH   9  10
ENDBRANCH   5   9
ENDBRANCH   1   5
BRANCH   2  16
HETATM   16  C           1     -19.876  -9.617  -4.193  0.00  0.00     0.284 C 
BRANCH  16  17
HETATM   17  N           1     -20.416 -10.095  -5.508  0.00  0.00    -0.066 N 
HETATM   18  H           1     -19.842  -9.696  -6.286  0.00  0.00     0.275 HD
HETATM   19  H           1     -20.370 -11.138  -5.544  0.00  0.00     0.275 HD
HETATM   20  H           1     -21.408  -9.784  -5.613  0.00  0.00     0.275 HD
ENDBRANCH  16  17
BRANCH  16  21
HETATM   21  C           1     -18.362  -9.485  -4.284  0.00  0.00     0.155 C 
BRANCH  21  22
HETATM   22  C           1     -17.743  -9.830  -2.953  0.00  0.00     0.175 C 
HETATM   23  O           1     -18.419 -10.420  -2.083  0.00  0.00    -0.648 OA
HETATM   24  O           1     -16.553  -9.528  -2.719  0.00  0.00    -0.648 OA
ENDBRANCH  21  22
ENDBRANCH  16  21
ENDBRANCH   2  16
TORSDOF 8
ENDMDL
MODEL 9
REMARK VINA RESULT:      -5.5      2.515      3.525
REMARK  8 active torsions:
REMARK  status: ('A' for Active; 'I' for Inactive)
REMARK    1  A    between atoms: C_2  and  C_6 
REMARK    2  A    between atoms: C_4  and  C_5 
REMARK    3  A    between atoms: C_5  and  C_6 
REMARK    4  A    between atoms: C_6  and  N_10 
REMARK       I    between atoms: N_10  and  C_11 
REMARK    5  A    between atoms: C_11  and  C_18 
REMARK    6  A    between atoms: N_16  and  C_18 
REMARK    7  A    between atoms: C_18  and  C_24 
REMARK    8  A    between atoms: C_23  and  C_24 
ROOT
HETATM    1  N           1     -20.282  -8.163  -2.563  0.00  0.00    -0.344 N 
HETATM    2  C           1     -20.215  -8.822  -3.762  0.00  0.00     0.249 C 
HETATM    3  O           1     -20.532  -8.256  -4.781  0.00  0.00    -0.271 OA
HETATM    4  H           1     -19.481  -7.645  -2.225  0.00  0.00     0.163 HD
ENDROOT
BRANCH   1   5
HETATM    5  C           1     -21.501  -8.210  -1.779  0.00  0.00     0.189 C 
BRANCH   5   6
HETATM    6  C           1     -22.102  -6.827  -1.704  0.00  0.00     0.197 C 
HETATM    7  O           1     -22.645  -6.438  -0.648  0.00  0.00    -0.646 OA
HETATM    8  O           1     -22.055  -6.071  -2.698  0.00  0.00    -0.646 OA
ENDBRANCH   5   6
BRANCH   5   9
HETATM    9  C           1     -21.182  -8.702  -0.373  0.00  0.00     0.074 C 
BRANCH   9  10
HETATM   10  C           1     -21.947  -9.959  -0.100  0.00  0.00    -0.056 A 
HETATM   11  C           1     -23.318 -10.009  -0.347  0.00  0.00     0.007 A 
HETATM   12  C           1     -24.031 -11.181  -0.091  0.00  0.00     0.001 A 
HETATM   13  C           1     -23.372 -12.303   0.411  0.00  0.00     0.000 A 
HETATM   14  C           1     -22.001 -12.252   0.659  0.00  0.00     0.001 A 
HETATM   15  C           1     -21.287 -11.081   0.403  0.00  0.00     0.007 A 
ENDBRANCH   9  10
ENDBRANCH   5   9
ENDBRANCH   1   5
BRANCH   2  16
HETATM   16  C           1     -19.742 -10.255  -3.810  0.00  0.00     0.284 C 
BRANCH  16  17
HETATM   17  N           1     -20.909 -11.171  -3.591  0.00  0.00    -0.066 N 
HETATM   18  H           1     -20.667 -11.873  -2.855  0.00  0.00     0.275 HD
HETATM   19  H           1     -21.736 -10.613  -3.280  0.00  0.00     0.275 HD
HETATM   20  H           1     -21.136 -11.667  -4.482  0.00  0.00     0.275 HD
ENDBRANCH  16  17
BRANCH  16  21
HETATM   21  C           1     -19.124 -10.539  -5.173  0.00  0.00     0.155 C 
BRANCH  21  22
HETATM   22  C           1     -19.986 -11.523  -5.923  0.00  0.00     0.175 C 
HETATM   23  O           1     -20.953 -11.117  -6.602  0.00  0.00    -0.648 OA
HETATM   24  O           1     -19.733 -12.746  -5.868  0.00  0.00    -0.648 OA
ENDBRANCH  21  22
ENDBRANCH  16  21
ENDBRANCH   2  16
TORSDOF 8
ENDMDL
