MODEL 1
REMARK VINA RESULT:      -5.5      0.000      0.000
REMARK  8 active torsions:
REMARK  status: ('A' for Active; 'I' for Inactive)
REMARK    1  A    between atoms: C_1  and  C_2 
REMARK    2  A    between atoms: C_1  and  C_13 
REMARK    3  A    between atoms: C_1  and  N_10 
REMARK    4  A    between atoms: C_2  and  C_15 
REMARK    5  A    between atoms: N_5  and  C_8 
REMARK    6  A    between atoms: Se_6  and  C_7 
REMARK    7  A    between atoms: C_7  and  C_8 
REMARK    8  A    between atoms: C_8  and  C_9 
REMARK       I    between atoms: C_9  and  N_10 
ROOT
HETATM    1  O           1     -21.571  -3.531  -7.579  0.00  0.00    -0.271 OA
HETATM    2  C           1     -21.688  -4.708  -7.820  0.00  0.00     0.249 C 
HETATM    3  N           1     -22.305  -5.112  -8.974  0.00  0.00    -0.345 N 
HETATM    4  H           1     -22.403  -6.100  -9.176  0.00  0.00     0.163 HD
ENDROOT
BRANCH   2   5
HETATM    5  C           1     -21.155  -5.734  -6.851  0.00  0.00     0.274 C 
BRANCH   5   6
HETATM    6  N           1     -19.898  -6.338  -7.405  0.00  0.00    -0.067 N 
HETATM    7  H           1     -19.202  -5.581  -7.594  0.00  0.00     0.275 HD
HETATM    8  H           1     -19.501  -7.011  -6.713  0.00  0.00     0.275 HD
HETATM    9  H           1     -20.115  -6.839  -8.295  0.00  0.00     0.275 HD
ENDBRANCH   5   6
BRANCH   5  10
HETATM   10  C           1     -20.850  -5.063  -5.518  0.00  0.00     0.045 C 
BRANCH  10  11
HETATM   11 Se           1     -21.386  -6.238  -4.059  0.00  0.00     0.000 Se
HETATM   12  H           1     -22.339  -7.007  -4.875  0.00  0.00     0.000 HD
ENDBRANCH  10  11
ENDBRANCH   5  10
ENDBRANCH   2   5
BRANCH   3  13
HETATM   13  C           1     -22.818  -4.127  -9.906  0.00  0.00     0.185 C 
BRANCH  13  14
HETATM   14  C           1     -22.580  -4.605 -11.332  0.00  0.00     0.040 C 
BRANCH  14  15
HETATM   15  C           1     -21.826  -3.535 -12.108  0.00  0.00    -0.020 C 
HETATM   16  C           1     -20.760  -2.916 -11.213  0.00  0.00     0.009 C 
HETATM   17  C           1     -22.800  -2.454 -12.560  0.00  0.00     0.009 C 
ENDBRANCH  14  15
ENDBRANCH  13  14
BRANCH  13  18
HETATM   18  C           1     -24.298  -3.943  -9.676  0.00  0.00     0.196 C 
HETATM   19  O           1     -24.759  -2.801  -9.460  0.00  0.00    -0.646 OA
HETATM   20  O           1     -25.063  -4.931  -9.701  0.00  0.00    -0.646 OA
ENDBRANCH  13  18
ENDBRANCH   3  13
TORSDOF 8
ENDMDL
MODEL 2
REMARK VINA RESULT:      -5.0      3.949      7.166
REMARK  8 active torsions:
REMARK  status: ('A' for Active; 'I' for Inactive)
REMARK    1  A    between atoms: C_1  and  C_2 
REMARK    2  A    between atoms: C_1  and  C_13 
REMARK    3  A    between atoms: C_1  and  N_10 
REMARK    4  A    between atoms: C_2  and  C_15 
REMARK    5  A    between atoms: N_5  and  C_8 
REMARK    6  A    between atoms: Se_6  and  C_7 
REMARK    7  A    between atoms: C_7  and  C_8 
REMARK    8  A    between atoms: C_8  and  C_9 
REMARK       I    between atoms: C_9  and  N_10 
ROOT
HETATM    1  O           1     -20.352  -4.869  -5.713  0.00  0.00    -0.271 OA
HETATM    2  C           1     -20.886  -5.631  -6.483  0.00  0.00     0.249 C 
HETATM    3  N           1     -20.986  -6.960  -6.172  0.00  0.00    -0.345 N 
HETATM    4  H           1     -21.434  -7.599  -6.818  0.00  0.00     0.163 HD
ENDROOT
BRANCH   2   5
HETATM    5  C           1     -21.443  -5.117  -7.788  0.00  0.00     0.274 C 
BRANCH   5   6
HETATM    6  N           1     -22.411  -4.005  -7.514  0.00  0.00    -0.067 N 
HETATM    7  H           1     -23.388  -4.353  -7.646  0.00  0.00     0.275 HD
HETATM    8  H           1     -22.290  -3.673  -6.531  0.00  0.00     0.275 HD
HETATM    9  H           1     -22.232  -3.216  -8.174  0.00  0.00     0.275 HD
ENDBRANCH   5   6
BRANCH   5  10
HETATM   10  C           1     -20.304  -4.596  -8.656  0.00  0.00     0.045 C 
BRANCH  10  11
HETATM   11 Se           1     -21.003  -4.056 -10.393  0.00  0.00     0.000 Se
HETATM   12  H           1     -19.681  -3.736 -10.954  0.00  0.00     0.000 HD
ENDBRANCH  10  11
ENDBRANCH   5  10
ENDBRANCH   2   5
BRANCH   3  13
HETATM   13  C           1     -20.451  -7.455  -4.919  0.00  0.00     0.185 C 
BRANCH  13  14
HETATM   14  C           1     -21.572  -7.554  -3.892  0.00  0.00     0.040 C 
BRANCH  14  15
HETATM   15  C           1     -21.094  -6.988  -2.562  0.00  0.00    -0.020 C 
HETATM   16  C           1     -20.705  -8.132  -1.634  0.00  0.00     0.009 C 
HETATM   17  C           1     -22.215  -6.176  -1.925  0.00  0.00     0.009 C 
ENDBRANCH  14  15
ENDBRANCH  13  14
BRANCH  13  18
HETATM   18  C           1     -19.845  -8.819  -5.136  0.00  0.00     0.196 C 
HETATM   19  O           1     -18.712  -9.080  -4.675  0.00  0.00    -0.646 OA
HETATM   20  O           1     -20.474  -9.689  -5.777  0.00  0.00    -0.646 OA
ENDBRANCH  13  18
ENDBRANCH   3  13
TORSDOF 8
ENDMDL
MODEL 3
REMARK VINA RESULT:      -4.8      4.314      5.810
REMARK  8 active torsions:
REMARK  status: ('A' for Active; 'I' for Inactive)
REMARK    1  A    between atoms: C_1  and  C_2 
REMARK    2  A    between atoms: C_1  and  C_13 
REMARK    3  A    between atoms: C_1  and  N_10 
REMARK    4  A    between atoms: C_2  and  C_15 
REMARK    5  A    between atoms: N_5  and  C_8 
REMARK    6  A    between atoms: Se_6  and  C_7 
REMARK    7  A    between atoms: C_7  and  C_8 
REMARK    8  A    between atoms: C_8  and  C_9 
REMARK       I    between atoms: C_9  and  N_10 
ROOT
HETATM    1  O           1     -19.244  -8.596  -4.238  0.00  0.00    -0.271 OA
HETATM    2  C           1     -20.046  -9.033  -5.028  0.00  0.00     0.249 C 
HETATM    3  N           1     -20.858  -8.178  -5.722  0.00  0.00    -0.345 N 
HETATM    4  H           1     -21.531  -8.544  -6.385  0.00  0.00     0.163 HD
ENDROOT
BRANCH   2   5
HETATM    5  C           1     -20.152 -10.522  -5.251  0.00  0.00     0.274 C 
BRANCH   5   6
HETATM    6  N           1     -21.167 -10.795  -6.322  0.00  0.00    -0.067 N 
HETATM    7  H           1     -21.746 -11.622  -6.050  0.00  0.00     0.275 HD
HETATM    8  H           1     -21.785  -9.960  -6.437  0.00  0.00     0.275 HD
HETATM    9  H           1     -20.678 -10.994  -7.223  0.00  0.00     0.275 HD
ENDBRANCH   5   6
BRANCH   5  10
HETATM   10  C           1     -18.798 -11.068  -5.685  0.00  0.00     0.045 C 
BRANCH  10  11
HETATM   11 Se           1     -19.027 -12.218  -7.241  0.00  0.00     0.000 Se
HETATM   12  H           1     -19.747 -11.204  -8.028  0.00  0.00     0.000 HD
ENDBRANCH  10  11
ENDBRANCH   5  10
ENDBRANCH   2   5
BRANCH   3  13
HETATM   13  C           1     -20.757  -6.747  -5.509  0.00  0.00     0.185 C 
BRANCH  13  14
HETATM   14  C           1     -20.846  -6.026  -6.847  0.00  0.00     0.040 C 
BRANCH  14  15
HETATM   15  C           1     -20.302  -4.611  -6.700  0.00  0.00    -0.020 C 
HETATM   16  C           1     -21.339  -3.615  -7.202  0.00  0.00     0.009 C 
HETATM   17  C           1     -19.025  -4.471  -7.518  0.00  0.00     0.009 C 
ENDBRANCH  14  15
ENDBRANCH  13  14
BRANCH  13  18
HETATM   18  C           1     -21.885  -6.292  -4.615  0.00  0.00     0.196 C 
HETATM   19  O           1     -23.051  -6.229  -5.063  0.00  0.00    -0.646 OA
HETATM   20  O           1     -21.654  -5.977  -3.428  0.00  0.00    -0.646 OA
ENDBRANCH  13  18
ENDBRANCH   3  13
TORSDOF 8
ENDMDL
MODEL 4
REMARK VINA RESULT:      -4.7      7.032      8.943
REMARK  8 active torsions:
REMARK  status: ('A' for Active; 'I' for Inactive)
REMARK    1  A    between atoms: C_1  and  C_2 
REMARK    2  A    between atoms: C_1  and  C_13 
REMARK    3  A    between atoms: C_1  and  N_10 
REMARK    4  A    between atoms: C_2  and  C_15 
REMARK    5  A    between atoms: N_5  and  C_8 
REMARK    6  A    between atoms: Se_6  and  C_7 
REMARK    7  A    between atoms: C_7  and  C_8 
REMARK    8  A    between atoms: C_8  and  C_9 
REMARK       I    between atoms: C_9  and  N_10 
ROOT
HETATM    1  O           1     -22.153 -10.164  -3.666  0.00  0.00    -0.271 OA
HETATM    2  C           1     -21.077  -9.650  -3.862  0.00  0.00     0.249 C 
HETATM    3  N           1     -20.737  -8.503  -3.197  0.00  0.00    -0.345 N 
HETATM    4  H           1     -19.835  -8.072  -3.361  0.00  0.00     0.163 HD
ENDROOT
BRANCH   2   5
HETATM    5  C           1     -20.109 -10.272  -4.837  0.00  0.00     0.274 C 
BRANCH   5   6
HETATM    6  N           1     -20.821 -10.573  -6.123  0.00  0.00    -0.067 N 
HETATM    7  H           1     -21.603  -9.892  -6.256  0.00  0.00     0.275 HD
HETATM    8  H           1     -20.150 -10.490  -6.920  0.00  0.00     0.275 HD
HETATM    9  H           1     -21.206 -11.543  -6.090  0.00  0.00     0.275 HD
ENDBRANCH   5   6
BRANCH   5  10
HETATM   10  C           1     -18.965  -9.303  -5.105  0.00  0.00     0.045 C 
BRANCH  10  11
HETATM   11 Se           1     -17.343  -9.956  -4.246  0.00  0.00     0.000 Se
HETATM   12  H           1     -17.732 -11.373  -4.327  0.00  0.00     0.000 HD
ENDBRANCH  10  11
ENDBRANCH   5  10
ENDBRANCH   2   5
BRANCH   3  13
HETATM   13  C           1     -21.666  -7.904  -2.259  0.00  0.00     0.185 C 
BRANCH  13  14
HETATM   14  C           1     -21.028  -7.846  -0.878  0.00  0.00     0.040 C 
BRANCH  14  15
HETATM   15  C           1     -21.809  -8.735   0.080  0.00  0.00    -0.020 C 
HETATM   16  C           1     -23.141  -8.075   0.413  0.00  0.00     0.009 C 
HETATM   17  C           1     -21.006  -8.930   1.360  0.00  0.00     0.009 C 
ENDBRANCH  14  15
ENDBRANCH  13  14
BRANCH  13  18
HETATM   18  C           1     -22.008  -6.506  -2.715  0.00  0.00     0.196 C 
HETATM   19  O           1     -22.097  -5.580  -1.879  0.00  0.00    -0.646 OA
HETATM   20  O           1     -22.202  -6.274  -3.928  0.00  0.00    -0.646 OA
ENDBRANCH  13  18
ENDBRANCH   3  13
TORSDOF 8
ENDMDL
MODEL 5
REMARK VINA RESULT:      -4.6      6.040      9.458
REMARK  8 active torsions:
REMARK  status: ('A' for Active; 'I' for Inactive)
REMARK    1  A    between atoms: C_1  and  C_2 
REMARK    2  A    between atoms: C_1  and  C_13 
REMARK    3  A    between atoms: C_1  and  N_10 
REMARK    4  A    between atoms: C_2  and  C_15 
REMARK    5  A    between atoms: N_5  and  C_8 
REMARK    6  A    between atoms: Se_6  and  C_7 
REMARK    7  A    between atoms: C_7  and  C_8 
REMARK    8  A    between atoms: C_8  and  C_9 
REMARK       I    between atoms: C_9  and  N_10 
ROOT
HETATM    1  O           1     -21.157  -6.552  -2.779  0.00  0.00    -0.271 OA
HETATM    2  C           1     -21.248  -7.474  -3.554  0.00  0.00     0.249 C 
HETATM    3  N           1     -20.939  -8.743  -3.148  0.00  0.00    -0.345 N 
HETATM    4  H           1     -21.015  -9.516  -3.798  0.00  0.00     0.163 HD
ENDROOT
BRANCH   2   5
HETATM    5  C           1     -21.705  -7.226  -4.971  0.00  0.00     0.274 C 
BRANCH   5   6
HETATM    6  N           1     -22.733  -6.134  -4.980  0.00  0.00    -0.067 N 
HETATM    7  H           1     -22.348  -5.289  -4.499  0.00  0.00     0.275 HD
HETATM    8  H           1     -22.975  -5.892  -5.967  0.00  0.00     0.275 HD
HETATM    9  H           1     -23.590  -6.458  -4.479  0.00  0.00     0.275 HD
ENDBRANCH   5   6
BRANCH   5  10
HETATM   10  C           1     -20.513  -6.807  -5.822  0.00  0.00     0.045 C 
BRANCH  10  11
HETATM   11 Se           1     -20.493  -4.867  -6.006  0.00  0.00     0.000 Se
HETATM   12  H           1     -21.776  -4.806  -6.724  0.00  0.00     0.000 HD
ENDBRANCH  10  11
ENDBRANCH   5  10
ENDBRANCH   2   5
BRANCH   3  13
HETATM   13  C           1     -20.500  -8.983  -1.786  0.00  0.00     0.185 C 
BRANCH  13  14
HETATM   14  C           1     -21.707  -9.290  -0.911  0.00  0.00     0.040 C 
BRANCH  14  15
HETATM   15  C           1     -21.807  -8.253   0.200  0.00  0.00    -0.020 C 
HETATM   16  C           1     -21.034  -8.741   1.419  0.00  0.00     0.009 C 
HETATM   17  C           1     -23.269  -8.049   0.574  0.00  0.00     0.009 C 
ENDBRANCH  14  15
ENDBRANCH  13  14
BRANCH  13  18
HETATM   18  C           1     -19.550 -10.155  -1.765  0.00  0.00     0.196 C 
HETATM   19  O           1     -18.595 -10.201  -2.571  0.00  0.00    -0.646 OA
HETATM   20  O           1     -19.717 -11.081  -0.941  0.00  0.00    -0.646 OA
ENDBRANCH  13  18
ENDBRANCH   3  13
TORSDOF 8
ENDMDL
MODEL 6
REMARK VINA RESULT:      -4.5      6.981      9.969
REMARK  8 active torsions:
REMARK  status: ('A' for Active; 'I' for Inactive)
REMARK    1  A    between atoms: C_1  and  C_2 
REMARK    2  A    between atoms: C_1  and  C_13 
REMARK    3  A    between atoms: C_1  and  N_10 
REMARK    4  A    between atoms: C_2  and  C_15 
REMARK    5  A    between atoms: N_5  and  C_8 
REMARK    6  A    between atoms: Se_6  and  C_7 
REMARK    7  A    between atoms: C_7  and  C_8 
REMARK    8  A    between atoms: C_8  and  C_9 
REMARK       I    between atoms: C_9  and  N_10 
ROOT
HETATM    1  O           1     -22.430 -10.165  -3.549  0.00  0.00    -0.271 OA
HETATM    2  C           1     -21.422  -9.529  -3.352  0.00  0.00     0.249 C 
HETATM    3  N           1     -21.200  -8.964  -2.125  0.00  0.00    -0.345 N 
HETATM    4  H           1     -20.355  -8.431  -1.959  0.00  0.00     0.163 HD
ENDROOT
BRANCH   2   5
HETATM    5  C           1     -20.408  -9.359  -4.456  0.00  0.00     0.274 C 
BRANCH   5   6
HETATM    6  N           1     -20.953  -9.941  -5.727  0.00  0.00    -0.067 N 
HETATM    7  H           1     -20.476 -10.850  -5.926  0.00  0.00     0.275 HD
HETATM    8  H           1     -21.980 -10.102  -5.624  0.00  0.00     0.275 HD
HETATM    9  H           1     -20.780  -9.278  -6.516  0.00  0.00     0.275 HD
ENDBRANCH   5   6
BRANCH   5  10
HETATM   10  C           1     -20.123  -7.876  -4.658  0.00  0.00     0.045 C 
BRANCH  10  11
HETATM   11 Se           1     -21.770  -6.956  -5.145  0.00  0.00     0.000 Se
HETATM   12  H           1     -22.650  -8.042  -4.684  0.00  0.00     0.000 HD
ENDBRANCH  10  11
ENDBRANCH   5  10
ENDBRANCH   2   5
BRANCH   3  13
HETATM   13  C           1     -22.173  -9.127  -1.063  0.00  0.00     0.185 C 
BRANCH  13  14
HETATM   14  C           1     -21.707 -10.219  -0.110  0.00  0.00     0.040 C 
BRANCH  14  15
HETATM   15  C           1     -22.587 -11.450  -0.277  0.00  0.00    -0.020 C 
HETATM   16  C           1     -24.052 -11.045  -0.168  0.00  0.00     0.009 C 
HETATM   17  C           1     -22.258 -12.461   0.814  0.00  0.00     0.009 C 
ENDBRANCH  14  15
ENDBRANCH  13  14
BRANCH  13  18
HETATM   18  C           1     -22.316  -7.827  -0.310  0.00  0.00     0.196 C 
HETATM   19  O           1     -22.069  -7.785   0.916  0.00  0.00    -0.646 OA
HETATM   20  O           1     -22.682  -6.793  -0.909  0.00  0.00    -0.646 OA
ENDBRANCH  13  18
ENDBRANCH   3  13
TORSDOF 8
ENDMDL
MODEL 7
REMARK VINA RESULT:      -4.5      5.159      8.289
REMARK  8 active torsions:
REMARK  status: ('A' for Active; 'I' for Inactive)
REMARK    1  A    between atoms: C_1  and  C_2 
REMARK    2  A    between atoms: C_1  and  C_13 
REMARK    3  A    between atoms: C_1  and  N_10 
REMARK    4  A    between atoms: C_2  and  C_15 
REMARK    5  A    between atoms: N_5  and  C_8 
REMARK    6  A    between atoms: Se_6  and  C_7 
REMARK    7  A    between atoms: C_7  and  C_8 
REMARK    8  A    between atoms: C_8  and  C_9 
REMARK       I    between atoms: C_9  and  N_10 
ROOT
HETATM    1  O           1     -19.590  -7.957  -5.535  0.00  0.00    -0.271 OA
HETATM    2  C           1     -20.624  -7.441  -5.185  0.00  0.00     0.249 C 
HETATM    3  N           1     -21.173  -7.763  -3.973  0.00  0.00    -0.345 N 
HETATM    4  H           1     -22.040  -7.330  -3.679  0.00  0.00     0.163 HD
ENDROOT
BRANCH   2   5
HETATM    5  C           1     -21.310  -6.440  -6.082  0.00  0.00     0.274 C 
BRANCH   5   6
HETATM    6  N           1     -22.569  -5.960  -5.423  0.00  0.00    -0.067 N 
HETATM    7  H           1     -23.276  -5.719  -6.155  0.00  0.00     0.275 HD
HETATM    8  H           1     -22.949  -6.714  -4.808  0.00  0.00     0.275 HD
HETATM    9  H           1     -22.361  -5.113  -4.849  0.00  0.00     0.275 HD
ENDBRANCH   5   6
BRANCH   5  10
HETATM   10  C           1     -20.382  -5.256  -6.324  0.00  0.00     0.045 C 
BRANCH  10  11
HETATM   11 Se           1     -21.314  -3.900  -7.369  0.00  0.00     0.000 Se
HETATM   12  H           1     -20.096  -3.413  -8.036  0.00  0.00     0.000 HD
ENDBRANCH  10  11
ENDBRANCH   5  10
ENDBRANCH   2   5
BRANCH   3  13
HETATM   13  C           1     -20.515  -8.725  -3.110  0.00  0.00     0.185 C 
BRANCH  13  14
HETATM   14  C           1     -20.454  -8.176  -1.691  0.00  0.00     0.040 C 
BRANCH  14  15
HETATM   15  C           1     -21.867  -7.937  -1.177  0.00  0.00    -0.020 C 
HETATM   16  C           1     -22.172  -6.445  -1.209  0.00  0.00     0.009 C 
HETATM   17  C           1     -21.979  -8.448   0.253  0.00  0.00     0.009 C 
ENDBRANCH  14  15
ENDBRANCH  13  14
BRANCH  13  18
HETATM   18  C           1     -21.291 -10.019  -3.117  0.00  0.00     0.196 C 
HETATM   19  O           1     -22.321 -10.126  -3.819  0.00  0.00    -0.646 OA
HETATM   20  O           1     -20.906 -10.983  -2.421  0.00  0.00    -0.646 OA
ENDBRANCH  13  18
ENDBRANCH   3  13
TORSDOF 8
ENDMDL
MODEL 8
REMARK VINA RESULT:      -4.4      6.775      9.422
REMARK  8 active torsions:
REMARK  status: ('A' for Active; 'I' for Inactive)
REMARK    1  A    between atoms: C_1  and  C_2 
REMARK    2  A    between atoms: C_1  and  C_13 
REMARK    3  A    between atoms: C_1  and  N_10 
REMARK    4  A    between atoms: C_2  and  C_15 
REMARK    5  A    between atoms: N_5  and  C_8 
REMARK    6  A    between atoms: Se_6  and  C_7 
REMARK    7  A    between atoms: C_7  and  C_8 
REMARK    8  A    between atoms: C_8  and  C_9 
REMARK       I    between atoms: C_9  and  N_10 
ROOT
HETATM    1  O           1     -18.852  -9.023  -3.477  0.00  0.00    -0.271 OA
HETATM    2  C           1     -20.037  -8.984  -3.710  0.00  0.00     0.249 C 
HETATM    3  N           1     -20.939  -9.207  -2.706  0.00  0.00    -0.345 N 
HETATM    4  H           1     -21.933  -9.175  -2.901  0.00  0.00     0.163 HD
ENDROOT
BRANCH   2   5
HETATM    5  C           1     -20.522  -8.689  -5.108  0.00  0.00     0.274 C 
BRANCH   5   6
HETATM    6  N           1     -20.971  -9.963  -5.760  0.00  0.00    -0.067 N 
HETATM    7  H           1     -21.846  -9.787  -6.303  0.00  0.00     0.275 HD
HETATM    8  H           1     -20.224 -10.306  -6.405  0.00  0.00     0.275 HD
HETATM    9  H           1     -21.156 -10.683  -5.026  0.00  0.00     0.275 HD
ENDBRANCH   5   6
BRANCH   5  10
HETATM   10  C           1     -21.690  -7.713  -5.045  0.00  0.00     0.045 C 
BRANCH  10  11
HETATM   11 Se           1     -21.010  -5.889  -4.942  0.00  0.00     0.000 Se
HETATM   12  H           1     -22.052  -5.431  -4.009  0.00  0.00     0.000 HD
ENDBRANCH  10  11
ENDBRANCH   5  10
ENDBRANCH   2   5
BRANCH   3  13
HETATM   13  C           1     -20.474  -9.491  -1.362  0.00  0.00     0.185 C 
BRANCH  13  14
HETATM   14  C           1     -20.884  -8.356  -0.432  0.00  0.00     0.040 C 
BRANCH  14  15
HETATM   15  C           1     -22.311  -7.930  -0.748  0.00  0.00    -0.020 C 
HETATM   16  C           1     -22.311  -6.493  -1.254  0.00  0.00     0.009 C 
HETATM   17  C           1     -23.160  -8.025   0.513  0.00  0.00     0.009 C 
ENDBRANCH  14  15
ENDBRANCH  13  14
BRANCH  13  18
HETATM   18  C           1     -21.088 -10.783  -0.881  0.00  0.00     0.196 C 
HETATM   19  O           1     -21.884 -11.408  -1.615  0.00  0.00    -0.646 OA
HETATM   20  O           1     -20.801 -11.228   0.251  0.00  0.00    -0.646 OA
ENDBRANCH  13  18
ENDBRANCH   3  13
TORSDOF 8
ENDMDL
MODEL 9
REMARK VINA RESULT:      -4.3      7.334     10.117
REMARK  8 active torsions:
REMARK  status: ('A' for Active; 'I' for Inactive)
REMARK    1  A    between atoms: C_1  and  C_2 
REMARK    2  A    between atoms: C_1  and  C_13 
REMARK    3  A    between atoms: C_1  and  N_10 
REMARK    4  A    between atoms: C_2  and  C_15 
REMARK    5  A    between atoms: N_5  and  C_8 
REMARK    6  A    between atoms: Se_6  and  C_7 
REMARK    7  A    between atoms: C_7  and  C_8 
REMARK    8  A    between atoms: C_8  and  C_9 
REMARK       I    between atoms: C_9  and  N_10 
ROOT
HETATM    1  O           1     -19.652  -8.918  -2.034  0.00  0.00    -0.271 OA
HETATM    2  C           1     -20.518  -9.351  -2.756  0.00  0.00     0.249 C 
HETATM    3  N           1     -21.596 -10.000  -2.217  0.00  0.00    -0.345 N 
HETATM    4  H           1     -22.323 -10.362  -2.822  0.00  0.00     0.163 HD
ENDROOT
BRANCH   2   5
HETATM    5  C           1     -20.414  -9.175  -4.251  0.00  0.00     0.274 C 
BRANCH   5   6
HETATM    6  N           1     -20.440 -10.519  -4.914  0.00  0.00    -0.067 N 
HETATM    7  H           1     -19.470 -10.909  -4.949  0.00  0.00     0.275 HD
HETATM    8  H           1     -21.054 -11.165  -4.370  0.00  0.00     0.275 HD
HETATM    9  H           1     -20.809 -10.421  -5.886  0.00  0.00     0.275 HD
ENDBRANCH   5   6
BRANCH   5  10
HETATM   10  C           1     -21.589  -8.342  -4.747  0.00  0.00     0.045 C 
BRANCH  10  11
HETATM   11 Se           1     -21.331  -6.480  -4.233  0.00  0.00     0.000 Se
HETATM   12  H           1     -22.732  -6.099  -4.475  0.00  0.00     0.000 HD
ENDBRANCH  10  11
ENDBRANCH   5  10
ENDBRANCH   2   5
BRANCH   3  13
HETATM   13  C           1     -21.698 -10.169  -0.781  0.00  0.00     0.185 C 
BRANCH  13  14
HETATM   14  C           1     -22.972  -9.504  -0.279  0.00  0.00     0.040 C 
BRANCH  14  15
HETATM   15  C           1     -22.620  -8.214   0.450  0.00  0.00    -0.020 C 
HETATM   16  C           1     -22.455  -7.088  -0.563  0.00  0.00     0.009 C 
HETATM   17  C           1     -21.317  -8.404   1.215  0.00  0.00     0.009 C 
ENDBRANCH  14  15
ENDBRANCH  13  14
BRANCH  13  18
HETATM   18  C           1     -21.735 -11.641  -0.451  0.00  0.00     0.196 C 
HETATM   19  O           1     -21.945 -12.480  -1.355  0.00  0.00    -0.646 OA
HETATM   20  O           1     -21.556 -12.023   0.726  0.00  0.00    -0.646 OA
ENDBRANCH  13  18
ENDBRANCH   3  13
TORSDOF 8
ENDMDL
