MODEL 1
REMARK VINA RESULT:      -7.0      0.000      0.000
REMARK  18 active torsions:
REMARK  status: ('A' for Active; 'I' for Inactive)
REMARK    1  A    between atoms: C_1  and  C_37 
REMARK    2  A    between atoms: C_1  and  C_2 
REMARK    3  A    between atoms: C_1  and  N_39 
REMARK    4  A    between atoms: C_2  and  C_3 
REMARK    5  A    between atoms: C_3  and  C_41 
REMARK    6  A    between atoms: N_4  and  C_5 
REMARK    7  A    between atoms: C_5  and  C_6 
REMARK    8  A    between atoms: C_6  and  C_7 
REMARK    9  A    between atoms: C_7  and  C_8 
REMARK   10  A    between atoms: C_8  and  C_9 
REMARK   11  A    between atoms: C_9  and  C_10 
REMARK   12  A    between atoms: C_9  and  N_13 
REMARK   13  A    between atoms: N_13  and  C_14 
REMARK   14  A    between atoms: C_14  and  C_15 
REMARK   15  A    between atoms: C_15  and  C_24 
REMARK   16  A    between atoms: C_17  and  C_24 
REMARK       I    between atoms: C_21  and  N_22 
REMARK       I    between atoms: C_21  and  N_23 
REMARK   17  A    between atoms: C_24  and  N_36 
REMARK       I    between atoms: N_36  and  C_37 
REMARK   18  A    between atoms: N_40  and  C_41 
ROOT
HETATM    1  H           1     -22.521  -5.959  -7.071  0.00  0.00     0.163 HD
HETATM    2  O           1     -21.857  -3.104  -8.192  0.00  0.00    -0.271 OA
HETATM    3  N           1     -22.025  -5.082  -7.167  0.00  0.00    -0.345 N 
HETATM    4  C           1     -22.450  -4.151  -8.077  0.00  0.00     0.249 C 
ENDROOT
BRANCH   3   5
HETATM    5  C           1     -20.863  -4.812  -6.343  0.00  0.00     0.187 C 
BRANCH   5   6
HETATM    6  C           1     -21.003  -5.544  -5.015  0.00  0.00     0.066 C 
BRANCH   6   7
HETATM    7  C           1     -22.076  -6.619  -5.137  0.00  0.00     0.273 C 
BRANCH   7   8
HETATM    8  N           1     -21.452  -7.909  -5.254  0.00  0.00     0.098 N 
HETATM    9  H           1     -20.963  -7.970  -6.148  0.00  0.00     0.317 HD
BRANCH   8  10
HETATM   10  C           1     -20.503  -8.034  -4.180  0.00  0.00     0.320 C 
BRANCH  10  11
HETATM   11  C           1     -21.196  -8.625  -2.959  0.00  0.00     0.047 C 
BRANCH  11  12
HETATM   12  C           1     -20.894  -7.766  -1.738  0.00  0.00     0.004 C 
BRANCH  12  13
HETATM   13  C           1     -22.190  -7.179  -1.195  0.00  0.00     0.027 C 
BRANCH  13  14
HETATM   14  C           1     -22.398  -7.645   0.239  0.00  0.00     0.229 C 
BRANCH  14  15
HETATM   15  N           1     -21.370  -8.683   0.583  0.00  0.00    -0.079 N 
HETATM   16  H           1     -21.709  -9.623   0.277  0.00  0.00     0.274 HD
HETATM   17  H           1     -20.474  -8.460   0.094  0.00  0.00     0.274 HD
HETATM   18  H           1     -21.214  -8.689   1.615  0.00  0.00     0.274 HD
ENDBRANCH  14  15
ENDBRANCH  13  14
ENDBRANCH  12  13
ENDBRANCH  11  12
ENDBRANCH  10  11
BRANCH  10  19
HETATM   19  C           1     -19.377  -8.943  -4.609  0.00  0.00     0.207 C 
HETATM   20  O           1     -19.410  -9.492  -5.732  0.00  0.00    -0.646 OA
HETATM   21  O           1     -18.412  -9.147  -3.842  0.00  0.00    -0.646 OA
ENDBRANCH  10  19
ENDBRANCH   8  10
ENDBRANCH   7   8
ENDBRANCH   6   7
ENDBRANCH   5   6
BRANCH   5  22
HETATM   22  C           1     -19.621  -5.291  -7.054  0.00  0.00     0.196 C 
HETATM   23  O           1     -19.423  -6.515  -7.211  0.00  0.00    -0.646 OA
HETATM   24  O           1     -18.790  -4.463  -7.486  0.00  0.00    -0.646 OA
ENDBRANCH   5  22
ENDBRANCH   3   5
BRANCH   4  25
HETATM   25  C           1     -23.660  -4.431  -8.934  0.00  0.00     0.274 C 
BRANCH  25  26
HETATM   26  C           1     -23.213  -4.763 -10.352  0.00  0.00     0.044 C 
BRANCH  26  27
HETATM   27  C           1     -23.953  -3.872 -11.340  0.00  0.00     0.023 C 
BRANCH  27  28
HETATM   28  C           1     -22.955  -3.248 -12.307  0.00  0.00     0.138 C 
BRANCH  28  29
HETATM   29  N           1     -23.599  -2.142 -13.030  0.00  0.00    -0.227 N 
HETATM   30  C           1     -23.385  -1.985 -14.268  0.00  0.00     0.665 C 
HETATM   31  N           1     -23.941  -1.032 -14.891  0.00  0.00    -0.235 N 
HETATM   32  N           1     -22.597  -2.803 -14.900  0.00  0.00    -0.235 N 
HETATM   33  H           1     -23.763  -0.903 -15.918  0.00  0.00     0.174 HD
HETATM   34  H           1     -24.578  -0.372 -14.380  0.00  0.00     0.174 HD
HETATM   35  H           1     -22.420  -2.673 -15.922  0.00  0.00     0.174 HD
HETATM   36  H           1     -22.139  -3.588 -14.385  0.00  0.00     0.174 HD
HETATM   37  H           1     -24.237  -1.482 -12.520  0.00  0.00     0.177 HD
ENDBRANCH  28  29
ENDBRANCH  27  28
ENDBRANCH  26  27
ENDBRANCH  25  26
BRANCH  25  38
HETATM   38  N           1     -24.545  -3.221  -8.960  0.00  0.00    -0.067 N 
HETATM   39  H           1     -25.214  -3.295  -9.759  0.00  0.00     0.275 HD
HETATM   40  H           1     -25.079  -3.160  -8.064  0.00  0.00     0.275 HD
HETATM   41  H           1     -23.959  -2.364  -9.076  0.00  0.00     0.275 HD
ENDBRANCH  25  38
ENDBRANCH   4  25
TORSDOF 18
ENDMDL
MODEL 2
REMARK VINA RESULT:      -7.0      1.999      9.395
REMARK  18 active torsions:
REMARK  status: ('A' for Active; 'I' for Inactive)
REMARK    1  A    between atoms: C_1  and  C_37 
REMARK    2  A    between atoms: C_1  and  C_2 
REMARK    3  A    between atoms: C_1  and  N_39 
REMARK    4  A    between atoms: C_2  and  C_3 
REMARK    5  A    between atoms: C_3  and  C_41 
REMARK    6  A    between atoms: N_4  and  C_5 
REMARK    7  A    between atoms: C_5  and  C_6 
REMARK    8  A    between atoms: C_6  and  C_7 
REMARK    9  A    between atoms: C_7  and  C_8 
REMARK   10  A    between atoms: C_8  and  C_9 
REMARK   11  A    between atoms: C_9  and  C_10 
REMARK   12  A    between atoms: C_9  and  N_13 
REMARK   13  A    between atoms: N_13  and  C_14 
REMARK   14  A    between atoms: C_14  and  C_15 
REMARK   15  A    between atoms: C_15  and  C_24 
REMARK   16  A    between atoms: C_17  and  C_24 
REMARK       I    between atoms: C_21  and  N_22 
REMARK       I    between atoms: C_21  and  N_23 
REMARK   17  A    between atoms: C_24  and  N_36 
REMARK       I    between atoms: N_36  and  C_37 
REMARK   18  A    between atoms: N_40  and  C_41 
ROOT
HETATM    1  H           1     -20.358  -4.811  -4.529  0.00  0.00     0.163 HD
HETATM    2  O           1     -22.205  -7.327  -4.851  0.00  0.00    -0.271 OA
HETATM    3  N           1     -20.929  -5.500  -5.002  0.00  0.00    -0.345 N 
HETATM    4  C           1     -21.523  -6.505  -4.286  0.00  0.00     0.249 C 
ENDROOT
BRANCH   3   5
HETATM    5  C           1     -21.117  -5.423  -6.437  0.00  0.00     0.187 C 
BRANCH   5   6
HETATM    6  C           1     -21.491  -3.999  -6.823  0.00  0.00     0.066 C 
BRANCH   6   7
HETATM    7  C           1     -22.693  -4.024  -7.760  0.00  0.00     0.273 C 
BRANCH   7   8
HETATM    8  N           1     -22.255  -4.346  -9.092  0.00  0.00     0.098 N 
HETATM    9  H           1     -22.450  -5.329  -9.286  0.00  0.00     0.317 HD
BRANCH   8  10
HETATM   10  C           1     -22.998  -3.521 -10.007  0.00  0.00     0.320 C 
BRANCH  10  11
HETATM   11  C           1     -22.553  -3.818 -11.433  0.00  0.00     0.047 C 
BRANCH  11  12
HETATM   12  C           1     -22.595  -2.538 -12.256  0.00  0.00     0.004 C 
BRANCH  12  13
HETATM   13  C           1     -23.789  -2.578 -13.200  0.00  0.00     0.027 C 
BRANCH  13  14
HETATM   14  C           1     -23.409  -1.939 -14.529  0.00  0.00     0.229 C 
BRANCH  14  15
HETATM   15  N           1     -24.208  -0.686 -14.729  0.00  0.00    -0.079 N 
HETATM   16  H           1     -23.709   0.119 -14.287  0.00  0.00     0.274 HD
HETATM   17  H           1     -24.322  -0.506 -15.752  0.00  0.00     0.274 HD
HETATM   18  H           1     -25.148  -0.798 -14.287  0.00  0.00     0.274 HD
ENDBRANCH  14  15
ENDBRANCH  13  14
ENDBRANCH  12  13
ENDBRANCH  11  12
ENDBRANCH  10  11
BRANCH  10  19
HETATM   19  C           1     -24.471  -3.817  -9.867  0.00  0.00     0.207 C 
HETATM   20  O           1     -24.879  -4.997  -9.923  0.00  0.00    -0.646 OA
HETATM   21  O           1     -25.283  -2.883  -9.694  0.00  0.00    -0.646 OA
ENDBRANCH  10  19
ENDBRANCH   8  10
ENDBRANCH   7   8
ENDBRANCH   6   7
ENDBRANCH   5   6
BRANCH   5  22
HETATM   22  C           1     -19.837  -5.815  -7.133  0.00  0.00     0.196 C 
HETATM   23  O           1     -19.332  -6.939  -6.927  0.00  0.00    -0.646 OA
HETATM   24  O           1     -19.282  -5.014  -7.916  0.00  0.00    -0.646 OA
ENDBRANCH   5  22
ENDBRANCH   3   5
BRANCH   4  25
HETATM   25  C           1     -21.328  -6.585  -2.791  0.00  0.00     0.274 C 
BRANCH  25  26
HETATM   26  C           1     -21.314  -8.044  -2.358  0.00  0.00     0.044 C 
BRANCH  26  27
HETATM   27  C           1     -19.900  -8.441  -1.953  0.00  0.00     0.023 C 
BRANCH  27  28
HETATM   28  C           1     -19.303  -9.352  -3.018  0.00  0.00     0.138 C 
BRANCH  28  29
HETATM   29  N           1     -20.356  -9.764  -3.956  0.00  0.00    -0.227 N 
HETATM   30  C           1     -20.091  -9.897  -5.187  0.00  0.00     0.665 C 
HETATM   31  N           1     -20.999 -10.253  -5.996  0.00  0.00    -0.235 N 
HETATM   32  N           1     -18.886  -9.670  -5.620  0.00  0.00    -0.235 N 
HETATM   33  H           1     -20.777 -10.363  -7.016  0.00  0.00     0.174 HD
HETATM   34  H           1     -21.971 -10.437  -5.646  0.00  0.00     0.174 HD
HETATM   35  H           1     -18.667  -9.779  -6.636  0.00  0.00     0.174 HD
HETATM   36  H           1     -18.138  -9.377  -4.952  0.00  0.00     0.174 HD
HETATM   37  H           1     -21.329  -9.949  -3.607  0.00  0.00     0.177 HD
ENDBRANCH  28  29
ENDBRANCH  27  28
ENDBRANCH  26  27
ENDBRANCH  25  26
BRANCH  25  38
HETATM   38  N           1     -22.452  -5.869  -2.102  0.00  0.00    -0.067 N 
HETATM   39  H           1     -22.417  -6.073  -1.078  0.00  0.00     0.275 HD
HETATM   40  H           1     -22.357  -4.841  -2.256  0.00  0.00     0.275 HD
HETATM   41  H           1     -23.364  -6.198  -2.491  0.00  0.00     0.275 HD
ENDBRANCH  25  38
ENDBRANCH   4  25
TORSDOF 18
ENDMDL
MODEL 3
REMARK VINA RESULT:      -6.7      2.471      3.435
REMARK  18 active torsions:
REMARK  status: ('A' for Active; 'I' for Inactive)
REMARK    1  A    between atoms: C_1  and  C_37 
REMARK    2  A    between atoms: C_1  and  C_2 
REMARK    3  A    between atoms: C_1  and  N_39 
REMARK    4  A    between atoms: C_2  and  C_3 
REMARK    5  A    between atoms: C_3  and  C_41 
REMARK    6  A    between atoms: N_4  and  C_5 
REMARK    7  A    between atoms: C_5  and  C_6 
REMARK    8  A    between atoms: C_6  and  C_7 
REMARK    9  A    between atoms: C_7  and  C_8 
REMARK   10  A    between atoms: C_8  and  C_9 
REMARK   11  A    between atoms: C_9  and  C_10 
REMARK   12  A    between atoms: C_9  and  N_13 
REMARK   13  A    between atoms: N_13  and  C_14 
REMARK   14  A    between atoms: C_14  and  C_15 
REMARK   15  A    between atoms: C_15  and  C_24 
REMARK   16  A    between atoms: C_17  and  C_24 
REMARK       I    between atoms: C_21  and  N_22 
REMARK       I    between atoms: C_21  and  N_23 
REMARK   17  A    between atoms: C_24  and  N_36 
REMARK       I    between atoms: N_36  and  C_37 
REMARK   18  A    between atoms: N_40  and  C_41 
ROOT
HETATM    1  H           1     -22.648  -6.028  -6.496  0.00  0.00     0.163 HD
HETATM    2  O           1     -19.704  -5.111  -7.074  0.00  0.00    -0.271 OA
HETATM    3  N           1     -21.651  -5.930  -6.349  0.00  0.00    -0.345 N 
HETATM    4  C           1     -20.894  -5.228  -7.249  0.00  0.00     0.249 C 
ENDROOT
BRANCH   3   5
HETATM    5  C           1     -21.026  -6.531  -5.188  0.00  0.00     0.187 C 
BRANCH   5   6
HETATM    6  C           1     -22.028  -6.582  -4.043  0.00  0.00     0.066 C 
BRANCH   6   7
HETATM    7  C           1     -21.320  -6.261  -2.732  0.00  0.00     0.273 C 
BRANCH   7   8
HETATM    8  N           1     -22.237  -6.430  -1.638  0.00  0.00     0.098 N 
HETATM    9  H           1     -23.187  -6.238  -1.958  0.00  0.00     0.317 HD
BRANCH   8  10
HETATM   10  C           1     -22.146  -7.796  -1.198  0.00  0.00     0.320 C 
BRANCH  10  11
HETATM   11  C           1     -20.727  -8.305  -1.417  0.00  0.00     0.047 C 
BRANCH  11  12
HETATM   12  C           1     -20.762  -9.803  -1.694  0.00  0.00     0.004 C 
BRANCH  12  13
HETATM   13  C           1     -21.928 -10.123  -2.619  0.00  0.00     0.027 C 
BRANCH  13  14
HETATM   14  C           1     -22.622 -11.391  -2.143  0.00  0.00     0.229 C 
BRANCH  14  15
HETATM   15  N           1     -23.728 -11.032  -1.195  0.00  0.00    -0.079 N 
HETATM   16  H           1     -24.622 -10.930  -1.726  0.00  0.00     0.274 HD
HETATM   17  H           1     -23.831 -11.788  -0.480  0.00  0.00     0.274 HD
HETATM   18  H           1     -23.500 -10.130  -0.720  0.00  0.00     0.274 HD
ENDBRANCH  14  15
ENDBRANCH  13  14
ENDBRANCH  12  13
ENDBRANCH  11  12
ENDBRANCH  10  11
BRANCH  10  19
HETATM   19  C           1     -22.487  -7.874   0.270  0.00  0.00     0.207 C 
HETATM   20  O           1     -23.676  -7.767   0.642  0.00  0.00    -0.646 OA
HETATM   21  O           1     -21.582  -8.047   1.114  0.00  0.00    -0.646 OA
ENDBRANCH  10  19
ENDBRANCH   8  10
ENDBRANCH   7   8
ENDBRANCH   6   7
ENDBRANCH   5   6
BRANCH   5  22
HETATM   22  C           1     -20.577  -7.931  -5.528  0.00  0.00     0.196 C 
HETATM   23  O           1     -21.423  -8.811  -5.795  0.00  0.00    -0.646 OA
HETATM   24  O           1     -19.358  -8.210  -5.542  0.00  0.00    -0.646 OA
ENDBRANCH   5  22
ENDBRANCH   3   5
BRANCH   4  25
HETATM   25  C           1     -21.545  -4.602  -8.458  0.00  0.00     0.274 C 
BRANCH  25  26
HETATM   26  C           1     -20.472  -4.010  -9.363  0.00  0.00     0.044 C 
BRANCH  26  27
HETATM   27  C           1     -20.755  -4.399 -10.808  0.00  0.00     0.023 C 
BRANCH  27  28
HETATM   28  C           1     -21.855  -3.506 -11.369  0.00  0.00     0.138 C 
BRANCH  28  29
HETATM   29  N           1     -21.826  -3.555 -12.837  0.00  0.00    -0.227 N 
HETATM   30  C           1     -22.700  -2.933 -13.509  0.00  0.00     0.665 C 
HETATM   31  N           1     -22.675  -2.975 -14.775  0.00  0.00    -0.235 N 
HETATM   32  N           1     -23.622  -2.248 -12.900  0.00  0.00    -0.235 N 
HETATM   33  H           1     -23.399  -2.458 -15.331  0.00  0.00     0.174 HD
HETATM   34  H           1     -21.929  -3.527 -15.267  0.00  0.00     0.174 HD
HETATM   35  H           1     -24.344  -1.735 -13.454  0.00  0.00     0.174 HD
HETATM   36  H           1     -23.642  -2.214 -11.856  0.00  0.00     0.174 HD
HETATM   37  H           1     -21.081  -4.107 -13.330  0.00  0.00     0.177 HD
ENDBRANCH  28  29
ENDBRANCH  27  28
ENDBRANCH  26  27
ENDBRANCH  25  26
BRANCH  25  38
HETATM   38  N           1     -22.480  -3.515  -8.015  0.00  0.00    -0.067 N 
HETATM   39  H           1     -22.151  -3.123  -7.104  0.00  0.00     0.275 HD
HETATM   40  H           1     -22.498  -2.758  -8.734  0.00  0.00     0.275 HD
HETATM   41  H           1     -23.440  -3.909  -7.898  0.00  0.00     0.275 HD
ENDBRANCH  25  38
ENDBRANCH   4  25
TORSDOF 18
ENDMDL
MODEL 4
REMARK VINA RESULT:      -6.6      2.470      3.702
REMARK  18 active torsions:
REMARK  status: ('A' for Active; 'I' for Inactive)
REMARK    1  A    between atoms: C_1  and  C_37 
REMARK    2  A    between atoms: C_1  and  C_2 
REMARK    3  A    between atoms: C_1  and  N_39 
REMARK    4  A    between atoms: C_2  and  C_3 
REMARK    5  A    between atoms: C_3  and  C_41 
REMARK    6  A    between atoms: N_4  and  C_5 
REMARK    7  A    between atoms: C_5  and  C_6 
REMARK    8  A    between atoms: C_6  and  C_7 
REMARK    9  A    between atoms: C_7  and  C_8 
REMARK   10  A    between atoms: C_8  and  C_9 
REMARK   11  A    between atoms: C_9  and  C_10 
REMARK   12  A    between atoms: C_9  and  N_13 
REMARK   13  A    between atoms: N_13  and  C_14 
REMARK   14  A    between atoms: C_14  and  C_15 
REMARK   15  A    between atoms: C_15  and  C_24 
REMARK   16  A    between atoms: C_17  and  C_24 
REMARK       I    between atoms: C_21  and  N_22 
REMARK       I    between atoms: C_21  and  N_23 
REMARK   17  A    between atoms: C_24  and  N_36 
REMARK       I    between atoms: N_36  and  C_37 
REMARK   18  A    between atoms: N_40  and  C_41 
ROOT
HETATM    1  H           1     -22.622  -6.172  -6.580  0.00  0.00     0.163 HD
HETATM    2  O           1     -19.828  -4.757  -6.760  0.00  0.00    -0.271 OA
HETATM    3  N           1     -21.685  -5.909  -6.301  0.00  0.00    -0.345 N 
HETATM    4  C           1     -20.946  -5.070  -7.093  0.00  0.00     0.249 C 
ENDROOT
BRANCH   3   5
HETATM    5  C           1     -21.125  -6.420  -5.066  0.00  0.00     0.187 C 
BRANCH   5   6
HETATM    6  C           1     -22.161  -6.309  -3.956  0.00  0.00     0.066 C 
BRANCH   6   7
HETATM    7  C           1     -21.456  -6.122  -2.618  0.00  0.00     0.273 C 
BRANCH   7   8
HETATM    8  N           1     -22.325  -6.549  -1.555  0.00  0.00     0.098 N 
HETATM    9  H           1     -23.296  -6.469  -1.856  0.00  0.00     0.317 HD
BRANCH   8  10
HETATM   10  C           1     -22.024  -7.926  -1.271  0.00  0.00     0.320 C 
BRANCH  10  11
HETATM   11  C           1     -20.527  -8.160  -1.424  0.00  0.00     0.047 C 
BRANCH  11  12
HETATM   12  C           1     -20.272  -9.623  -1.764  0.00  0.00     0.004 C 
BRANCH  12  13
HETATM   13  C           1     -18.891  -9.767  -2.390  0.00  0.00     0.027 C 
BRANCH  13  14
HETATM   14  C           1     -18.926 -10.855  -3.454  0.00  0.00     0.229 C 
BRANCH  14  15
HETATM   15  N           1     -18.122 -10.420  -4.643  0.00  0.00    -0.079 N 
HETATM   16  H           1     -18.326 -11.050  -5.451  0.00  0.00     0.274 HD
HETATM   17  H           1     -18.378  -9.438  -4.894  0.00  0.00     0.274 HD
HETATM   18  H           1     -17.105 -10.468  -4.412  0.00  0.00     0.274 HD
ENDBRANCH  14  15
ENDBRANCH  13  14
ENDBRANCH  12  13
ENDBRANCH  11  12
ENDBRANCH  10  11
BRANCH  10  19
HETATM   19  C           1     -22.442  -8.251   0.143  0.00  0.00     0.207 C 
HETATM   20  O           1     -21.754  -7.846   1.105  0.00  0.00    -0.646 OA
HETATM   21  O           1     -23.475  -8.922   0.351  0.00  0.00    -0.646 OA
ENDBRANCH  10  19
ENDBRANCH   8  10
ENDBRANCH   7   8
ENDBRANCH   6   7
ENDBRANCH   5   6
BRANCH   5  22
HETATM   22  C           1     -20.738  -7.867  -5.251  0.00  0.00     0.196 C 
HETATM   23  O           1     -21.531  -8.773  -4.920  0.00  0.00    -0.646 OA
HETATM   24  O           1     -19.623  -8.158  -5.735  0.00  0.00    -0.646 OA
ENDBRANCH   5  22
ENDBRANCH   3   5
BRANCH   4  25
HETATM   25  C           1     -21.529  -4.538  -8.379  0.00  0.00     0.274 C 
BRANCH  25  26
HETATM   26  C           1     -20.402  -4.095  -9.303  0.00  0.00     0.044 C 
BRANCH  26  27
HETATM   27  C           1     -20.763  -4.432 -10.743  0.00  0.00     0.023 C 
BRANCH  27  28
HETATM   28  C           1     -20.915  -3.145 -11.544  0.00  0.00     0.138 C 
BRANCH  28  29
HETATM   29  N           1     -22.336  -2.778 -11.617  0.00  0.00    -0.227 N 
HETATM   30  C           1     -22.960  -2.877 -12.715  0.00  0.00     0.665 C 
HETATM   31  N           1     -24.185  -2.560 -12.778  0.00  0.00    -0.235 N 
HETATM   32  N           1     -22.343  -3.305 -13.776  0.00  0.00    -0.235 N 
HETATM   33  H           1     -24.701  -2.643 -13.688  0.00  0.00     0.174 HD
HETATM   34  H           1     -24.682  -2.215 -11.920  0.00  0.00     0.174 HD
HETATM   35  H           1     -22.858  -3.386 -14.682  0.00  0.00     0.174 HD
HETATM   36  H           1     -21.333  -3.565 -13.723  0.00  0.00     0.174 HD
HETATM   37  H           1     -22.834  -2.433 -10.760  0.00  0.00     0.177 HD
ENDBRANCH  28  29
ENDBRANCH  27  28
ENDBRANCH  26  27
ENDBRANCH  25  26
BRANCH  25  38
HETATM   38  N           1     -22.417  -3.367  -8.078  0.00  0.00    -0.067 N 
HETATM   39  H           1     -21.846  -2.492  -8.059  0.00  0.00     0.275 HD
HETATM   40  H           1     -23.151  -3.288  -8.816  0.00  0.00     0.275 HD
HETATM   41  H           1     -22.871  -3.505  -7.147  0.00  0.00     0.275 HD
ENDBRANCH  25  38
ENDBRANCH   4  25
TORSDOF 18
ENDMDL
MODEL 5
REMARK VINA RESULT:      -6.6      7.225     10.915
REMARK  18 active torsions:
REMARK  status: ('A' for Active; 'I' for Inactive)
REMARK    1  A    between atoms: C_1  and  C_37 
REMARK    2  A    between atoms: C_1  and  C_2 
REMARK    3  A    between atoms: C_1  and  N_39 
REMARK    4  A    between atoms: C_2  and  C_3 
REMARK    5  A    between atoms: C_3  and  C_41 
REMARK    6  A    between atoms: N_4  and  C_5 
REMARK    7  A    between atoms: C_5  and  C_6 
REMARK    8  A    between atoms: C_6  and  C_7 
REMARK    9  A    between atoms: C_7  and  C_8 
REMARK   10  A    between atoms: C_8  and  C_9 
REMARK   11  A    between atoms: C_9  and  C_10 
REMARK   12  A    between atoms: C_9  and  N_13 
REMARK   13  A    between atoms: N_13  and  C_14 
REMARK   14  A    between atoms: C_14  and  C_15 
REMARK   15  A    between atoms: C_15  and  C_24 
REMARK   16  A    between atoms: C_17  and  C_24 
REMARK       I    between atoms: C_21  and  N_22 
REMARK       I    between atoms: C_21  and  N_23 
REMARK   17  A    between atoms: C_24  and  N_36 
REMARK       I    between atoms: N_36  and  C_37 
REMARK   18  A    between atoms: N_40  and  C_41 
ROOT
HETATM    1  H           1     -27.225  -7.485 -15.600  0.00  0.00     0.163 HD
HETATM    2  O           1     -27.288  -5.731 -18.201  0.00  0.00    -0.271 OA
HETATM    3  N           1     -26.881  -6.856 -16.316  0.00  0.00    -0.345 N 
HETATM    4  C           1     -27.699  -6.481 -17.347  0.00  0.00     0.249 C 
ENDROOT
BRANCH   3   5
HETATM    5  C           1     -25.522  -6.356 -16.248  0.00  0.00     0.187 C 
BRANCH   5   6
HETATM    6  C           1     -25.106  -6.216 -14.790  0.00  0.00     0.066 C 
BRANCH   6   7
HETATM    7  C           1     -25.035  -4.740 -14.420  0.00  0.00     0.273 C 
BRANCH   7   8
HETATM    8  N           1     -23.917  -4.518 -13.543  0.00  0.00     0.098 N 
HETATM    9  H           1     -23.060  -4.831 -14.000  0.00  0.00     0.317 HD
BRANCH   8  10
HETATM   10  C           1     -23.836  -3.105 -13.288  0.00  0.00     0.320 C 
BRANCH  10  11
HETATM   11  C           1     -22.796  -2.845 -12.206  0.00  0.00     0.047 C 
BRANCH  11  12
HETATM   12  C           1     -22.303  -4.172 -11.644  0.00  0.00     0.004 C 
BRANCH  12  13
HETATM   13  C           1     -22.540  -4.207 -10.140  0.00  0.00     0.027 C 
BRANCH  13  14
HETATM   14  C           1     -24.019  -4.440  -9.864  0.00  0.00     0.229 C 
BRANCH  14  15
HETATM   15  N           1     -24.551  -3.327  -9.011  0.00  0.00    -0.079 N 
HETATM   16  H           1     -23.951  -2.480  -9.130  0.00  0.00     0.274 HD
HETATM   17  H           1     -25.530  -3.104  -9.301  0.00  0.00     0.274 HD
HETATM   18  H           1     -24.542  -3.621  -8.009  0.00  0.00     0.274 HD
ENDBRANCH  14  15
ENDBRANCH  13  14
ENDBRANCH  12  13
ENDBRANCH  11  12
ENDBRANCH  10  11
BRANCH  10  19
HETATM   19  C           1     -23.434  -2.388 -14.554  0.00  0.00     0.207 C 
HETATM   20  O           1     -22.506  -2.839 -15.259  0.00  0.00    -0.646 OA
HETATM   21  O           1     -24.030  -1.345 -14.898  0.00  0.00    -0.646 OA
ENDBRANCH  10  19
ENDBRANCH   8  10
ENDBRANCH   7   8
ENDBRANCH   6   7
ENDBRANCH   5   6
BRANCH   5  22
HETATM   22  C           1     -24.596  -7.320 -16.947  0.00  0.00     0.196 C 
HETATM   23  O           1     -24.153  -8.315 -16.335  0.00  0.00    -0.646 OA
HETATM   24  O           1     -24.273  -7.123 -18.139  0.00  0.00    -0.646 OA
ENDBRANCH   5  22
ENDBRANCH   3   5
BRANCH   4  25
HETATM   25  C           1     -29.114  -7.002 -17.417  0.00  0.00     0.274 C 
BRANCH  25  26
HETATM   26  C           1     -30.021  -6.128 -16.561  0.00  0.00     0.044 C 
BRANCH  26  27
HETATM   27  C           1     -31.336  -5.890 -17.292  0.00  0.00     0.023 C 
BRANCH  27  28
HETATM   28  C           1     -31.846  -4.489 -16.978  0.00  0.00     0.138 C 
BRANCH  28  29
HETATM   29  N           1     -32.469  -4.482 -15.647  0.00  0.00    -0.227 N 
HETATM   30  C           1     -33.639  -4.018 -15.499  0.00  0.00     0.665 C 
HETATM   31  N           1     -34.176  -4.012 -14.352  0.00  0.00    -0.235 N 
HETATM   32  N           1     -34.287  -3.551 -16.524  0.00  0.00    -0.235 N 
HETATM   33  H           1     -35.145  -3.628 -14.230  0.00  0.00     0.174 HD
HETATM   34  H           1     -33.652  -4.390 -13.524  0.00  0.00     0.174 HD
HETATM   35  H           1     -35.252  -3.168 -16.401  0.00  0.00     0.174 HD
HETATM   36  H           1     -33.843  -3.556 -17.469  0.00  0.00     0.174 HD
HETATM   37  H           1     -31.946  -4.860 -14.819  0.00  0.00     0.177 HD
ENDBRANCH  28  29
ENDBRANCH  27  28
ENDBRANCH  26  27
ENDBRANCH  25  26
BRANCH  25  38
HETATM   38  N           1     -29.153  -8.412 -16.907  0.00  0.00    -0.067 N 
HETATM   39  H           1     -28.448  -8.526 -16.144  0.00  0.00     0.275 HD
HETATM   40  H           1     -30.106  -8.621 -16.535  0.00  0.00     0.275 HD
HETATM   41  H           1     -28.930  -9.070 -17.687  0.00  0.00     0.275 HD
ENDBRANCH  25  38
ENDBRANCH   4  25
TORSDOF 18
ENDMDL
MODEL 6
REMARK VINA RESULT:      -6.5      2.609      4.724
REMARK  18 active torsions:
REMARK  status: ('A' for Active; 'I' for Inactive)
REMARK    1  A    between atoms: C_1  and  C_37 
REMARK    2  A    between atoms: C_1  and  C_2 
REMARK    3  A    between atoms: C_1  and  N_39 
REMARK    4  A    between atoms: C_2  and  C_3 
REMARK    5  A    between atoms: C_3  and  C_41 
REMARK    6  A    between atoms: N_4  and  C_5 
REMARK    7  A    between atoms: C_5  and  C_6 
REMARK    8  A    between atoms: C_6  and  C_7 
REMARK    9  A    between atoms: C_7  and  C_8 
REMARK   10  A    between atoms: C_8  and  C_9 
REMARK   11  A    between atoms: C_9  and  C_10 
REMARK   12  A    between atoms: C_9  and  N_13 
REMARK   13  A    between atoms: N_13  and  C_14 
REMARK   14  A    between atoms: C_14  and  C_15 
REMARK   15  A    between atoms: C_15  and  C_24 
REMARK   16  A    between atoms: C_17  and  C_24 
REMARK       I    between atoms: C_21  and  N_22 
REMARK       I    between atoms: C_21  and  N_23 
REMARK   17  A    between atoms: C_24  and  N_36 
REMARK       I    between atoms: N_36  and  C_37 
REMARK   18  A    between atoms: N_40  and  C_41 
ROOT
HETATM    1  H           1     -21.250  -7.980  -4.470  0.00  0.00     0.163 HD
HETATM    2  O           1     -19.437  -6.899  -6.792  0.00  0.00    -0.271 OA
HETATM    3  N           1     -20.457  -7.939  -5.099  0.00  0.00    -0.345 N 
HETATM    4  C           1     -20.383  -6.948  -6.041  0.00  0.00     0.249 C 
ENDROOT
BRANCH   3   5
HETATM    5  C           1     -19.403  -8.929  -5.004  0.00  0.00     0.187 C 
BRANCH   5   6
HETATM    6  C           1     -18.995  -9.095  -3.546  0.00  0.00     0.066 C 
BRANCH   6   7
HETATM    7  C           1     -20.152  -9.696  -2.758  0.00  0.00     0.273 C 
BRANCH   7   8
HETATM    8  N           1     -20.330  -8.963  -1.534  0.00  0.00     0.098 N 
HETATM    9  H           1     -19.767  -8.112  -1.561  0.00  0.00     0.317 HD
BRANCH   8  10
HETATM   10  C           1     -21.721  -8.612  -1.433  0.00  0.00     0.320 C 
BRANCH  10  11
HETATM   11  C           1     -22.244  -9.005  -0.057  0.00  0.00     0.047 C 
BRANCH  11  12
HETATM   12  C           1     -23.369 -10.020  -0.211  0.00  0.00     0.004 C 
BRANCH  12  13
HETATM   13  C           1     -22.838 -11.417   0.081  0.00  0.00     0.027 C 
BRANCH  13  14
HETATM   14  C           1     -23.370 -12.391  -0.962  0.00  0.00     0.229 C 
BRANCH  14  15
HETATM   15  N           1     -23.046 -11.881  -2.335  0.00  0.00    -0.079 N 
HETATM   16  H           1     -22.832 -10.860  -2.286  0.00  0.00     0.274 HD
HETATM   17  H           1     -22.216 -12.394  -2.708  0.00  0.00     0.274 HD
HETATM   18  H           1     -23.865 -12.035  -2.965  0.00  0.00     0.274 HD
ENDBRANCH  14  15
ENDBRANCH  13  14
ENDBRANCH  12  13
ENDBRANCH  11  12
ENDBRANCH  10  11
BRANCH  10  19
HETATM   19  C           1     -21.879  -7.124  -1.625  0.00  0.00     0.207 C 
HETATM   20  O           1     -22.725  -6.494  -0.954  0.00  0.00    -0.646 OA
HETATM   21  O           1     -21.165  -6.521  -2.454  0.00  0.00    -0.646 OA
ENDBRANCH  10  19
ENDBRANCH   8  10
ENDBRANCH   7   8
ENDBRANCH   6   7
ENDBRANCH   5   6
BRANCH   5  22
HETATM   22  C           1     -19.902 -10.248  -5.541  0.00  0.00     0.196 C 
HETATM   23  O           1     -21.058 -10.335  -6.007  0.00  0.00    -0.646 OA
HETATM   24  O           1     -19.159 -11.253  -5.519  0.00  0.00    -0.646 OA
ENDBRANCH   5  22
ENDBRANCH   3   5
BRANCH   4  25
HETATM   25  C           1     -21.480  -5.916  -6.140  0.00  0.00     0.274 C 
BRANCH  25  26
HETATM   26  C           1     -20.870  -4.521  -6.131  0.00  0.00     0.044 C 
BRANCH  26  27
HETATM   27  C           1     -21.481  -3.691  -7.252  0.00  0.00     0.023 C 
BRANCH  27  28
HETATM   28  C           1     -22.357  -4.582  -8.123  0.00  0.00     0.138 C 
BRANCH  28  29
HETATM   29  N           1     -23.651  -3.923  -8.353  0.00  0.00    -0.227 N 
HETATM   30  C           1     -24.261  -4.091  -9.450  0.00  0.00     0.665 C 
HETATM   31  N           1     -25.376  -3.523  -9.648  0.00  0.00    -0.235 N 
HETATM   32  N           1     -23.745  -4.849 -10.371  0.00  0.00    -0.235 N 
HETATM   33  H           1     -25.882  -3.664 -10.556  0.00  0.00     0.174 HD
HETATM   34  H           1     -25.793  -2.912  -8.903  0.00  0.00     0.174 HD
HETATM   35  H           1     -24.248  -4.989 -11.276  0.00  0.00     0.174 HD
HETATM   36  H           1     -22.825  -5.317 -10.207  0.00  0.00     0.174 HD
HETATM   37  H           1     -24.068  -3.311  -7.609  0.00  0.00     0.177 HD
ENDBRANCH  28  29
ENDBRANCH  27  28
ENDBRANCH  26  27
ENDBRANCH  25  26
BRANCH  25  38
HETATM   38  N           1     -22.410  -6.063  -4.972  0.00  0.00    -0.067 N 
HETATM   39  H           1     -23.160  -5.338  -5.031  0.00  0.00     0.275 HD
HETATM   40  H           1     -22.843  -7.013  -4.989  0.00  0.00     0.275 HD
HETATM   41  H           1     -21.875  -5.938  -4.084  0.00  0.00     0.275 HD
ENDBRANCH  25  38
ENDBRANCH   4  25
TORSDOF 18
ENDMDL
MODEL 7
REMARK VINA RESULT:      -6.4      2.089      3.050
REMARK  18 active torsions:
REMARK  status: ('A' for Active; 'I' for Inactive)
REMARK    1  A    between atoms: C_1  and  C_37 
REMARK    2  A    between atoms: C_1  and  C_2 
REMARK    3  A    between atoms: C_1  and  N_39 
REMARK    4  A    between atoms: C_2  and  C_3 
REMARK    5  A    between atoms: C_3  and  C_41 
REMARK    6  A    between atoms: N_4  and  C_5 
REMARK    7  A    between atoms: C_5  and  C_6 
REMARK    8  A    between atoms: C_6  and  C_7 
REMARK    9  A    between atoms: C_7  and  C_8 
REMARK   10  A    between atoms: C_8  and  C_9 
REMARK   11  A    between atoms: C_9  and  C_10 
REMARK   12  A    between atoms: C_9  and  N_13 
REMARK   13  A    between atoms: N_13  and  C_14 
REMARK   14  A    between atoms: C_14  and  C_15 
REMARK   15  A    between atoms: C_15  and  C_24 
REMARK   16  A    between atoms: C_17  and  C_24 
REMARK       I    between atoms: C_21  and  N_22 
REMARK       I    between atoms: C_21  and  N_23 
REMARK   17  A    between atoms: C_24  and  N_36 
REMARK       I    between atoms: N_36  and  C_37 
REMARK   18  A    between atoms: N_40  and  C_41 
ROOT
HETATM    1  H           1     -21.997  -6.056  -9.438  0.00  0.00     0.163 HD
HETATM    2  O           1     -23.222  -3.345  -8.442  0.00  0.00    -0.271 OA
HETATM    3  N           1     -22.093  -5.223  -8.870  0.00  0.00    -0.345 N 
HETATM    4  C           1     -23.108  -4.339  -9.120  0.00  0.00     0.249 C 
ENDROOT
BRANCH   3   5
HETATM    5  C           1     -21.157  -4.968  -7.794  0.00  0.00     0.187 C 
BRANCH   5   6
HETATM    6  C           1     -21.016  -6.218  -6.937  0.00  0.00     0.066 C 
BRANCH   6   7
HETATM    7  C           1     -20.973  -5.825  -5.465  0.00  0.00     0.273 C 
BRANCH   7   8
HETATM    8  N           1     -22.156  -6.308  -4.805  0.00  0.00     0.098 N 
HETATM    9  H           1     -22.803  -6.685  -5.499  0.00  0.00     0.317 HD
BRANCH   8  10
HETATM   10  C           1     -21.756  -7.355  -3.904  0.00  0.00     0.320 C 
BRANCH  10  11
HETATM   11  C           1     -20.378  -7.868  -4.303  0.00  0.00     0.047 C 
BRANCH  11  12
HETATM   12  C           1     -20.349  -9.387  -4.192  0.00  0.00     0.004 C 
BRANCH  12  13
HETATM   13  C           1     -21.162  -9.995  -5.327  0.00  0.00     0.027 C 
BRANCH  13  14
HETATM   14  C           1     -20.408 -11.179  -5.916  0.00  0.00     0.229 C 
BRANCH  14  15
HETATM   15  N           1     -19.035 -10.741  -6.334  0.00  0.00    -0.079 N 
HETATM   16  H           1     -18.862 -11.035  -7.321  0.00  0.00     0.274 HD
HETATM   17  H           1     -18.966  -9.701  -6.262  0.00  0.00     0.274 HD
HETATM   18  H           1     -18.324 -11.183  -5.710  0.00  0.00     0.274 HD
ENDBRANCH  14  15
ENDBRANCH  13  14
ENDBRANCH  12  13
ENDBRANCH  11  12
ENDBRANCH  10  11
BRANCH  10  19
HETATM   19  C           1     -21.704  -6.814  -2.496  0.00  0.00     0.207 C 
HETATM   20  O           1     -22.391  -5.818  -2.185  0.00  0.00    -0.646 OA
HETATM   21  O           1     -20.975  -7.362  -1.642  0.00  0.00    -0.646 OA
ENDBRANCH  10  19
ENDBRANCH   8  10
ENDBRANCH   7   8
ENDBRANCH   6   7
ENDBRANCH   5   6
BRANCH   5  22
HETATM   22  C           1     -19.813  -4.600  -8.374  0.00  0.00     0.196 C 
HETATM   23  O           1     -19.649  -4.588  -9.612  0.00  0.00    -0.646 OA
HETATM   24  O           1     -18.864  -4.307  -7.615  0.00  0.00    -0.646 OA
ENDBRANCH   5  22
ENDBRANCH   3   5
BRANCH   4  25
HETATM   25  C           1     -24.083  -4.605 -10.241  0.00  0.00     0.274 C 
BRANCH  25  26
HETATM   26  C           1     -23.343  -4.593 -11.572  0.00  0.00     0.044 C 
BRANCH  26  27
HETATM   27  C           1     -23.123  -3.154 -12.019  0.00  0.00     0.023 C 
BRANCH  27  28
HETATM   28  C           1     -23.338  -3.051 -13.524  0.00  0.00     0.138 C 
BRANCH  28  29
HETATM   29  N           1     -24.123  -1.845 -13.825  0.00  0.00    -0.227 N 
HETATM   30  C           1     -23.835  -1.139 -14.836  0.00  0.00     0.665 C 
HETATM   31  N           1     -24.511  -0.100 -15.096  0.00  0.00    -0.235 N 
HETATM   32  N           1     -22.847  -1.482 -15.608  0.00  0.00    -0.235 N 
HETATM   33  H           1     -24.273   0.484 -15.935  0.00  0.00     0.174 HD
HETATM   34  H           1     -25.310   0.176 -14.473  0.00  0.00     0.174 HD
HETATM   35  H           1     -22.609  -0.899 -16.442  0.00  0.00     0.174 HD
HETATM   36  H           1     -22.290  -2.339 -15.393  0.00  0.00     0.174 HD
HETATM   37  H           1     -24.922  -1.568 -13.202  0.00  0.00     0.177 HD
ENDBRANCH  28  29
ENDBRANCH  27  28
ENDBRANCH  26  27
ENDBRANCH  25  26
BRANCH  25  38
HETATM   38  N           1     -25.140  -3.541 -10.247  0.00  0.00    -0.067 N 
HETATM   39  H           1     -24.712  -2.624  -9.989  0.00  0.00     0.275 HD
HETATM   40  H           1     -25.559  -3.473 -11.201  0.00  0.00     0.275 HD
HETATM   41  H           1     -25.883  -3.785  -9.555  0.00  0.00     0.275 HD
ENDBRANCH  25  38
ENDBRANCH   4  25
TORSDOF 18
ENDMDL
MODEL 8
REMARK VINA RESULT:      -6.3      6.901     10.536
REMARK  18 active torsions:
REMARK  status: ('A' for Active; 'I' for Inactive)
REMARK    1  A    between atoms: C_1  and  C_37 
REMARK    2  A    between atoms: C_1  and  C_2 
REMARK    3  A    between atoms: C_1  and  N_39 
REMARK    4  A    between atoms: C_2  and  C_3 
REMARK    5  A    between atoms: C_3  and  C_41 
REMARK    6  A    between atoms: N_4  and  C_5 
REMARK    7  A    between atoms: C_5  and  C_6 
REMARK    8  A    between atoms: C_6  and  C_7 
REMARK    9  A    between atoms: C_7  and  C_8 
REMARK   10  A    between atoms: C_8  and  C_9 
REMARK   11  A    between atoms: C_9  and  C_10 
REMARK   12  A    between atoms: C_9  and  N_13 
REMARK   13  A    between atoms: N_13  and  C_14 
REMARK   14  A    between atoms: C_14  and  C_15 
REMARK   15  A    between atoms: C_15  and  C_24 
REMARK   16  A    between atoms: C_17  and  C_24 
REMARK       I    between atoms: C_21  and  N_22 
REMARK       I    between atoms: C_21  and  N_23 
REMARK   17  A    between atoms: C_24  and  N_36 
REMARK       I    between atoms: N_36  and  C_37 
REMARK   18  A    between atoms: N_40  and  C_41 
ROOT
HETATM    1  H           1     -26.952  -7.403 -15.087  0.00  0.00     0.163 HD
HETATM    2  O           1     -27.314  -5.626 -17.648  0.00  0.00    -0.271 OA
HETATM    3  N           1     -26.687  -6.787 -15.846  0.00  0.00    -0.345 N 
HETATM    4  C           1     -27.631  -6.361 -16.742  0.00  0.00     0.249 C 
ENDROOT
BRANCH   3   5
HETATM    5  C           1     -25.310  -6.357 -15.984  0.00  0.00     0.187 C 
BRANCH   5   6
HETATM    6  C           1     -24.691  -6.188 -14.603  0.00  0.00     0.066 C 
BRANCH   6   7
HETATM    7  C           1     -24.847  -4.742 -14.149  0.00  0.00     0.273 C 
BRANCH   7   8
HETATM    8  N           1     -23.815  -4.423 -13.199  0.00  0.00     0.098 N 
HETATM    9  H           1     -22.917  -4.760 -13.548  0.00  0.00     0.317 HD
BRANCH   8  10
HETATM   10  C           1     -23.770  -2.992 -13.066  0.00  0.00     0.320 C 
BRANCH  10  11
HETATM   11  C           1     -22.697  -2.611 -12.055  0.00  0.00     0.047 C 
BRANCH  11  12
HETATM   12  C           1     -22.079  -3.873 -11.469  0.00  0.00     0.004 C 
BRANCH  12  13
HETATM   13  C           1     -22.173  -3.827  -9.949  0.00  0.00     0.027 C 
BRANCH  13  14
HETATM   14  C           1     -23.630  -3.669  -9.535  0.00  0.00     0.229 C 
BRANCH  14  15
HETATM   15  N           1     -23.780  -4.023  -8.086  0.00  0.00    -0.079 N 
HETATM   16  H           1     -22.980  -3.624  -7.545  0.00  0.00     0.274 HD
HETATM   17  H           1     -24.677  -3.628  -7.723  0.00  0.00     0.274 HD
HETATM   18  H           1     -23.788  -5.062  -7.980  0.00  0.00     0.274 HD
ENDBRANCH  14  15
ENDBRANCH  13  14
ENDBRANCH  12  13
ENDBRANCH  11  12
ENDBRANCH  10  11
BRANCH  10  19
HETATM   19  C           1     -23.445  -2.373 -14.403  0.00  0.00     0.207 C 
HETATM   20  O           1     -22.528  -2.851 -15.106  0.00  0.00    -0.646 OA
HETATM   21  O           1     -24.093  -1.384 -14.809  0.00  0.00    -0.646 OA
ENDBRANCH  10  19
ENDBRANCH   8  10
ENDBRANCH   7   8
ENDBRANCH   6   7
ENDBRANCH   5   6
BRANCH   5  22
HETATM   22  C           1     -24.536  -7.394 -16.760  0.00  0.00     0.196 C 
HETATM   23  O           1     -24.128  -8.427 -16.187  0.00  0.00    -0.646 OA
HETATM   24  O           1     -24.302  -7.219 -17.975  0.00  0.00    -0.646 OA
ENDBRANCH   5  22
ENDBRANCH   3   5
BRANCH   4  25
HETATM   25  C           1     -29.065  -6.808 -16.599  0.00  0.00     0.274 C 
BRANCH  25  26
HETATM   26  C           1     -29.798  -6.598 -17.917  0.00  0.00     0.044 C 
BRANCH  26  27
HETATM   27  C           1     -30.205  -7.948 -18.493  0.00  0.00     0.023 C 
BRANCH  27  28
HETATM   28  C           1     -29.303  -8.290 -19.672  0.00  0.00     0.138 C 
BRANCH  28  29
HETATM   29  N           1     -28.100  -7.448 -19.629  0.00  0.00    -0.227 N 
HETATM   30  C           1     -27.115  -7.712 -20.381  0.00  0.00     0.665 C 
HETATM   31  N           1     -26.078  -6.986 -20.344  0.00  0.00    -0.235 N 
HETATM   32  N           1     -27.170  -8.727 -21.191  0.00  0.00    -0.235 N 
HETATM   33  H           1     -25.262  -7.205 -20.967  0.00  0.00     0.174 HD
HETATM   34  H           1     -26.035  -6.165 -19.690  0.00  0.00     0.174 HD
HETATM   35  H           1     -26.357  -8.946 -21.810  0.00  0.00     0.174 HD
HETATM   36  H           1     -28.026  -9.326 -21.220  0.00  0.00     0.174 HD
HETATM   37  H           1     -28.056  -6.627 -18.976  0.00  0.00     0.177 HD
ENDBRANCH  28  29
ENDBRANCH  27  28
ENDBRANCH  26  27
ENDBRANCH  25  26
BRANCH  25  38
HETATM   38  N           1     -29.734  -6.004 -15.523  0.00  0.00    -0.067 N 
HETATM   39  H           1     -29.354  -6.285 -14.591  0.00  0.00     0.275 HD
HETATM   40  H           1     -29.549  -4.988 -15.682  0.00  0.00     0.275 HD
HETATM   41  H           1     -30.763  -6.180 -15.546  0.00  0.00     0.275 HD
ENDBRANCH  25  38
ENDBRANCH   4  25
TORSDOF 18
ENDMDL
MODEL 9
REMARK VINA RESULT:      -6.3      1.764     10.183
REMARK  18 active torsions:
REMARK  status: ('A' for Active; 'I' for Inactive)
REMARK    1  A    between atoms: C_1  and  C_37 
REMARK    2  A    between atoms: C_1  and  C_2 
REMARK    3  A    between atoms: C_1  and  N_39 
REMARK    4  A    between atoms: C_2  and  C_3 
REMARK    5  A    between atoms: C_3  and  C_41 
REMARK    6  A    between atoms: N_4  and  C_5 
REMARK    7  A    between atoms: C_5  and  C_6 
REMARK    8  A    between atoms: C_6  and  C_7 
REMARK    9  A    between atoms: C_7  and  C_8 
REMARK   10  A    between atoms: C_8  and  C_9 
REMARK   11  A    between atoms: C_9  and  C_10 
REMARK   12  A    between atoms: C_9  and  N_13 
REMARK   13  A    between atoms: N_13  and  C_14 
REMARK   14  A    between atoms: C_14  and  C_15 
REMARK   15  A    between atoms: C_15  and  C_24 
REMARK   16  A    between atoms: C_17  and  C_24 
REMARK       I    between atoms: C_21  and  N_22 
REMARK       I    between atoms: C_21  and  N_23 
REMARK   17  A    between atoms: C_24  and  N_36 
REMARK       I    between atoms: N_36  and  C_37 
REMARK   18  A    between atoms: N_40  and  C_41 
ROOT
HETATM    1  H           1     -21.626  -6.864  -5.113  0.00  0.00     0.163 HD
HETATM    2  O           1     -18.956  -7.986  -6.319  0.00  0.00    -0.271 OA
HETATM    3  N           1     -20.835  -6.926  -5.741  0.00  0.00    -0.345 N 
HETATM    4  C           1     -19.900  -7.912  -5.569  0.00  0.00     0.249 C 
ENDROOT
BRANCH   3   5
HETATM    5  C           1     -20.691  -5.971  -6.822  0.00  0.00     0.187 C 
BRANCH   5   6
HETATM    6  C           1     -22.048  -5.359  -7.142  0.00  0.00     0.066 C 
BRANCH   6   7
HETATM    7  C           1     -22.004  -4.715  -8.522  0.00  0.00     0.273 C 
BRANCH   7   8
HETATM    8  N           1     -22.687  -3.451  -8.483  0.00  0.00     0.098 N 
HETATM    9  H           1     -22.022  -2.711  -8.254  0.00  0.00     0.317 HD
BRANCH   8  10
HETATM   10  C           1     -23.238  -3.211  -9.790  0.00  0.00     0.320 C 
BRANCH  10  11
HETATM   11  C           1     -22.383  -3.915 -10.837  0.00  0.00     0.047 C 
BRANCH  11  12
HETATM   12  C           1     -22.229  -3.015 -12.056  0.00  0.00     0.004 C 
BRANCH  12  13
HETATM   13  C           1     -23.412  -3.222 -12.993  0.00  0.00     0.027 C 
BRANCH  13  14
HETATM   14  C           1     -23.208  -2.398 -14.257  0.00  0.00     0.229 C 
BRANCH  14  15
HETATM   15  N           1     -24.062  -1.167 -14.196  0.00  0.00    -0.079 N 
HETATM   16  H           1     -24.014  -0.664 -15.111  0.00  0.00     0.274 HD
HETATM   17  H           1     -25.051  -1.440 -14.000  0.00  0.00     0.274 HD
HETATM   18  H           1     -23.715  -0.540 -13.436  0.00  0.00     0.274 HD
ENDBRANCH  14  15
ENDBRANCH  13  14
ENDBRANCH  12  13
ENDBRANCH  11  12
ENDBRANCH  10  11
BRANCH  10  19
HETATM   19  C           1     -24.647  -3.748  -9.847  0.00  0.00     0.207 C 
HETATM   20  O           1     -24.843  -4.979  -9.946  0.00  0.00    -0.646 OA
HETATM   21  O           1     -25.618  -2.963  -9.795  0.00  0.00    -0.646 OA
ENDBRANCH  10  19
ENDBRANCH   8  10
ENDBRANCH   7   8
ENDBRANCH   6   7
ENDBRANCH   5   6
BRANCH   5  22
HETATM   22  C           1     -19.732  -4.883  -6.407  0.00  0.00     0.196 C 
HETATM   23  O           1     -19.869  -4.318  -5.301  0.00  0.00    -0.646 OA
HETATM   24  O           1     -18.800  -4.547  -7.169  0.00  0.00    -0.646 OA
ENDBRANCH   5  22
ENDBRANCH   3   5
BRANCH   4  25
HETATM   25  C           1     -20.051  -8.907  -4.444  0.00  0.00     0.274 C 
BRANCH  25  26
HETATM   26  C           1     -21.009  -8.351  -3.398  0.00  0.00     0.044 C 
BRANCH  26  27
HETATM   27  C           1     -20.287  -8.226  -2.063  0.00  0.00     0.023 C 
BRANCH  27  28
HETATM   28  C           1     -20.884  -9.214  -1.069  0.00  0.00     0.138 C 
BRANCH  28  29
HETATM   29  N           1     -22.252  -8.799  -0.727  0.00  0.00    -0.227 N 
HETATM   30  C           1     -22.506  -8.341   0.426  0.00  0.00     0.665 C 
HETATM   31  N           1     -23.684  -7.983   0.720  0.00  0.00    -0.235 N 
HETATM   32  N           1     -21.555  -8.236   1.306  0.00  0.00    -0.235 N 
HETATM   33  H           1     -23.893  -7.603   1.676  0.00  0.00     0.174 HD
HETATM   34  H           1     -24.451  -8.068   0.008  0.00  0.00     0.174 HD
HETATM   35  H           1     -21.763  -7.858   2.258  0.00  0.00     0.174 HD
HETATM   36  H           1     -20.583  -8.531   1.063  0.00  0.00     0.174 HD
HETATM   37  H           1     -23.020  -8.883  -1.438  0.00  0.00     0.177 HD
ENDBRANCH  28  29
ENDBRANCH  27  28
ENDBRANCH  26  27
ENDBRANCH  25  26
BRANCH  25  38
HETATM   38  N           1     -18.712  -9.154  -3.814  0.00  0.00    -0.067 N 
HETATM   39  H           1     -18.419  -8.308  -3.276  0.00  0.00     0.275 HD
HETATM   40  H           1     -18.777  -9.972  -3.168  0.00  0.00     0.275 HD
HETATM   41  H           1     -18.008  -9.353  -4.559  0.00  0.00     0.275 HD
ENDBRANCH  25  38
ENDBRANCH   4  25
TORSDOF 18
ENDMDL
