MODEL 1
REMARK VINA RESULT:      -6.7      0.000      0.000
REMARK  7 active torsions:
REMARK  status: ('A' for Active; 'I' for Inactive)
REMARK       I    between atoms: N_4  and  C_5 
REMARK       I    between atoms: C_5  and  N_6 
REMARK    1  A    between atoms: N_7  and  C_8 
REMARK    2  A    between atoms: C_8  and  C_9 
REMARK    3  A    between atoms: C_9  and  C_10 
REMARK    4  A    between atoms: C_10  and  C_11 
REMARK    5  A    between atoms: C_11  and  C_12 
REMARK    6  A    between atoms: C_11  and  N_15 
REMARK       I    between atoms: N_15  and  C_16 
REMARK    7  A    between atoms: C_16  and  C_17 
ROOT
HETATM    1  C           1     -35.237  -0.896 -11.697  0.00  0.00     0.185 C 
ENDROOT
BRANCH   1   2
HETATM    2  C           1     -36.006   0.076 -12.582  0.00  0.00     0.038 C 
BRANCH   2   3
HETATM    3  C           1     -35.036   0.798 -13.508  0.00  0.00     0.023 C 
BRANCH   3   4
HETATM    4  C           1     -35.465   0.591 -14.954  0.00  0.00     0.138 C 
BRANCH   4   5
HETATM    5  N           1     -34.890  -0.663 -15.461  0.00  0.00    -0.227 N 
HETATM    6  C           1     -35.390  -1.221 -16.481  0.00  0.00     0.665 C 
HETATM    7  N           1     -34.882  -2.330 -16.930  0.00  0.00    -0.235 N 
HETATM    8  N           1     -36.386  -0.699 -17.065  0.00  0.00    -0.235 N 
HETATM    9  H           1     -34.061  -2.762 -16.449  0.00  0.00     0.174 HD
HETATM   10  H           1     -35.295  -2.791 -17.773  0.00  0.00     0.174 HD
HETATM   11  H           1     -36.796   0.197 -16.703  0.00  0.00     0.174 HD
HETATM   12  H           1     -36.800  -1.162 -17.911  0.00  0.00     0.174 HD
HETATM   13  H           1     -34.065  -1.096 -14.978  0.00  0.00     0.177 HD
ENDBRANCH   4   5
ENDBRANCH   3   4
ENDBRANCH   2   3
ENDBRANCH   1   2
BRANCH   1  14
HETATM   14  C           1     -36.133  -1.377 -10.582  0.00  0.00     0.196 C 
HETATM   15  O           1     -36.796  -2.428 -10.722  0.00  0.00    -0.646 OA
HETATM   16  O           1     -36.211  -0.727  -9.517  0.00  0.00    -0.646 OA
ENDBRANCH   1  14
BRANCH   1  17
HETATM   17  N           1     -34.801  -2.029 -12.489  0.00  0.00    -0.345 N 
HETATM   18  C           1     -33.759  -2.805 -12.057  0.00  0.00     0.249 C 
HETATM   19  O           1     -33.203  -2.546 -11.017  0.00  0.00    -0.271 OA
HETATM   20  H           1     -35.267  -2.245 -13.361  0.00  0.00     0.163 HD
BRANCH  18  21
HETATM   21  C           1     -33.305  -3.985 -12.882  0.00  0.00     0.274 C 
HETATM   22  C           1     -34.501  -4.873 -13.199  0.00  0.00     0.042 C 
HETATM   23  C           1     -35.123  -5.371 -11.901  0.00  0.00     0.003 C 
HETATM   24 Se           1     -33.802  -6.394 -10.897  0.00  0.00     0.000 Se
HETATM   25  C           1     -34.998  -6.792  -9.412  0.00  0.00     0.000 C 
HETATM   26  H           1     -32.715  -5.113 -11.219  0.00  0.00     0.275 HD
HETATM   27  N           1     -32.289  -4.772 -12.109  0.00  0.00    -0.067 N 
HETATM   28  H           1     -31.973  -5.590 -12.679  0.00  0.00     0.275 HD
HETATM   29  H           1     -31.468  -4.162 -11.891  0.00  0.00     0.275 HD
ENDBRANCH  18  21
ENDBRANCH   1  17
TORSDOF 7
ENDMDL
MODEL 2
REMARK VINA RESULT:      -6.6     12.540     15.553
REMARK  7 active torsions:
REMARK  status: ('A' for Active; 'I' for Inactive)
REMARK       I    between atoms: N_4  and  C_5 
REMARK       I    between atoms: C_5  and  N_6 
REMARK    1  A    between atoms: N_7  and  C_8 
REMARK    2  A    between atoms: C_8  and  C_9 
REMARK    3  A    between atoms: C_9  and  C_10 
REMARK    4  A    between atoms: C_10  and  C_11 
REMARK    5  A    between atoms: C_11  and  C_12 
REMARK    6  A    between atoms: C_11  and  N_15 
REMARK       I    between atoms: N_15  and  C_16 
REMARK    7  A    between atoms: C_16  and  C_17 
ROOT
HETATM    1  C           1     -21.088  -4.161  -7.567  0.00  0.00     0.185 C 
ENDROOT
BRANCH   1   2
HETATM    2  C           1     -20.894  -4.770  -6.184  0.00  0.00     0.038 C 
BRANCH   2   3
HETATM    3  C           1     -21.169  -6.266  -6.243  0.00  0.00     0.023 C 
BRANCH   3   4
HETATM    4  C           1     -20.948  -6.878  -4.866  0.00  0.00     0.138 C 
BRANCH   4   5
HETATM    5  N           1     -21.734  -6.137  -3.869  0.00  0.00    -0.227 N 
HETATM    6  C           1     -21.647  -6.440  -2.643  0.00  0.00     0.665 C 
HETATM    7  N           1     -22.342  -5.785  -1.761  0.00  0.00    -0.235 N 
HETATM    8  N           1     -20.883  -7.380  -2.275  0.00  0.00    -0.235 N 
HETATM    9  H           1     -22.973  -5.009  -2.063  0.00  0.00     0.174 HD
HETATM   10  H           1     -22.271  -6.035  -0.748  0.00  0.00     0.174 HD
HETATM   11  H           1     -20.321  -7.909  -2.987  0.00  0.00     0.174 HD
HETATM   12  H           1     -20.811  -7.631  -1.258  0.00  0.00     0.174 HD
HETATM   13  H           1     -22.368  -5.358  -4.173  0.00  0.00     0.177 HD
ENDBRANCH   4   5
ENDBRANCH   3   4
ENDBRANCH   2   3
ENDBRANCH   1   2
BRANCH   1  14
HETATM   14  C           1     -19.846  -4.385  -8.394  0.00  0.00     0.196 C 
HETATM   15  O           1     -18.717  -4.204  -7.888  0.00  0.00    -0.646 OA
HETATM   16  O           1     -19.946  -4.752  -9.584  0.00  0.00    -0.646 OA
ENDBRANCH   1  14
BRANCH   1  17
HETATM   17  N           1     -22.221  -4.790  -8.216  0.00  0.00    -0.345 N 
HETATM   18  C           1     -23.133  -4.026  -8.892  0.00  0.00     0.249 C 
HETATM   19  O           1     -22.995  -2.827  -8.947  0.00  0.00    -0.271 OA
HETATM   20  H           1     -22.337  -5.795  -8.170  0.00  0.00     0.163 HD
BRANCH  18  21
HETATM   21  C           1     -24.313  -4.681  -9.569  0.00  0.00     0.274 C 
HETATM   22  C           1     -23.830  -5.470 -10.778  0.00  0.00     0.042 C 
HETATM   23  C           1     -23.141  -4.530 -11.757  0.00  0.00     0.003 C 
HETATM   24 Se           1     -24.400  -3.159 -12.339  0.00  0.00     0.000 Se
HETATM   25  C           1     -23.129  -2.256 -13.507  0.00  0.00     0.000 C 
HETATM   26  H           1     -24.808  -2.980 -10.687  0.00  0.00     0.275 HD
HETATM   27  N           1     -25.281  -3.625 -10.016  0.00  0.00    -0.067 N 
HETATM   28  H           1     -26.099  -4.077 -10.485  0.00  0.00     0.275 HD
HETATM   29  H           1     -25.612  -3.083  -9.185  0.00  0.00     0.275 HD
ENDBRANCH  18  21
ENDBRANCH   1  17
TORSDOF 7
ENDMDL
MODEL 3
REMARK VINA RESULT:      -6.4      3.135      6.762
REMARK  7 active torsions:
REMARK  status: ('A' for Active; 'I' for Inactive)
REMARK       I    between atoms: N_4  and  C_5 
REMARK       I    between atoms: C_5  and  N_6 
REMARK    1  A    between atoms: N_7  and  C_8 
REMARK    2  A    between atoms: C_8  and  C_9 
REMARK    3  A    between atoms: C_9  and  C_10 
REMARK    4  A    between atoms: C_10  and  C_11 
REMARK    5  A    between atoms: C_11  and  C_12 
REMARK    6  A    between atoms: C_11  and  N_15 
REMARK       I    between atoms: N_15  and  C_16 
REMARK    7  A    between atoms: C_16  and  C_17 
ROOT
HETATM    1  C           1     -33.978  -3.386 -12.220  0.00  0.00     0.185 C 
ENDROOT
BRANCH   1   2
HETATM    2  C           1     -34.646  -3.992 -10.993  0.00  0.00     0.038 C 
BRANCH   2   3
HETATM    3  C           1     -33.815  -5.164 -10.487  0.00  0.00     0.023 C 
BRANCH   3   4
HETATM    4  C           1     -34.726  -6.354 -10.218  0.00  0.00     0.138 C 
BRANCH   4   5
HETATM    5  N           1     -34.124  -7.570 -10.783  0.00  0.00    -0.227 N 
HETATM    6  C           1     -33.978  -8.599 -10.061  0.00  0.00     0.665 C 
HETATM    7  N           1     -33.445  -9.674 -10.561  0.00  0.00    -0.235 N 
HETATM    8  N           1     -34.350  -8.580  -8.850  0.00  0.00    -0.235 N 
HETATM    9  H           1     -33.138  -9.690 -11.559  0.00  0.00     0.174 HD
HETATM   10  H           1     -33.324 -10.524  -9.964  0.00  0.00     0.174 HD
HETATM   11  H           1     -34.780  -7.712  -8.447  0.00  0.00     0.174 HD
HETATM   12  H           1     -34.229  -9.434  -8.251  0.00  0.00     0.174 HD
HETATM   13  H           1     -33.815  -7.585 -11.787  0.00  0.00     0.177 HD
ENDBRANCH   4   5
ENDBRANCH   3   4
ENDBRANCH   2   3
ENDBRANCH   1   2
BRANCH   1  14
HETATM   14  C           1     -34.444  -4.112 -13.457  0.00  0.00     0.196 C 
HETATM   15  O           1     -35.102  -5.170 -13.351  0.00  0.00    -0.646 OA
HETATM   16  O           1     -34.173  -3.657 -14.589  0.00  0.00    -0.646 OA
ENDBRANCH   1  14
BRANCH   1  17
HETATM   17  N           1     -34.333  -1.984 -12.320  0.00  0.00    -0.345 N 
HETATM   18  C           1     -35.524  -1.542 -11.809  0.00  0.00     0.249 C 
HETATM   19  O           1     -36.279  -2.320 -11.275  0.00  0.00    -0.271 OA
HETATM   20  H           1     -33.701  -1.333 -12.767  0.00  0.00     0.163 HD
BRANCH  18  21
HETATM   21  C           1     -35.894  -0.082 -11.912  0.00  0.00     0.274 C 
HETATM   22  C           1     -37.236   0.053 -12.619  0.00  0.00     0.042 C 
HETATM   23  C           1     -37.139  -0.546 -14.015  0.00  0.00     0.003 C 
HETATM   24 Se           1     -35.773   0.399 -15.035  0.00  0.00     0.000 Se
HETATM   25  C           1     -36.009  -0.665 -16.650  0.00  0.00     0.000 C 
HETATM   26  H           1     -34.775   0.233 -13.655  0.00  0.00     0.275 HD
HETATM   27  N           1     -34.842   0.644 -12.697  0.00  0.00    -0.067 N 
HETATM   28  H           1     -35.096   1.655 -12.770  0.00  0.00     0.275 HD
HETATM   29  H           1     -33.920   0.551 -12.213  0.00  0.00     0.275 HD
ENDBRANCH  18  21
ENDBRANCH   1  17
TORSDOF 7
ENDMDL
MODEL 4
REMARK VINA RESULT:      -6.3     11.942     13.732
REMARK  7 active torsions:
REMARK  status: ('A' for Active; 'I' for Inactive)
REMARK       I    between atoms: N_4  and  C_5 
REMARK       I    between atoms: C_5  and  N_6 
REMARK    1  A    between atoms: N_7  and  C_8 
REMARK    2  A    between atoms: C_8  and  C_9 
REMARK    3  A    between atoms: C_9  and  C_10 
REMARK    4  A    between atoms: C_10  and  C_11 
REMARK    5  A    between atoms: C_11  and  C_12 
REMARK    6  A    between atoms: C_11  and  N_15 
REMARK       I    between atoms: N_15  and  C_16 
REMARK    7  A    between atoms: C_16  and  C_17 
ROOT
HETATM    1  C           1     -21.862  -4.738 -10.499  0.00  0.00     0.185 C 
ENDROOT
BRANCH   1   2
HETATM    2  C           1     -23.166  -4.883 -11.273  0.00  0.00     0.038 C 
BRANCH   2   3
HETATM    3  C           1     -24.046  -3.666 -11.021  0.00  0.00     0.023 C 
BRANCH   3   4
HETATM    4  C           1     -24.573  -3.137 -12.348  0.00  0.00     0.138 C 
BRANCH   4   5
HETATM    5  N           1     -23.624  -3.469 -13.421  0.00  0.00    -0.227 N 
HETATM    6  C           1     -23.289  -2.588 -14.265  0.00  0.00     0.665 C 
HETATM    7  N           1     -22.450  -2.882 -15.213  0.00  0.00    -0.235 N 
HETATM    8  N           1     -23.772  -1.420 -14.186  0.00  0.00    -0.235 N 
HETATM    9  H           1     -22.051  -3.846 -15.279  0.00  0.00     0.174 HD
HETATM   10  H           1     -22.173  -2.154 -15.910  0.00  0.00     0.174 HD
HETATM   11  H           1     -24.450  -1.182 -13.420  0.00  0.00     0.174 HD
HETATM   12  H           1     -23.494  -0.689 -14.886  0.00  0.00     0.174 HD
HETATM   13  H           1     -23.224  -4.438 -13.486  0.00  0.00     0.177 HD
ENDBRANCH   4   5
ENDBRANCH   3   4
ENDBRANCH   2   3
ENDBRANCH   1   2
BRANCH   1  14
HETATM   14  C           1     -20.978  -3.727 -11.187  0.00  0.00     0.196 C 
HETATM   15  O           1     -19.814  -4.039 -11.520  0.00  0.00    -0.646 OA
HETATM   16  O           1     -21.409  -2.578 -11.424  0.00  0.00    -0.646 OA
ENDBRANCH   1  14
BRANCH   1  17
HETATM   17  N           1     -22.149  -4.291  -9.151  0.00  0.00    -0.345 N 
HETATM   18  C           1     -21.335  -4.668  -8.117  0.00  0.00     0.249 C 
HETATM   19  O           1     -20.378  -5.374  -8.328  0.00  0.00    -0.271 OA
HETATM   20  H           1     -22.951  -3.699  -8.974  0.00  0.00     0.163 HD
BRANCH  18  21
HETATM   21  C           1     -21.633  -4.202  -6.713  0.00  0.00     0.274 C 
HETATM   22  C           1     -20.460  -4.546  -5.804  0.00  0.00     0.042 C 
HETATM   23  C           1     -20.242  -6.052  -5.802  0.00  0.00     0.003 C 
HETATM   24 Se           1     -21.850  -6.942  -5.151  0.00  0.00     0.000 Se
HETATM   25  C           1     -21.123  -8.741  -5.324  0.00  0.00     0.000 C 
HETATM   26  H           1     -22.721  -5.920  -6.212  0.00  0.00     0.275 HD
HETATM   27  N           1     -22.870  -4.887  -6.212  0.00  0.00    -0.067 N 
HETATM   28  H           1     -23.078  -4.565  -5.239  0.00  0.00     0.275 HD
HETATM   29  H           1     -23.675  -4.651  -6.836  0.00  0.00     0.275 HD
ENDBRANCH  18  21
ENDBRANCH   1  17
TORSDOF 7
ENDMDL
MODEL 5
REMARK VINA RESULT:      -6.2     14.221     16.383
REMARK  7 active torsions:
REMARK  status: ('A' for Active; 'I' for Inactive)
REMARK       I    between atoms: N_4  and  C_5 
REMARK       I    between atoms: C_5  and  N_6 
REMARK    1  A    between atoms: N_7  and  C_8 
REMARK    2  A    between atoms: C_8  and  C_9 
REMARK    3  A    between atoms: C_9  and  C_10 
REMARK    4  A    between atoms: C_10  and  C_11 
REMARK    5  A    between atoms: C_11  and  C_12 
REMARK    6  A    between atoms: C_11  and  N_15 
REMARK       I    between atoms: N_15  and  C_16 
REMARK    7  A    between atoms: C_16  and  C_17 
ROOT
HETATM    1  C           1     -20.640  -6.765  -5.466  0.00  0.00     0.185 C 
ENDROOT
BRANCH   1   2
HETATM    2  C           1     -20.537  -6.080  -6.822  0.00  0.00     0.038 C 
BRANCH   2   3
HETATM    3  C           1     -19.935  -4.692  -6.647  0.00  0.00     0.023 C 
BRANCH   3   4
HETATM    4  C           1     -20.644  -3.711  -7.571  0.00  0.00     0.138 C 
BRANCH   4   5
HETATM    5  N           1     -22.099  -3.857  -7.419  0.00  0.00    -0.227 N 
HETATM    6  C           1     -22.844  -3.877  -8.441  0.00  0.00     0.665 C 
HETATM    7  N           1     -24.130  -4.006  -8.306  0.00  0.00    -0.235 N 
HETATM    8  N           1     -22.336  -3.770  -9.597  0.00  0.00    -0.235 N 
HETATM    9  H           1     -24.550  -4.093  -7.353  0.00  0.00     0.174 HD
HETATM   10  H           1     -24.746  -4.022  -9.151  0.00  0.00     0.174 HD
HETATM   11  H           1     -21.297  -3.666  -9.706  0.00  0.00     0.174 HD
HETATM   12  H           1     -22.954  -3.787 -10.445  0.00  0.00     0.174 HD
HETATM   13  H           1     -22.520  -3.945  -6.461  0.00  0.00     0.177 HD
ENDBRANCH   4   5
ENDBRANCH   3   4
ENDBRANCH   2   3
ENDBRANCH   1   2
BRANCH   1  14
HETATM   14  C           1     -21.849  -6.245  -4.729  0.00  0.00     0.196 C 
HETATM   15  O           1     -22.912  -6.023  -5.349  0.00  0.00    -0.646 OA
HETATM   16  O           1     -21.789  -6.035  -3.498  0.00  0.00    -0.646 OA
ENDBRANCH   1  14
BRANCH   1  17
HETATM   17  N           1     -20.771  -8.197  -5.657  0.00  0.00    -0.345 N 
HETATM   18  C           1     -20.060  -9.060  -4.868  0.00  0.00     0.249 C 
HETATM   19  O           1     -19.324  -8.630  -4.012  0.00  0.00    -0.271 OA
HETATM   20  H           1     -21.388  -8.557  -6.374  0.00  0.00     0.163 HD
BRANCH  18  21
HETATM   21  C           1     -20.196 -10.550  -5.066  0.00  0.00     0.274 C 
HETATM   22  C           1     -21.635 -10.969  -4.793  0.00  0.00     0.042 C 
HETATM   23  C           1     -22.005 -10.612  -3.360  0.00  0.00     0.003 C 
HETATM   24 Se           1     -20.814 -11.543  -2.129  0.00  0.00     0.000 Se
HETATM   25  C           1     -21.636 -10.810  -0.522  0.00  0.00     0.000 C 
HETATM   26  H           1     -19.534 -11.020  -3.136  0.00  0.00     0.275 HD
HETATM   27  N           1     -19.279 -11.266  -4.118  0.00  0.00    -0.067 N 
HETATM   28  H           1     -19.372 -12.298  -4.255  0.00  0.00     0.275 HD
HETATM   29  H           1     -18.292 -10.977  -4.306  0.00  0.00     0.275 HD
ENDBRANCH  18  21
ENDBRANCH   1  17
TORSDOF 7
ENDMDL
MODEL 6
REMARK VINA RESULT:      -6.1     11.668     13.183
REMARK  7 active torsions:
REMARK  status: ('A' for Active; 'I' for Inactive)
REMARK       I    between atoms: N_4  and  C_5 
REMARK       I    between atoms: C_5  and  N_6 
REMARK    1  A    between atoms: N_7  and  C_8 
REMARK    2  A    between atoms: C_8  and  C_9 
REMARK    3  A    between atoms: C_9  and  C_10 
REMARK    4  A    between atoms: C_10  and  C_11 
REMARK    5  A    between atoms: C_11  and  C_12 
REMARK    6  A    between atoms: C_11  and  N_15 
REMARK       I    between atoms: N_15  and  C_16 
REMARK    7  A    between atoms: C_16  and  C_17 
ROOT
HETATM    1  C           1     -22.954  -3.289  -9.942  0.00  0.00     0.185 C 
ENDROOT
BRANCH   1   2
HETATM    2  C           1     -22.767  -2.505 -11.234  0.00  0.00     0.038 C 
BRANCH   2   3
HETATM    3  C           1     -22.579  -3.474 -12.394  0.00  0.00     0.023 C 
BRANCH   3   4
HETATM    4  C           1     -23.622  -3.189 -13.467  0.00  0.00     0.138 C 
BRANCH   4   5
HETATM    5  N           1     -22.990  -2.478 -14.588  0.00  0.00    -0.227 N 
HETATM    6  C           1     -23.466  -1.375 -14.987  0.00  0.00     0.665 C 
HETATM    7  N           1     -22.907  -0.746 -15.978  0.00  0.00    -0.235 N 
HETATM    8  N           1     -24.488  -0.885 -14.421  0.00  0.00    -0.235 N 
HETATM    9  H           1     -22.064  -1.150 -16.445  0.00  0.00     0.174 HD
HETATM   10  H           1     -23.301   0.165 -16.308  0.00  0.00     0.174 HD
HETATM   11  H           1     -24.939  -1.393 -13.621  0.00  0.00     0.174 HD
HETATM   12  H           1     -24.883   0.030 -14.752  0.00  0.00     0.174 HD
HETATM   13  H           1     -22.143  -2.884 -15.057  0.00  0.00     0.177 HD
ENDBRANCH   4   5
ENDBRANCH   3   4
ENDBRANCH   2   3
ENDBRANCH   1   2
BRANCH   1  14
HETATM   14  C           1     -24.077  -4.281 -10.112  0.00  0.00     0.196 C 
HETATM   15  O           1     -23.820  -5.493 -10.285  0.00  0.00    -0.646 OA
HETATM   16  O           1     -25.265  -3.893 -10.078  0.00  0.00    -0.646 OA
ENDBRANCH   1  14
BRANCH   1  17
HETATM   17  N           1     -21.728  -3.995  -9.625  0.00  0.00    -0.345 N 
HETATM   18  C           1     -21.176  -3.881  -8.377  0.00  0.00     0.249 C 
HETATM   19  O           1     -21.709  -3.192  -7.541  0.00  0.00    -0.271 OA
HETATM   20  H           1     -21.282  -4.573 -10.325  0.00  0.00     0.163 HD
BRANCH  18  21
HETATM   21  C           1     -19.900  -4.617  -8.047  0.00  0.00     0.274 C 
HETATM   22  C           1     -20.176  -6.114  -7.998  0.00  0.00     0.042 C 
HETATM   23  C           1     -21.221  -6.404  -6.929  0.00  0.00     0.003 C 
HETATM   24 Se           1     -20.559  -5.810  -5.194  0.00  0.00     0.000 Se
HETATM   25  C           1     -22.150  -6.362  -4.215  0.00  0.00     0.000 C 
HETATM   26  H           1     -20.109  -4.358  -5.979  0.00  0.00     0.275 HD
HETATM   27  N           1     -19.391  -4.160  -6.712  0.00  0.00    -0.067 N 
HETATM   28  H           1     -18.508  -4.669  -6.482  0.00  0.00     0.275 HD
HETATM   29  H           1     -19.202  -3.132  -6.745  0.00  0.00     0.275 HD
ENDBRANCH  18  21
ENDBRANCH   1  17
TORSDOF 7
ENDMDL
MODEL 7
REMARK VINA RESULT:      -5.9     14.480     16.626
REMARK  7 active torsions:
REMARK  status: ('A' for Active; 'I' for Inactive)
REMARK       I    between atoms: N_4  and  C_5 
REMARK       I    between atoms: C_5  and  N_6 
REMARK    1  A    between atoms: N_7  and  C_8 
REMARK    2  A    between atoms: C_8  and  C_9 
REMARK    3  A    between atoms: C_9  and  C_10 
REMARK    4  A    between atoms: C_10  and  C_11 
REMARK    5  A    between atoms: C_11  and  C_12 
REMARK    6  A    between atoms: C_11  and  N_15 
REMARK       I    between atoms: N_15  and  C_16 
REMARK    7  A    between atoms: C_16  and  C_17 
ROOT
HETATM    1  C           1     -20.882  -6.828  -5.424  0.00  0.00     0.185 C 
ENDROOT
BRANCH   1   2
HETATM    2  C           1     -20.719  -6.119  -6.762  0.00  0.00     0.038 C 
BRANCH   2   3
HETATM    3  C           1     -20.182  -4.713  -6.531  0.00  0.00     0.023 C 
BRANCH   3   4
HETATM    4  C           1     -21.156  -3.697  -7.111  0.00  0.00     0.138 C 
BRANCH   4   5
HETATM    5  N           1     -21.581  -4.132  -8.449  0.00  0.00    -0.227 N 
HETATM    6  C           1     -22.809  -4.311  -8.696  0.00  0.00     0.665 C 
HETATM    7  N           1     -23.185  -4.697  -9.880  0.00  0.00    -0.235 N 
HETATM    8  N           1     -23.672  -4.115  -7.791  0.00  0.00    -0.235 N 
HETATM    9  H           1     -22.473  -4.859 -10.627  0.00  0.00     0.174 HD
HETATM   10  H           1     -24.199  -4.844 -10.084  0.00  0.00     0.174 HD
HETATM   11  H           1     -23.369  -3.803  -6.835  0.00  0.00     0.174 HD
HETATM   12  H           1     -24.691  -4.263  -7.996  0.00  0.00     0.174 HD
HETATM   13  H           1     -20.865  -4.295  -9.200  0.00  0.00     0.177 HD
ENDBRANCH   4   5
ENDBRANCH   3   4
ENDBRANCH   2   3
ENDBRANCH   1   2
BRANCH   1  14
HETATM   14  C           1     -22.116  -6.311  -4.727  0.00  0.00     0.196 C 
HETATM   15  O           1     -22.089  -6.075  -3.499  0.00  0.00    -0.646 OA
HETATM   16  O           1     -23.166  -6.118  -5.377  0.00  0.00    -0.646 OA
ENDBRANCH   1  14
BRANCH   1  17
HETATM   17  N           1     -21.014  -8.255  -5.646  0.00  0.00    -0.345 N 
HETATM   18  C           1     -20.586  -9.138  -4.692  0.00  0.00     0.249 C 
HETATM   19  O           1     -20.097  -8.730  -3.666  0.00  0.00    -0.271 OA
HETATM   20  H           1     -21.424  -8.596  -6.506  0.00  0.00     0.163 HD
BRANCH  18  21
HETATM   21  C           1     -20.724 -10.624  -4.923  0.00  0.00     0.274 C 
HETATM   22  C           1     -19.780 -11.372  -3.992  0.00  0.00     0.042 C 
HETATM   23  C           1     -18.345 -10.947  -4.273  0.00  0.00     0.003 C 
HETATM   24 Se           1     -17.894 -11.361  -6.124  0.00  0.00     0.000 Se
HETATM   25  C           1     -16.074 -10.674  -6.006  0.00  0.00     0.000 C 
HETATM   26  H           1     -19.393 -10.649  -6.540  0.00  0.00     0.275 HD
HETATM   27  N           1     -20.377 -10.941  -6.348  0.00  0.00    -0.067 N 
HETATM   28  H           1     -20.472 -11.970  -6.509  0.00  0.00     0.275 HD
HETATM   29  H           1     -21.025 -10.427  -6.987  0.00  0.00     0.275 HD
ENDBRANCH  18  21
ENDBRANCH   1  17
TORSDOF 7
ENDMDL
MODEL 8
REMARK VINA RESULT:      -5.8      1.729      2.373
REMARK  7 active torsions:
REMARK  status: ('A' for Active; 'I' for Inactive)
REMARK       I    between atoms: N_4  and  C_5 
REMARK       I    between atoms: C_5  and  N_6 
REMARK    1  A    between atoms: N_7  and  C_8 
REMARK    2  A    between atoms: C_8  and  C_9 
REMARK    3  A    between atoms: C_9  and  C_10 
REMARK    4  A    between atoms: C_10  and  C_11 
REMARK    5  A    between atoms: C_11  and  C_12 
REMARK    6  A    between atoms: C_11  and  N_15 
REMARK       I    between atoms: N_15  and  C_16 
REMARK    7  A    between atoms: C_16  and  C_17 
ROOT
HETATM    1  C           1     -35.770  -0.704 -10.865  0.00  0.00     0.185 C 
ENDROOT
BRANCH   1   2
HETATM    2  C           1     -36.119  -0.203 -12.261  0.00  0.00     0.038 C 
BRANCH   2   3
HETATM    3  C           1     -34.870  -0.215 -13.132  0.00  0.00     0.023 C 
BRANCH   3   4
HETATM    4  C           1     -35.080   0.698 -14.333  0.00  0.00     0.138 C 
BRANCH   4   5
HETATM    5  N           1     -35.101  -0.106 -15.563  0.00  0.00    -0.227 N 
HETATM    6  C           1     -36.183  -0.259 -16.201  0.00  0.00     0.665 C 
HETATM    7  N           1     -36.201  -0.970 -17.289  0.00  0.00    -0.235 N 
HETATM    8  N           1     -37.248   0.282 -15.781  0.00  0.00    -0.235 N 
HETATM    9  H           1     -35.322  -1.416 -17.637  0.00  0.00     0.174 HD
HETATM   10  H           1     -37.095  -1.096 -17.817  0.00  0.00     0.174 HD
HETATM   11  H           1     -37.233   0.857 -14.902  0.00  0.00     0.174 HD
HETATM   12  H           1     -38.146   0.156 -16.310  0.00  0.00     0.174 HD
HETATM   13  H           1     -34.218  -0.555 -15.912  0.00  0.00     0.177 HD
ENDBRANCH   4   5
ENDBRANCH   3   4
ENDBRANCH   2   3
ENDBRANCH   1   2
BRANCH   1  14
HETATM   14  C           1     -36.887  -0.358  -9.912  0.00  0.00     0.196 C 
HETATM   15  O           1     -38.075  -0.391 -10.302  0.00  0.00    -0.646 OA
HETATM   16  O           1     -36.627  -0.040  -8.732  0.00  0.00    -0.646 OA
ENDBRANCH   1  14
BRANCH   1  17
HETATM   17  N           1     -35.592  -2.143 -10.899  0.00  0.00    -0.345 N 
HETATM   18  C           1     -34.400  -2.694 -10.514  0.00  0.00     0.249 C 
HETATM   19  O           1     -33.496  -1.982 -10.146  0.00  0.00    -0.271 OA
HETATM   20  H           1     -36.350  -2.739 -11.207  0.00  0.00     0.163 HD
BRANCH  18  21
HETATM   21  C           1     -34.215  -4.192 -10.549  0.00  0.00     0.274 C 
HETATM   22  C           1     -32.934  -4.527 -11.301  0.00  0.00     0.042 C 
HETATM   23  C           1     -33.025  -3.994 -12.725  0.00  0.00     0.003 C 
HETATM   24 Se           1     -34.544  -4.815 -13.631  0.00  0.00     0.000 Se
HETATM   25  C           1     -34.259  -3.873 -15.313  0.00  0.00     0.000 C 
HETATM   26  H           1     -35.446  -4.456 -12.223  0.00  0.00     0.275 HD
HETATM   27  N           1     -35.384  -4.823 -11.247  0.00  0.00    -0.067 N 
HETATM   28  H           1     -35.257  -5.860 -11.271  0.00  0.00     0.275 HD
HETATM   29  H           1     -36.263  -4.592 -10.730  0.00  0.00     0.275 HD
ENDBRANCH  18  21
ENDBRANCH   1  17
TORSDOF 7
ENDMDL
MODEL 9
REMARK VINA RESULT:      -5.6     16.528     18.181
REMARK  7 active torsions:
REMARK  status: ('A' for Active; 'I' for Inactive)
REMARK       I    between atoms: N_4  and  C_5 
REMARK       I    between atoms: C_5  and  N_6 
REMARK    1  A    between atoms: N_7  and  C_8 
REMARK    2  A    between atoms: C_8  and  C_9 
REMARK    3  A    between atoms: C_9  and  C_10 
REMARK    4  A    between atoms: C_10  and  C_11 
REMARK    5  A    between atoms: C_11  and  C_12 
REMARK    6  A    between atoms: C_11  and  N_15 
REMARK       I    between atoms: N_15  and  C_16 
REMARK    7  A    between atoms: C_16  and  C_17 
ROOT
HETATM    1  C           1     -21.277  -8.082  -1.479  0.00  0.00     0.185 C 
ENDROOT
BRANCH   1   2
HETATM    2  C           1     -20.546  -8.087  -2.815  0.00  0.00     0.038 C 
BRANCH   2   3
HETATM    3  C           1     -21.371  -8.848  -3.844  0.00  0.00     0.023 C 
BRANCH   3   4
HETATM    4  C           1     -21.412  -8.059  -5.146  0.00  0.00     0.138 C 
BRANCH   4   5
HETATM    5  N           1     -20.911  -6.697  -4.910  0.00  0.00    -0.227 N 
HETATM    6  C           1     -20.574  -5.968  -5.888  0.00  0.00     0.665 C 
HETATM    7  N           1     -20.132  -4.763  -5.679  0.00  0.00    -0.235 N 
HETATM    8  N           1     -20.669  -6.411  -7.070  0.00  0.00    -0.235 N 
HETATM    9  H           1     -20.054  -4.397  -4.703  0.00  0.00     0.174 HD
HETATM   10  H           1     -19.854  -4.161  -6.486  0.00  0.00     0.174 HD
HETATM   11  H           1     -21.026  -7.384  -7.239  0.00  0.00     0.174 HD
HETATM   12  H           1     -20.389  -5.806  -7.882  0.00  0.00     0.174 HD
HETATM   13  H           1     -20.833  -6.329  -3.930  0.00  0.00     0.177 HD
ENDBRANCH   4   5
ENDBRANCH   3   4
ENDBRANCH   2   3
ENDBRANCH   1   2
BRANCH   1  14
HETATM   14  C           1     -22.146  -6.852  -1.385  0.00  0.00     0.196 C 
HETATM   15  O           1     -22.971  -6.738  -0.453  0.00  0.00    -0.646 OA
HETATM   16  O           1     -22.040  -5.945  -2.239  0.00  0.00    -0.646 OA
ENDBRANCH   1  14
BRANCH   1  17
HETATM   17  N           1     -22.106  -9.267  -1.378  0.00  0.00    -0.345 N 
HETATM   18  C           1     -22.048 -10.048  -0.255  0.00  0.00     0.249 C 
HETATM   19  O           1     -21.306  -9.751   0.651  0.00  0.00    -0.271 OA
HETATM   20  H           1     -22.727  -9.516  -2.137  0.00  0.00     0.163 HD
BRANCH  18  21
HETATM   21  C           1     -22.911 -11.282  -0.149  0.00  0.00     0.274 C 
HETATM   22  C           1     -22.025 -12.521  -0.118  0.00  0.00     0.042 C 
HETATM   23  C           1     -21.199 -12.588  -1.395  0.00  0.00     0.003 C 
HETATM   24 Se           1     -22.389 -12.682  -2.936  0.00  0.00     0.000 Se
HETATM   25  C           1     -20.951 -12.747  -4.249  0.00  0.00     0.000 C 
HETATM   26  H           1     -23.259 -11.399  -2.211  0.00  0.00     0.275 HD
HETATM   27  N           1     -23.827 -11.354  -1.336  0.00  0.00    -0.067 N 
HETATM   28  H           1     -24.425 -12.208  -1.264  0.00  0.00     0.275 HD
HETATM   29  H           1     -24.435 -10.503  -1.357  0.00  0.00     0.275 HD
ENDBRANCH  18  21
ENDBRANCH   1  17
TORSDOF 7
ENDMDL
