MODEL 1
REMARK VINA RESULT:      -8.0      0.000      0.000
REMARK  10 active torsions:
REMARK  status: ('A' for Active; 'I' for Inactive)
REMARK       I    between atoms: C_3  and  N_4 
REMARK    1  A    between atoms: C_3  and  C_17 
REMARK    2  A    between atoms: N_4  and  C_12 
REMARK    3  A    between atoms: C_6  and  O_10 
REMARK    4  A    between atoms: C_11  and  C_12 
REMARK    5  A    between atoms: C_12  and  C_28 
REMARK    6  A    between atoms: C_13  and  C_28 
REMARK    7  A    between atoms: C_14  and  C_17 
REMARK    8  A    between atoms: C_14  and  C_25 
REMARK    9  A    between atoms: C_17  and  N_21 
REMARK       I    between atoms: N_23  and  C_24 
REMARK   10  A    between atoms: C_24  and  C_25 
ROOT
HETATM    1  C           1     -36.455  -0.354 -14.275  0.00  0.00     0.249 C 
HETATM    2  N           1     -35.435  -0.555 -13.384  0.00  0.00    -0.344 N 
HETATM    3  H           1     -34.523  -0.154 -13.561  0.00  0.00     0.163 HD
HETATM    4  O           1     -37.545  -0.832 -14.064  0.00  0.00    -0.271 OA
ENDROOT
BRANCH   2   5
HETATM    5  C           1     -35.662  -1.341 -12.188  0.00  0.00     0.189 C 
BRANCH   5   6
HETATM    6  C           1     -36.552  -0.573 -11.243  0.00  0.00     0.197 C 
HETATM    7  O           1     -37.662  -1.041 -10.909  0.00  0.00    -0.646 OA
HETATM    8  O           1     -36.179   0.533 -10.793  0.00  0.00    -0.646 OA
ENDBRANCH   5   6
BRANCH   5   9
HETATM    9  C           1     -34.329  -1.630 -11.511  0.00  0.00     0.074 C 
BRANCH   9  10
HETATM   10  C           1     -34.169  -3.108 -11.332  0.00  0.00    -0.056 A 
HETATM   11  C           1     -35.228  -3.868 -10.837  0.00  0.00     0.010 A 
HETATM   12  C           1     -35.080  -5.245 -10.671  0.00  0.00     0.037 A 
HETATM   13  C           1     -33.872  -5.861 -10.999  0.00  0.00     0.065 A 
HETATM   14  C           1     -32.813  -5.101 -11.493  0.00  0.00     0.037 A 
HETATM   15  C           1     -32.962  -3.723 -11.660  0.00  0.00     0.010 A 
BRANCH  13  16
HETATM   16  O           1     -33.728  -7.199 -10.837  0.00  0.00    -0.361 OA
HETATM   17  H           1     -34.545  -7.628 -11.141  0.00  0.00     0.217 HD
ENDBRANCH  13  16
ENDBRANCH   9  10
ENDBRANCH   5   9
ENDBRANCH   2   5
BRANCH   1  18
HETATM   18  C           1     -36.219   0.466 -15.521  0.00  0.00     0.275 C 
BRANCH  18  19
HETATM   19  C           1     -35.136  -0.195 -16.365  0.00  0.00     0.052 C 
BRANCH  19  20
HETATM   20  C           1     -35.628  -1.550 -16.854  0.00  0.00     0.105 C 
BRANCH  20  21
HETATM   21  C           1     -34.611  -2.610 -16.511  0.00  0.00     0.215 C 
HETATM   22  O           1     -34.587  -3.087 -15.402  0.00  0.00    -0.274 OA
HETATM   23  N           1     -33.715  -3.031 -17.456  0.00  0.00    -0.370 N 
HETATM   24  H           1     -33.734  -2.632 -18.385  0.00  0.00     0.159 HD
HETATM   25  H           1     -33.033  -3.743 -17.225  0.00  0.00     0.159 HD
ENDBRANCH  20  21
ENDBRANCH  19  20
ENDBRANCH  18  19
BRANCH  18  26
HETATM   26  N           1     -35.778   1.845 -15.134  0.00  0.00    -0.066 N 
HETATM   27  H           1     -36.254   2.548 -15.743  0.00  0.00     0.275 HD
HETATM   28  H           1     -34.743   1.926 -15.252  0.00  0.00     0.275 HD
HETATM   29  H           1     -36.029   2.025 -14.134  0.00  0.00     0.275 HD
ENDBRANCH  18  26
ENDBRANCH   1  18
TORSDOF 10
ENDMDL
MODEL 2
REMARK VINA RESULT:      -7.3      2.702      6.076
REMARK  10 active torsions:
REMARK  status: ('A' for Active; 'I' for Inactive)
REMARK       I    between atoms: C_3  and  N_4 
REMARK    1  A    between atoms: C_3  and  C_17 
REMARK    2  A    between atoms: N_4  and  C_12 
REMARK    3  A    between atoms: C_6  and  O_10 
REMARK    4  A    between atoms: C_11  and  C_12 
REMARK    5  A    between atoms: C_12  and  C_28 
REMARK    6  A    between atoms: C_13  and  C_28 
REMARK    7  A    between atoms: C_14  and  C_17 
REMARK    8  A    between atoms: C_14  and  C_25 
REMARK    9  A    between atoms: C_17  and  N_21 
REMARK       I    between atoms: N_23  and  C_24 
REMARK   10  A    between atoms: C_24  and  C_25 
ROOT
HETATM    1  C           1     -35.100  -2.672 -11.229  0.00  0.00     0.249 C 
HETATM    2  N           1     -36.300  -2.060 -10.979  0.00  0.00    -0.344 N 
HETATM    3  H           1     -37.156  -2.598 -11.000  0.00  0.00     0.163 HD
HETATM    4  O           1     -34.077  -2.028 -11.204  0.00  0.00    -0.271 OA
ENDROOT
BRANCH   2   5
HETATM    5  C           1     -36.342  -0.641 -10.685  0.00  0.00     0.189 C 
BRANCH   5   6
HETATM    6  C           1     -36.614  -0.440  -9.215  0.00  0.00     0.197 C 
HETATM    7  O           1     -35.709  -0.015  -8.464  0.00  0.00    -0.646 OA
HETATM    8  O           1     -37.744  -0.699  -8.747  0.00  0.00    -0.646 OA
ENDBRANCH   5   6
BRANCH   5   9
HETATM    9  C           1     -37.450   0.013 -11.501  0.00  0.00     0.074 C 
BRANCH   9  10
HETATM   10  C           1     -37.083  -0.015 -12.953  0.00  0.00    -0.056 A 
HETATM   11  C           1     -38.065  -0.254 -13.914  0.00  0.00     0.010 A 
HETATM   12  C           1     -37.725  -0.280 -15.267  0.00  0.00     0.037 A 
HETATM   13  C           1     -36.402  -0.067 -15.657  0.00  0.00     0.065 A 
HETATM   14  C           1     -35.421   0.171 -14.696  0.00  0.00     0.037 A 
HETATM   15  C           1     -35.762   0.197 -13.343  0.00  0.00     0.010 A 
BRANCH  13  16
HETATM   16  O           1     -36.071  -0.092 -16.971  0.00  0.00    -0.361 OA
HETATM   17  H           1     -35.274   0.450 -17.090  0.00  0.00     0.217 HD
ENDBRANCH  13  16
ENDBRANCH   9  10
ENDBRANCH   5   9
ENDBRANCH   2   5
BRANCH   1  18
HETATM   18  C           1     -35.056  -4.149 -11.534  0.00  0.00     0.275 C 
BRANCH  18  19
HETATM   19  C           1     -34.313  -4.876 -10.420  0.00  0.00     0.052 C 
BRANCH  19  20
HETATM   20  C           1     -33.682  -6.145 -10.974  0.00  0.00     0.105 C 
BRANCH  20  21
HETATM   21  C           1     -34.241  -7.345 -10.249  0.00  0.00     0.215 C 
HETATM   22  O           1     -35.258  -7.242  -9.607  0.00  0.00    -0.274 OA
HETATM   23  N           1     -33.595  -8.550 -10.319  0.00  0.00    -0.370 N 
HETATM   24  H           1     -32.743  -8.637 -10.857  0.00  0.00     0.159 HD
HETATM   25  H           1     -33.971  -9.354  -9.833  0.00  0.00     0.159 HD
ENDBRANCH  20  21
ENDBRANCH  19  20
ENDBRANCH  18  19
BRANCH  18  26
HETATM   26  N           1     -34.343  -4.368 -12.835  0.00  0.00    -0.066 N 
HETATM   27  H           1     -33.756  -5.230 -12.771  0.00  0.00     0.275 HD
HETATM   28  H           1     -33.733  -3.545 -13.040  0.00  0.00     0.275 HD
HETATM   29  H           1     -35.044  -4.482 -13.603  0.00  0.00     0.275 HD
ENDBRANCH  18  26
ENDBRANCH   1  18
TORSDOF 10
ENDMDL
MODEL 3
REMARK VINA RESULT:      -7.2     13.251     15.451
REMARK  10 active torsions:
REMARK  status: ('A' for Active; 'I' for Inactive)
REMARK       I    between atoms: C_3  and  N_4 
REMARK    1  A    between atoms: C_3  and  C_17 
REMARK    2  A    between atoms: N_4  and  C_12 
REMARK    3  A    between atoms: C_6  and  O_10 
REMARK    4  A    between atoms: C_11  and  C_12 
REMARK    5  A    between atoms: C_12  and  C_28 
REMARK    6  A    between atoms: C_13  and  C_28 
REMARK    7  A    between atoms: C_14  and  C_17 
REMARK    8  A    between atoms: C_14  and  C_25 
REMARK    9  A    between atoms: C_17  and  N_21 
REMARK       I    between atoms: N_23  and  C_24 
REMARK   10  A    between atoms: C_24  and  C_25 
ROOT
HETATM    1  C           1     -22.997  -4.594  -7.761  0.00  0.00     0.249 C 
HETATM    2  N           1     -21.716  -5.043  -7.583  0.00  0.00    -0.344 N 
HETATM    3  H           1     -21.108  -5.165  -8.383  0.00  0.00     0.163 HD
HETATM    4  O           1     -23.724  -4.447  -6.806  0.00  0.00    -0.271 OA
ENDROOT
BRANCH   2   5
HETATM    5  C           1     -21.231  -5.342  -6.251  0.00  0.00     0.189 C 
BRANCH   5   6
HETATM    6  C           1     -19.853  -4.753  -6.073  0.00  0.00     0.197 C 
HETATM    7  O           1     -19.510  -4.287  -4.965  0.00  0.00    -0.646 OA
HETATM    8  O           1     -19.054  -4.732  -7.034  0.00  0.00    -0.646 OA
ENDBRANCH   5   6
BRANCH   5   9
HETATM    9  C           1     -21.167  -6.852  -6.062  0.00  0.00     0.074 C 
BRANCH   9  10
HETATM   10  C           1     -21.111  -7.170  -4.600  0.00  0.00    -0.056 A 
HETATM   11  C           1     -21.878  -6.435  -3.697  0.00  0.00     0.010 A 
HETATM   12  C           1     -21.827  -6.730  -2.334  0.00  0.00     0.037 A 
HETATM   13  C           1     -21.007  -7.762  -1.876  0.00  0.00     0.065 A 
HETATM   14  C           1     -20.239  -8.497  -2.779  0.00  0.00     0.037 A 
HETATM   15  C           1     -20.292  -8.201  -4.141  0.00  0.00     0.010 A 
BRANCH  13  16
HETATM   16  O           1     -20.956  -8.050  -0.552  0.00  0.00    -0.361 OA
HETATM   17  H           1     -20.661  -7.253  -0.083  0.00  0.00     0.217 HD
ENDBRANCH  13  16
ENDBRANCH   9  10
ENDBRANCH   5   9
ENDBRANCH   2   5
BRANCH   1  18
HETATM   18  C           1     -23.502  -4.282  -9.149  0.00  0.00     0.275 C 
BRANCH  18  19
HETATM   19  C           1     -22.354  -3.752  -9.999  0.00  0.00     0.052 C 
BRANCH  19  20
HETATM   20  C           1     -22.401  -4.398 -11.377  0.00  0.00     0.105 C 
BRANCH  20  21
HETATM   21  C           1     -22.906  -3.397 -12.387  0.00  0.00     0.215 C 
HETATM   22  O           1     -23.873  -2.720 -12.134  0.00  0.00    -0.274 OA
HETATM   23  N           1     -22.268  -3.257 -13.590  0.00  0.00    -0.370 N 
HETATM   24  H           1     -21.458  -3.824 -13.803  0.00  0.00     0.159 HD
HETATM   25  H           1     -22.608  -2.585 -14.267  0.00  0.00     0.159 HD
ENDBRANCH  20  21
ENDBRANCH  19  20
ENDBRANCH  18  19
BRANCH  18  26
HETATM   26  N           1     -24.581  -3.245  -9.066  0.00  0.00    -0.066 N 
HETATM   27  H           1     -25.262  -3.385  -9.846  0.00  0.00     0.275 HD
HETATM   28  H           1     -24.156  -2.293  -9.141  0.00  0.00     0.275 HD
HETATM   29  H           1     -25.079  -3.332  -8.150  0.00  0.00     0.275 HD
ENDBRANCH  18  26
ENDBRANCH   1  18
TORSDOF 10
ENDMDL
MODEL 4
REMARK VINA RESULT:      -7.1     13.763     16.962
REMARK  10 active torsions:
REMARK  status: ('A' for Active; 'I' for Inactive)
REMARK       I    between atoms: C_3  and  N_4 
REMARK    1  A    between atoms: C_3  and  C_17 
REMARK    2  A    between atoms: N_4  and  C_12 
REMARK    3  A    between atoms: C_6  and  O_10 
REMARK    4  A    between atoms: C_11  and  C_12 
REMARK    5  A    between atoms: C_12  and  C_28 
REMARK    6  A    between atoms: C_13  and  C_28 
REMARK    7  A    between atoms: C_14  and  C_17 
REMARK    8  A    between atoms: C_14  and  C_25 
REMARK    9  A    between atoms: C_17  and  N_21 
REMARK       I    between atoms: N_23  and  C_24 
REMARK   10  A    between atoms: C_24  and  C_25 
ROOT
HETATM    1  C           1     -21.343  -6.894  -5.495  0.00  0.00     0.249 C 
HETATM    2  N           1     -21.564  -5.584  -5.827  0.00  0.00    -0.344 N 
HETATM    3  H           1     -22.105  -4.991  -5.212  0.00  0.00     0.163 HD
HETATM    4  O           1     -20.696  -7.603  -6.230  0.00  0.00    -0.271 OA
ENDROOT
BRANCH   2   5
HETATM    5  C           1     -21.021  -5.048  -7.060  0.00  0.00     0.189 C 
BRANCH   5   6
HETATM    6  C           1     -19.598  -4.603  -6.831  0.00  0.00     0.197 C 
HETATM    7  O           1     -19.177  -4.426  -5.667  0.00  0.00    -0.646 OA
HETATM    8  O           1     -18.838  -4.412  -7.806  0.00  0.00    -0.646 OA
ENDBRANCH   5   6
BRANCH   5   9
HETATM    9  C           1     -21.860  -3.858  -7.507  0.00  0.00     0.074 C 
BRANCH   9  10
HETATM   10  C           1     -22.349  -4.088  -8.903  0.00  0.00    -0.056 A 
HETATM   11  C           1     -21.438  -4.154  -9.958  0.00  0.00     0.010 A 
HETATM   12  C           1     -21.892  -4.369 -11.259  0.00  0.00     0.037 A 
HETATM   13  C           1     -23.257  -4.517 -11.506  0.00  0.00     0.065 A 
HETATM   14  C           1     -24.168  -4.450 -10.451  0.00  0.00     0.037 A 
HETATM   15  C           1     -23.713  -4.235  -9.150  0.00  0.00     0.010 A 
BRANCH  13  16
HETATM   16  O           1     -23.699  -4.725 -12.770  0.00  0.00    -0.361 OA
HETATM   17  H           1     -24.000  -5.647 -12.835  0.00  0.00     0.217 HD
ENDBRANCH  13  16
ENDBRANCH   9  10
ENDBRANCH   5   9
ENDBRANCH   2   5
BRANCH   1  18
HETATM   18  C           1     -21.907  -7.452  -4.211  0.00  0.00     0.275 C 
BRANCH  18  19
HETATM   19  C           1     -21.191  -6.821  -3.024  0.00  0.00     0.052 C 
BRANCH  19  20
HETATM   20  C           1     -22.217  -6.332  -2.012  0.00  0.00     0.105 C 
BRANCH  20  21
HETATM   21  C           1     -22.232  -7.259  -0.821  0.00  0.00     0.215 C 
HETATM   22  O           1     -23.211  -7.321  -0.116  0.00  0.00    -0.274 OA
HETATM   23  N           1     -21.136  -8.029  -0.539  0.00  0.00    -0.370 N 
HETATM   24  H           1     -20.316  -7.978  -1.129  0.00  0.00     0.159 HD
HETATM   25  H           1     -21.147  -8.651   0.260  0.00  0.00     0.159 HD
ENDBRANCH  20  21
ENDBRANCH  19  20
ENDBRANCH  18  19
BRANCH  18  26
HETATM   26  N           1     -21.706  -8.938  -4.183  0.00  0.00    -0.066 N 
HETATM   27  H           1     -21.245  -9.211  -3.285  0.00  0.00     0.275 HD
HETATM   28  H           1     -21.101  -9.223  -4.986  0.00  0.00     0.275 HD
HETATM   29  H           1     -22.633  -9.417  -4.257  0.00  0.00     0.275 HD
ENDBRANCH  18  26
ENDBRANCH   1  18
TORSDOF 10
ENDMDL
MODEL 5
REMARK VINA RESULT:      -7.1      2.610      5.381
REMARK  10 active torsions:
REMARK  status: ('A' for Active; 'I' for Inactive)
REMARK       I    between atoms: C_3  and  N_4 
REMARK    1  A    between atoms: C_3  and  C_17 
REMARK    2  A    between atoms: N_4  and  C_12 
REMARK    3  A    between atoms: C_6  and  O_10 
REMARK    4  A    between atoms: C_11  and  C_12 
REMARK    5  A    between atoms: C_12  and  C_28 
REMARK    6  A    between atoms: C_13  and  C_28 
REMARK    7  A    between atoms: C_14  and  C_17 
REMARK    8  A    between atoms: C_14  and  C_25 
REMARK    9  A    between atoms: C_17  and  N_21 
REMARK       I    between atoms: N_23  and  C_24 
REMARK   10  A    between atoms: C_24  and  C_25 
ROOT
HETATM    1  C           1     -34.559  -2.336 -10.453  0.00  0.00     0.249 C 
HETATM    2  N           1     -35.887  -2.013 -10.360  0.00  0.00    -0.344 N 
HETATM    3  H           1     -36.585  -2.744 -10.349  0.00  0.00     0.163 HD
HETATM    4  O           1     -33.724  -1.462 -10.467  0.00  0.00    -0.271 OA
ENDROOT
BRANCH   2   5
HETATM    5  C           1     -36.290  -0.623 -10.278  0.00  0.00     0.189 C 
BRANCH   5   6
HETATM    6  C           1     -36.589  -0.271  -8.842  0.00  0.00     0.197 C 
HETATM    7  O           1     -35.754   0.372  -8.169  0.00  0.00    -0.646 OA
HETATM    8  O           1     -37.671  -0.622  -8.324  0.00  0.00    -0.646 OA
ENDBRANCH   5   6
BRANCH   5   9
HETATM    9  C           1     -37.537  -0.407 -11.125  0.00  0.00     0.074 C 
BRANCH   9  10
HETATM   10  C           1     -37.136  -0.104 -12.535  0.00  0.00    -0.056 A 
HETATM   11  C           1     -38.073  -0.210 -13.564  0.00  0.00     0.010 A 
HETATM   12  C           1     -37.701   0.072 -14.878  0.00  0.00     0.037 A 
HETATM   13  C           1     -36.391   0.459 -15.164  0.00  0.00     0.065 A 
HETATM   14  C           1     -35.454   0.563 -14.136  0.00  0.00     0.037 A 
HETATM   15  C           1     -35.828   0.282 -12.822  0.00  0.00     0.010 A 
BRANCH  13  16
HETATM   16  O           1     -36.028   0.732 -16.441  0.00  0.00    -0.361 OA
HETATM   17  H           1     -35.062   0.827 -16.465  0.00  0.00     0.217 HD
ENDBRANCH  13  16
ENDBRANCH   9  10
ENDBRANCH   5   9
ENDBRANCH   2   5
BRANCH   1  18
HETATM   18  C           1     -34.139  -3.783 -10.539  0.00  0.00     0.275 C 
BRANCH  18  19
HETATM   19  C           1     -33.223  -3.976 -11.740  0.00  0.00     0.052 C 
BRANCH  19  20
HETATM   20  C           1     -33.962  -4.746 -12.826  0.00  0.00     0.105 C 
BRANCH  20  21
HETATM   21  C           1     -34.151  -3.860 -14.032  0.00  0.00     0.215 C 
HETATM   22  O           1     -34.684  -2.782 -13.912  0.00  0.00    -0.274 OA
HETATM   23  N           1     -33.720  -4.276 -15.263  0.00  0.00    -0.370 N 
HETATM   24  H           1     -33.274  -5.178 -15.364  0.00  0.00     0.159 HD
HETATM   25  H           1     -33.848  -3.681 -16.071  0.00  0.00     0.159 HD
ENDBRANCH  20  21
ENDBRANCH  19  20
ENDBRANCH  18  19
BRANCH  18  26
HETATM   26  N           1     -35.355  -4.647 -10.695  0.00  0.00    -0.066 N 
HETATM   27  H           1     -36.200  -4.043 -10.807  0.00  0.00     0.275 HD
HETATM   28  H           1     -35.465  -5.249  -9.848  0.00  0.00     0.275 HD
HETATM   29  H           1     -35.246  -5.253 -11.540  0.00  0.00     0.275 HD
ENDBRANCH  18  26
ENDBRANCH   1  18
TORSDOF 10
ENDMDL
MODEL 6
REMARK VINA RESULT:      -7.0      8.210     10.738
REMARK  10 active torsions:
REMARK  status: ('A' for Active; 'I' for Inactive)
REMARK       I    between atoms: C_3  and  N_4 
REMARK    1  A    between atoms: C_3  and  C_17 
REMARK    2  A    between atoms: N_4  and  C_12 
REMARK    3  A    between atoms: C_6  and  O_10 
REMARK    4  A    between atoms: C_11  and  C_12 
REMARK    5  A    between atoms: C_12  and  C_28 
REMARK    6  A    between atoms: C_13  and  C_28 
REMARK    7  A    between atoms: C_14  and  C_17 
REMARK    8  A    between atoms: C_14  and  C_25 
REMARK    9  A    between atoms: C_17  and  N_21 
REMARK       I    between atoms: N_23  and  C_24 
REMARK   10  A    between atoms: C_24  and  C_25 
ROOT
HETATM    1  C           1     -29.838  -6.965 -17.609  0.00  0.00     0.249 C 
HETATM    2  N           1     -28.734  -6.302 -17.144  0.00  0.00    -0.344 N 
HETATM    3  H           1     -28.817  -5.349 -16.818  0.00  0.00     0.163 HD
HETATM    4  O           1     -29.739  -8.105 -17.999  0.00  0.00    -0.271 OA
ENDROOT
BRANCH   2   5
HETATM    5  C           1     -27.446  -6.968 -17.118  0.00  0.00     0.189 C 
BRANCH   5   6
HETATM    6  C           1     -27.056  -7.251 -15.689  0.00  0.00     0.197 C 
HETATM    7  O           1     -25.850  -7.243 -15.357  0.00  0.00    -0.646 OA
HETATM    8  O           1     -27.937  -7.494 -14.836  0.00  0.00    -0.646 OA
ENDBRANCH   5   6
BRANCH   5   9
HETATM    9  C           1     -26.399  -6.070 -17.764  0.00  0.00     0.074 C 
BRANCH   9  10
HETATM   10  C           1     -25.853  -6.740 -18.986  0.00  0.00    -0.056 A 
HETATM   11  C           1     -26.695  -7.017 -20.063  0.00  0.00     0.010 A 
HETATM   12  C           1     -26.187  -7.641 -21.203  0.00  0.00     0.037 A 
HETATM   13  C           1     -24.836  -7.988 -21.265  0.00  0.00     0.065 A 
HETATM   14  C           1     -23.995  -7.711 -20.187  0.00  0.00     0.037 A 
HETATM   15  C           1     -24.504  -7.087 -19.048  0.00  0.00     0.010 A 
BRANCH  13  16
HETATM   16  O           1     -24.342  -8.594 -22.372  0.00  0.00    -0.361 OA
HETATM   17  H           1     -23.744  -9.304 -22.084  0.00  0.00     0.217 HD
ENDBRANCH  13  16
ENDBRANCH   9  10
ENDBRANCH   5   9
ENDBRANCH   2   5
BRANCH   1  18
HETATM   18  C           1     -31.179  -6.272 -17.635  0.00  0.00     0.275 C 
BRANCH  18  19
HETATM   19  C           1     -31.207  -5.181 -16.573  0.00  0.00     0.052 C 
BRANCH  19  20
HETATM   20  C           1     -32.618  -4.620 -16.458  0.00  0.00     0.105 C 
BRANCH  20  21
HETATM   21  C           1     -32.742  -3.387 -17.319  0.00  0.00     0.215 C 
HETATM   22  O           1     -31.778  -2.964 -17.911  0.00  0.00    -0.274 OA
HETATM   23  N           1     -33.947  -2.748 -17.430  0.00  0.00    -0.370 N 
HETATM   24  H           1     -34.755  -3.101 -16.934  0.00  0.00     0.159 HD
HETATM   25  H           1     -34.030  -1.921 -18.008  0.00  0.00     0.159 HD
ENDBRANCH  20  21
ENDBRANCH  19  20
ENDBRANCH  18  19
BRANCH  18  26
HETATM   26  N           1     -32.262  -7.271 -17.355  0.00  0.00    -0.066 N 
HETATM   27  H           1     -32.586  -7.165 -16.367  0.00  0.00     0.275 HD
HETATM   28  H           1     -31.890  -8.237 -17.498  0.00  0.00     0.275 HD
HETATM   29  H           1     -33.065  -7.106 -18.004  0.00  0.00     0.275 HD
ENDBRANCH  18  26
ENDBRANCH   1  18
TORSDOF 10
ENDMDL
MODEL 7
REMARK VINA RESULT:      -6.9     14.308     17.035
REMARK  10 active torsions:
REMARK  status: ('A' for Active; 'I' for Inactive)
REMARK       I    between atoms: C_3  and  N_4 
REMARK    1  A    between atoms: C_3  and  C_17 
REMARK    2  A    between atoms: N_4  and  C_12 
REMARK    3  A    between atoms: C_6  and  O_10 
REMARK    4  A    between atoms: C_11  and  C_12 
REMARK    5  A    between atoms: C_12  and  C_28 
REMARK    6  A    between atoms: C_13  and  C_28 
REMARK    7  A    between atoms: C_14  and  C_17 
REMARK    8  A    between atoms: C_14  and  C_25 
REMARK    9  A    between atoms: C_17  and  N_21 
REMARK       I    between atoms: N_23  and  C_24 
REMARK   10  A    between atoms: C_24  and  C_25 
ROOT
HETATM    1  C           1     -20.095  -5.245  -6.247  0.00  0.00     0.249 C 
HETATM    2  N           1     -20.104  -6.596  -6.471  0.00  0.00    -0.344 N 
HETATM    3  H           1     -20.118  -6.952  -7.417  0.00  0.00     0.163 HD
HETATM    4  O           1     -20.078  -4.820  -5.116  0.00  0.00    -0.271 OA
ENDROOT
BRANCH   2   5
HETATM    5  C           1     -20.094  -7.516  -5.350  0.00  0.00     0.189 C 
BRANCH   5   6
HETATM    6  C           1     -19.357  -8.774  -5.739  0.00  0.00     0.197 C 
HETATM    7  O           1     -18.233  -8.698  -6.280  0.00  0.00    -0.646 OA
HETATM    8  O           1     -19.872  -9.892  -5.521  0.00  0.00    -0.646 OA
ENDBRANCH   5   6
BRANCH   5   9
HETATM    9  C           1     -21.527  -7.863  -4.967  0.00  0.00     0.074 C 
BRANCH   9  10
HETATM   10  C           1     -21.680  -7.776  -3.480  0.00  0.00    -0.056 A 
HETATM   11  C           1     -21.991  -6.554  -2.882  0.00  0.00     0.010 A 
HETATM   12  C           1     -22.134  -6.472  -1.497  0.00  0.00     0.037 A 
HETATM   13  C           1     -21.967  -7.612  -0.710  0.00  0.00     0.065 A 
HETATM   14  C           1     -21.656  -8.834  -1.308  0.00  0.00     0.037 A 
HETATM   15  C           1     -21.513  -8.914  -2.694  0.00  0.00     0.010 A 
BRANCH  13  16
HETATM   16  O           1     -22.106  -7.534   0.636  0.00  0.00    -0.361 OA
HETATM   17  H           1     -23.025  -7.761   0.856  0.00  0.00     0.217 HD
ENDBRANCH  13  16
ENDBRANCH   9  10
ENDBRANCH   5   9
ENDBRANCH   2   5
BRANCH   1  18
HETATM   18  C           1     -20.105  -4.287  -7.414  0.00  0.00     0.275 C 
BRANCH  18  19
HETATM   19  C           1     -21.385  -3.463  -7.383  0.00  0.00     0.052 C 
BRANCH  19  20
HETATM   20  C           1     -22.577  -4.363  -7.682  0.00  0.00     0.105 C 
BRANCH  20  21
HETATM   21  C           1     -23.234  -3.921  -8.966  0.00  0.00     0.215 C 
HETATM   22  O           1     -22.661  -4.065 -10.019  0.00  0.00    -0.274 OA
HETATM   23  N           1     -24.480  -3.355  -8.937  0.00  0.00    -0.370 N 
HETATM   24  H           1     -24.961  -3.233  -8.056  0.00  0.00     0.159 HD
HETATM   25  H           1     -24.921  -3.059  -9.800  0.00  0.00     0.159 HD
ENDBRANCH  20  21
ENDBRANCH  19  20
ENDBRANCH  18  19
BRANCH  18  26
HETATM   26  N           1     -20.040  -5.062  -8.696  0.00  0.00    -0.066 N 
HETATM   27  H           1     -20.310  -6.056  -8.518  0.00  0.00     0.275 HD
HETATM   28  H           1     -19.067  -5.028  -9.075  0.00  0.00     0.275 HD
HETATM   29  H           1     -20.699  -4.642  -9.391  0.00  0.00     0.275 HD
ENDBRANCH  18  26
ENDBRANCH   1  18
TORSDOF 10
ENDMDL
MODEL 8
REMARK VINA RESULT:      -6.5     13.429     16.567
REMARK  10 active torsions:
REMARK  status: ('A' for Active; 'I' for Inactive)
REMARK       I    between atoms: C_3  and  N_4 
REMARK    1  A    between atoms: C_3  and  C_17 
REMARK    2  A    between atoms: N_4  and  C_12 
REMARK    3  A    between atoms: C_6  and  O_10 
REMARK    4  A    between atoms: C_11  and  C_12 
REMARK    5  A    between atoms: C_12  and  C_28 
REMARK    6  A    between atoms: C_13  and  C_28 
REMARK    7  A    between atoms: C_14  and  C_17 
REMARK    8  A    between atoms: C_14  and  C_25 
REMARK    9  A    between atoms: C_17  and  N_21 
REMARK       I    between atoms: N_23  and  C_24 
REMARK   10  A    between atoms: C_24  and  C_25 
ROOT
HETATM    1  C           1     -21.214  -6.143  -6.239  0.00  0.00     0.249 C 
HETATM    2  N           1     -21.408  -4.911  -6.805  0.00  0.00    -0.344 N 
HETATM    3  H           1     -21.457  -4.088  -6.219  0.00  0.00     0.163 HD
HETATM    4  O           1     -21.155  -7.127  -6.939  0.00  0.00    -0.271 OA
ENDROOT
BRANCH   2   5
HETATM    5  C           1     -21.544  -4.787  -8.242  0.00  0.00     0.189 C 
BRANCH   5   6
HETATM    6  C           1     -20.205  -4.440  -8.845  0.00  0.00     0.197 C 
HETATM    7  O           1     -19.420  -3.684  -8.232  0.00  0.00    -0.646 OA
HETATM    8  O           1     -19.880  -4.907  -9.959  0.00  0.00    -0.646 OA
ENDBRANCH   5   6
BRANCH   5   9
HETATM    9  C           1     -22.547  -3.687  -8.564  0.00  0.00     0.074 C 
BRANCH   9  10
HETATM   10  C           1     -22.943  -3.778 -10.005  0.00  0.00    -0.056 A 
HETATM   11  C           1     -23.515  -4.951 -10.497  0.00  0.00     0.010 A 
HETATM   12  C           1     -23.884  -5.036 -11.840  0.00  0.00     0.037 A 
HETATM   13  C           1     -23.681  -3.948 -12.690  0.00  0.00     0.065 A 
HETATM   14  C           1     -23.108  -2.776 -12.197  0.00  0.00     0.037 A 
HETATM   15  C           1     -22.739  -2.691 -10.854  0.00  0.00     0.010 A 
BRANCH  13  16
HETATM   16  O           1     -24.039  -4.030 -13.994  0.00  0.00    -0.361 OA
HETATM   17  H           1     -23.506  -3.390 -14.493  0.00  0.00     0.217 HD
ENDBRANCH  13  16
ENDBRANCH   9  10
ENDBRANCH   5   9
ENDBRANCH   2   5
BRANCH   1  18
HETATM   18  C           1     -21.072  -6.272  -4.742  0.00  0.00     0.275 C 
BRANCH  18  19
HETATM   19  C           1     -20.469  -7.630  -4.404  0.00  0.00     0.052 C 
BRANCH  19  20
HETATM   20  C           1     -21.281  -8.287  -3.297  0.00  0.00     0.105 C 
BRANCH  20  21
HETATM   21  C           1     -20.412  -8.476  -2.078  0.00  0.00     0.215 C 
HETATM   22  O           1     -19.307  -8.950  -2.192  0.00  0.00    -0.274 OA
HETATM   23  N           1     -20.876  -8.111  -0.843  0.00  0.00    -0.370 N 
HETATM   24  H           1     -21.801  -7.714  -0.747  0.00  0.00     0.159 HD
HETATM   25  H           1     -20.292  -8.238  -0.026  0.00  0.00     0.159 HD
ENDBRANCH  20  21
ENDBRANCH  19  20
ENDBRANCH  18  19
BRANCH  18  26
HETATM   26  N           1     -22.422  -6.153  -4.101  0.00  0.00    -0.066 N 
HETATM   27  H           1     -22.718  -7.086  -3.733  0.00  0.00     0.275 HD
HETATM   28  H           1     -23.116  -5.823  -4.810  0.00  0.00     0.275 HD
HETATM   29  H           1     -22.376  -5.467  -3.313  0.00  0.00     0.275 HD
ENDBRANCH  18  26
ENDBRANCH   1  18
TORSDOF 10
ENDMDL
MODEL 9
REMARK VINA RESULT:      -6.5     15.354     17.337
REMARK  10 active torsions:
REMARK  status: ('A' for Active; 'I' for Inactive)
REMARK       I    between atoms: C_3  and  N_4 
REMARK    1  A    between atoms: C_3  and  C_17 
REMARK    2  A    between atoms: N_4  and  C_12 
REMARK    3  A    between atoms: C_6  and  O_10 
REMARK    4  A    between atoms: C_11  and  C_12 
REMARK    5  A    between atoms: C_12  and  C_28 
REMARK    6  A    between atoms: C_13  and  C_28 
REMARK    7  A    between atoms: C_14  and  C_17 
REMARK    8  A    between atoms: C_14  and  C_25 
REMARK    9  A    between atoms: C_17  and  N_21 
REMARK       I    between atoms: N_23  and  C_24 
REMARK   10  A    between atoms: C_24  and  C_25 
ROOT
HETATM    1  C           1     -21.001  -6.028  -6.224  0.00  0.00     0.249 C 
HETATM    2  N           1     -20.911  -7.388  -6.090  0.00  0.00    -0.344 N 
HETATM    3  H           1     -21.198  -7.991  -6.850  0.00  0.00     0.163 HD
HETATM    4  O           1     -20.657  -5.308  -5.316  0.00  0.00    -0.271 OA
ENDROOT
BRANCH   2   5
HETATM    5  C           1     -20.404  -7.964  -4.861  0.00  0.00     0.189 C 
BRANCH   5   6
HETATM    6  C           1     -19.100  -8.670  -5.137  0.00  0.00     0.197 C 
HETATM    7  O           1     -18.488  -9.241  -4.207  0.00  0.00    -0.646 OA
HETATM    8  O           1     -18.630  -8.685  -6.295  0.00  0.00    -0.646 OA
ENDBRANCH   5   6
BRANCH   5   9
HETATM    9  C           1     -21.416  -8.960  -4.312  0.00  0.00     0.074 C 
BRANCH   9  10
HETATM   10  C           1     -21.681  -8.661  -2.869  0.00  0.00    -0.056 A 
HETATM   11  C           1     -21.904  -9.704  -1.971  0.00  0.00     0.010 A 
HETATM   12  C           1     -22.151  -9.426  -0.626  0.00  0.00     0.037 A 
HETATM   13  C           1     -22.174  -8.104  -0.180  0.00  0.00     0.065 A 
HETATM   14  C           1     -21.951  -7.061  -1.079  0.00  0.00     0.037 A 
HETATM   15  C           1     -21.704  -7.340  -2.424  0.00  0.00     0.010 A 
BRANCH  13  16
HETATM   16  O           1     -22.413  -7.833   1.126  0.00  0.00    -0.361 OA
HETATM   17  H           1     -22.137  -8.604   1.648  0.00  0.00     0.217 HD
ENDBRANCH  13  16
ENDBRANCH   9  10
ENDBRANCH   5   9
ENDBRANCH   2   5
BRANCH   1  18
HETATM   18  C           1     -21.528  -5.429  -7.505  0.00  0.00     0.275 C 
BRANCH  18  19
HETATM   19  C           1     -20.367  -4.888  -8.328  0.00  0.00     0.052 C 
BRANCH  19  20
HETATM   20  C           1     -20.867  -3.782  -9.247  0.00  0.00     0.105 C 
BRANCH  20  21
HETATM   21  C           1     -20.420  -4.060 -10.661  0.00  0.00     0.215 C 
HETATM   22  O           1     -19.667  -4.978 -10.887  0.00  0.00    -0.274 OA
HETATM   23  N           1     -20.868  -3.274 -11.689  0.00  0.00    -0.370 N 
HETATM   24  H           1     -21.499  -2.506 -11.501  0.00  0.00     0.159 HD
HETATM   25  H           1     -20.568  -3.463 -12.637  0.00  0.00     0.159 HD
ENDBRANCH  20  21
ENDBRANCH  19  20
ENDBRANCH  18  19
BRANCH  18  26
HETATM   26  N           1     -22.474  -4.312  -7.180  0.00  0.00    -0.066 N 
HETATM   27  H           1     -22.984  -4.023  -8.045  0.00  0.00     0.275 HD
HETATM   28  H           1     -21.936  -3.499  -6.805  0.00  0.00     0.275 HD
HETATM   29  H           1     -23.162  -4.635  -6.462  0.00  0.00     0.275 HD
ENDBRANCH  18  26
ENDBRANCH   1  18
TORSDOF 10
ENDMDL
