MODEL 1
REMARK VINA RESULT:      -7.5      0.000      0.000
REMARK  12 active torsions:
REMARK  status: ('A' for Active; 'I' for Inactive)
REMARK    1  A    between atoms: C_5  and  C_25 
REMARK    2  A    between atoms: C_5  and  C_14 
REMARK    3  A    between atoms: C_11  and  C_13 
REMARK    4  A    between atoms: C_11  and  C_20 
REMARK    5  A    between atoms: N_12  and  C_13 
REMARK    6  A    between atoms: C_13  and  C_18 
REMARK    7  A    between atoms: C_14  and  C_23 
REMARK    8  A    between atoms: C_16  and  O_17 
REMARK       I    between atoms: C_18  and  N_19 
REMARK    9  A    between atoms: N_19  and  C_27 
REMARK   10  A    between atoms: C_23  and  C_27 
REMARK   11  A    between atoms: N_24  and  C_25 
REMARK   12  A    between atoms: C_27  and  C_28 
ROOT
HETATM    1  O           1     -35.007  -5.009 -15.365  0.00  0.00    -0.271 OA
HETATM    2  H           1     -32.469  -3.564 -14.218  0.00  0.00     0.163 HD
HETATM    3  C           1     -33.907  -4.509 -15.369  0.00  0.00     0.249 C 
HETATM    4  N           1     -33.391  -3.982 -14.215  0.00  0.00    -0.345 N 
ENDROOT
BRANCH   3   5
HETATM    5  C           1     -33.101  -4.467 -16.644  0.00  0.00     0.278 C 
BRANCH   5   6
HETATM    6  C           1     -31.623  -4.627 -16.317  0.00  0.00     0.081 C 
BRANCH   6   7
HETATM    7  C           1     -31.050  -5.747 -17.128  0.00  0.00    -0.056 A 
HETATM    8  C           1     -31.892  -6.721 -17.664  0.00  0.00     0.010 A 
HETATM    9  C           1     -31.357  -7.765 -18.420  0.00  0.00     0.037 A 
HETATM   10  C           1     -29.981  -7.835 -18.639  0.00  0.00     0.065 A 
HETATM   11  C           1     -29.140  -6.861 -18.102  0.00  0.00     0.037 A 
HETATM   12  C           1     -29.674  -5.817 -17.346  0.00  0.00     0.010 A 
BRANCH  10  13
HETATM   13  O           1     -29.462  -8.848 -19.373  0.00  0.00    -0.361 OA
HETATM   14  H           1     -28.659  -8.523 -19.810  0.00  0.00     0.217 HD
ENDBRANCH  10  13
ENDBRANCH   6   7
ENDBRANCH   5   6
BRANCH   5  15
HETATM   15  N           1     -33.322  -3.152 -17.331  0.00  0.00    -0.066 N 
HETATM   16  H           1     -33.332  -3.299 -18.367  0.00  0.00     0.275 HD
HETATM   17  H           1     -34.238  -2.750 -17.028  0.00  0.00     0.275 HD
HETATM   18  H           1     -32.552  -2.493 -17.079  0.00  0.00     0.275 HD
ENDBRANCH   5  15
ENDBRANCH   3   5
BRANCH   4  19
HETATM   19  C           1     -34.165  -4.023 -12.990  0.00  0.00     0.185 C 
BRANCH  19  20
HETATM   20  C           1     -33.232  -4.246 -11.806  0.00  0.00     0.036 C 
BRANCH  20  21
HETATM   21  C           1     -33.434  -5.653 -11.259  0.00  0.00     0.004 C 
BRANCH  21  22
HETATM   22  C           1     -34.617  -5.661 -10.301  0.00  0.00     0.027 C 
BRANCH  22  23
HETATM   23  C           1     -34.848  -7.078  -9.790  0.00  0.00     0.229 C 
BRANCH  23  24
HETATM   24  N           1     -34.794  -8.040 -10.939  0.00  0.00    -0.079 N 
HETATM   25  H           1     -34.104  -8.797 -10.729  0.00  0.00     0.274 HD
HETATM   26  H           1     -35.738  -8.460 -11.086  0.00  0.00     0.274 HD
HETATM   27  H           1     -34.498  -7.533 -11.804  0.00  0.00     0.274 HD
ENDBRANCH  23  24
ENDBRANCH  22  23
ENDBRANCH  21  22
ENDBRANCH  20  21
ENDBRANCH  19  20
BRANCH  19  28
HETATM   28  C           1     -34.895  -2.714 -12.814  0.00  0.00     0.196 C 
HETATM   29  O           1     -35.604  -2.525 -11.803  0.00  0.00    -0.646 OA
HETATM   30  O           1     -34.791  -1.819 -13.681  0.00  0.00    -0.646 OA
ENDBRANCH  19  28
ENDBRANCH   4  19
TORSDOF 12
ENDMDL
MODEL 2
REMARK VINA RESULT:      -7.2     12.773     14.716
REMARK  12 active torsions:
REMARK  status: ('A' for Active; 'I' for Inactive)
REMARK    1  A    between atoms: C_5  and  C_25 
REMARK    2  A    between atoms: C_5  and  C_14 
REMARK    3  A    between atoms: C_11  and  C_13 
REMARK    4  A    between atoms: C_11  and  C_20 
REMARK    5  A    between atoms: N_12  and  C_13 
REMARK    6  A    between atoms: C_13  and  C_18 
REMARK    7  A    between atoms: C_14  and  C_23 
REMARK    8  A    between atoms: C_16  and  O_17 
REMARK       I    between atoms: C_18  and  N_19 
REMARK    9  A    between atoms: N_19  and  C_27 
REMARK   10  A    between atoms: C_23  and  C_27 
REMARK   11  A    between atoms: N_24  and  C_25 
REMARK   12  A    between atoms: C_27  and  C_28 
ROOT
HETATM    1  O           1     -21.491  -3.439  -7.288  0.00  0.00    -0.271 OA
HETATM    2  H           1     -22.370  -5.810  -9.145  0.00  0.00     0.163 HD
HETATM    3  C           1     -21.620  -4.582  -7.656  0.00  0.00     0.249 C 
HETATM    4  N           1     -22.262  -4.853  -8.836  0.00  0.00    -0.345 N 
ENDROOT
BRANCH   3   5
HETATM    5  C           1     -21.074  -5.712  -6.818  0.00  0.00     0.278 C 
BRANCH   5   6
HETATM    6  C           1     -20.854  -5.226  -5.393  0.00  0.00     0.081 C 
BRANCH   6   7
HETATM    7  C           1     -21.139  -6.341  -4.435  0.00  0.00    -0.056 A 
HETATM    8  C           1     -21.278  -6.072  -3.073  0.00  0.00     0.010 A 
HETATM    9  C           1     -21.543  -7.111  -2.181  0.00  0.00     0.037 A 
HETATM   10  C           1     -21.667  -8.419  -2.649  0.00  0.00     0.065 A 
HETATM   11  C           1     -21.527  -8.688  -4.011  0.00  0.00     0.037 A 
HETATM   12  C           1     -21.262  -7.649  -4.903  0.00  0.00     0.010 A 
BRANCH  10  13
HETATM   13  O           1     -21.923  -9.428  -1.783  0.00  0.00    -0.361 OA
HETATM   14  H           1     -22.231  -9.037  -0.948  0.00  0.00     0.217 HD
ENDBRANCH  10  13
ENDBRANCH   6   7
ENDBRANCH   5   6
BRANCH   5  15
HETATM   15  N           1     -19.769  -6.176  -7.396  0.00  0.00    -0.066 N 
HETATM   16  H           1     -18.981  -5.694  -6.905  0.00  0.00     0.275 HD
HETATM   17  H           1     -19.680  -7.209  -7.266  0.00  0.00     0.275 HD
HETATM   18  H           1     -19.738  -5.948  -8.414  0.00  0.00     0.275 HD
ENDBRANCH   5  15
ENDBRANCH   3   5
BRANCH   4  19
HETATM   19  C           1     -22.787  -3.767  -9.641  0.00  0.00     0.185 C 
BRANCH  19  20
HETATM   20  C           1     -22.285  -3.908 -11.073  0.00  0.00     0.036 C 
BRANCH  20  21
HETATM   21  C           1     -22.613  -2.641 -11.853  0.00  0.00     0.004 C 
BRANCH  21  22
HETATM   22  C           1     -23.718  -2.935 -12.858  0.00  0.00     0.027 C 
BRANCH  22  23
HETATM   23  C           1     -23.411  -2.226 -14.172  0.00  0.00     0.229 C 
BRANCH  23  24
HETATM   24  N           1     -22.378  -3.005 -14.930  0.00  0.00    -0.079 N 
HETATM   25  H           1     -22.750  -3.957 -15.151  0.00  0.00     0.274 HD
HETATM   26  H           1     -22.149  -2.506 -15.818  0.00  0.00     0.274 HD
HETATM   27  H           1     -21.515  -3.096 -14.348  0.00  0.00     0.274 HD
ENDBRANCH  23  24
ENDBRANCH  22  23
ENDBRANCH  21  22
ENDBRANCH  20  21
ENDBRANCH  19  20
BRANCH  19  28
HETATM   28  C           1     -24.294  -3.817  -9.630  0.00  0.00     0.196 C 
HETATM   29  O           1     -24.886  -4.893  -9.865  0.00  0.00    -0.646 OA
HETATM   30  O           1     -24.952  -2.782  -9.386  0.00  0.00    -0.646 OA
ENDBRANCH  19  28
ENDBRANCH   4  19
TORSDOF 12
ENDMDL
MODEL 3
REMARK VINA RESULT:      -7.2     13.653     14.781
REMARK  12 active torsions:
REMARK  status: ('A' for Active; 'I' for Inactive)
REMARK    1  A    between atoms: C_5  and  C_25 
REMARK    2  A    between atoms: C_5  and  C_14 
REMARK    3  A    between atoms: C_11  and  C_13 
REMARK    4  A    between atoms: C_11  and  C_20 
REMARK    5  A    between atoms: N_12  and  C_13 
REMARK    6  A    between atoms: C_13  and  C_18 
REMARK    7  A    between atoms: C_14  and  C_23 
REMARK    8  A    between atoms: C_16  and  O_17 
REMARK       I    between atoms: C_18  and  N_19 
REMARK    9  A    between atoms: N_19  and  C_27 
REMARK   10  A    between atoms: C_23  and  C_27 
REMARK   11  A    between atoms: N_24  and  C_25 
REMARK   12  A    between atoms: C_27  and  C_28 
ROOT
HETATM    1  O           1     -20.051  -6.654  -6.713  0.00  0.00    -0.271 OA
HETATM    2  H           1     -22.537  -6.712  -4.801  0.00  0.00     0.163 HD
HETATM    3  C           1     -21.153  -6.379  -6.304  0.00  0.00     0.249 C 
HETATM    4  N           1     -21.614  -6.943  -5.144  0.00  0.00    -0.345 N 
ENDROOT
BRANCH   3   5
HETATM    5  C           1     -22.022  -5.411  -7.069  0.00  0.00     0.278 C 
BRANCH   5   6
HETATM    6  C           1     -21.177  -4.240  -7.551  0.00  0.00     0.081 C 
BRANCH   6   7
HETATM    7  C           1     -21.370  -4.057  -9.024  0.00  0.00    -0.056 A 
HETATM    8  C           1     -20.293  -4.226  -9.894  0.00  0.00     0.010 A 
HETATM    9  C           1     -20.472  -4.054 -11.267  0.00  0.00     0.037 A 
HETATM   10  C           1     -21.727  -3.714 -11.770  0.00  0.00     0.065 A 
HETATM   11  C           1     -22.804  -3.544 -10.899  0.00  0.00     0.037 A 
HETATM   12  C           1     -22.625  -3.715  -9.526  0.00  0.00     0.010 A 
BRANCH  10  13
HETATM   13  O           1     -21.901  -3.547 -13.102  0.00  0.00    -0.361 OA
HETATM   14  H           1     -22.197  -4.393 -13.476  0.00  0.00     0.217 HD
ENDBRANCH  10  13
ENDBRANCH   6   7
ENDBRANCH   5   6
BRANCH   5  15
HETATM   15  N           1     -23.114  -4.905  -6.173  0.00  0.00    -0.066 N 
HETATM   16  H           1     -23.669  -4.177  -6.679  0.00  0.00     0.275 HD
HETATM   17  H           1     -23.742  -5.698  -5.907  0.00  0.00     0.275 HD
HETATM   18  H           1     -22.695  -4.489  -5.313  0.00  0.00     0.275 HD
ENDBRANCH   5  15
ENDBRANCH   3   5
BRANCH   4  19
HETATM   19  C           1     -20.778  -7.873  -4.410  0.00  0.00     0.185 C 
BRANCH  19  20
HETATM   20  C           1     -20.892  -7.589  -2.917  0.00  0.00     0.036 C 
BRANCH  20  21
HETATM   21  C           1     -21.917  -6.486  -2.687  0.00  0.00     0.004 C 
BRANCH  21  22
HETATM   22  C           1     -22.287  -6.436  -1.210  0.00  0.00     0.027 C 
BRANCH  22  23
HETATM   23  C           1     -22.316  -7.851  -0.645  0.00  0.00     0.229 C 
BRANCH  23  24
HETATM   24  N           1     -23.398  -7.954   0.389  0.00  0.00    -0.079 N 
HETATM   25  H           1     -23.071  -8.561   1.176  0.00  0.00     0.274 HD
HETATM   26  H           1     -23.622  -7.002   0.754  0.00  0.00     0.274 HD
HETATM   27  H           1     -24.252  -8.375  -0.042  0.00  0.00     0.274 HD
ENDBRANCH  23  24
ENDBRANCH  22  23
ENDBRANCH  21  22
ENDBRANCH  20  21
ENDBRANCH  19  20
BRANCH  19  28
HETATM   28  C           1     -21.233  -9.284  -4.688  0.00  0.00     0.196 C 
HETATM   29  O           1     -21.931  -9.894  -3.849  0.00  0.00    -0.646 OA
HETATM   30  O           1     -20.910  -9.845  -5.758  0.00  0.00    -0.646 OA
ENDBRANCH  19  28
ENDBRANCH   4  19
TORSDOF 12
ENDMDL
MODEL 4
REMARK VINA RESULT:      -7.2      4.723      6.784
REMARK  12 active torsions:
REMARK  status: ('A' for Active; 'I' for Inactive)
REMARK    1  A    between atoms: C_5  and  C_25 
REMARK    2  A    between atoms: C_5  and  C_14 
REMARK    3  A    between atoms: C_11  and  C_13 
REMARK    4  A    between atoms: C_11  and  C_20 
REMARK    5  A    between atoms: N_12  and  C_13 
REMARK    6  A    between atoms: C_13  and  C_18 
REMARK    7  A    between atoms: C_14  and  C_23 
REMARK    8  A    between atoms: C_16  and  O_17 
REMARK       I    between atoms: C_18  and  N_19 
REMARK    9  A    between atoms: N_19  and  C_27 
REMARK   10  A    between atoms: C_23  and  C_27 
REMARK   11  A    between atoms: N_24  and  C_25 
REMARK   12  A    between atoms: C_27  and  C_28 
ROOT
HETATM    1  O           1     -34.380  -1.570 -10.006  0.00  0.00    -0.271 OA
HETATM    2  H           1     -36.156  -3.083 -12.103  0.00  0.00     0.163 HD
HETATM    3  C           1     -35.298  -1.753 -10.768  0.00  0.00     0.249 C 
HETATM    4  N           1     -35.386  -2.929 -11.465  0.00  0.00    -0.345 N 
ENDROOT
BRANCH   3   5
HETATM    5  C           1     -36.350  -0.686 -10.953  0.00  0.00     0.278 C 
BRANCH   5   6
HETATM    6  C           1     -35.793   0.430 -11.826  0.00  0.00     0.081 C 
BRANCH   6   7
HETATM    7  C           1     -36.077   0.129 -13.264  0.00  0.00    -0.056 A 
HETATM    8  C           1     -35.026   0.042 -14.178  0.00  0.00     0.010 A 
HETATM    9  C           1     -35.290  -0.239 -15.519  0.00  0.00     0.037 A 
HETATM   10  C           1     -36.604  -0.432 -15.947  0.00  0.00     0.065 A 
HETATM   11  C           1     -37.654  -0.344 -15.032  0.00  0.00     0.037 A 
HETATM   12  C           1     -37.390  -0.063 -13.692  0.00  0.00     0.010 A 
BRANCH  10  13
HETATM   13  O           1     -36.860  -0.703 -17.248  0.00  0.00    -0.361 OA
HETATM   14  H           1     -36.224  -1.374 -17.547  0.00  0.00     0.217 HD
ENDBRANCH  10  13
ENDBRANCH   6   7
ENDBRANCH   5   6
BRANCH   5  15
HETATM   15  N           1     -36.737  -0.130  -9.615  0.00  0.00    -0.066 N 
HETATM   16  H           1     -35.929   0.398  -9.211  0.00  0.00     0.275 HD
HETATM   17  H           1     -37.551   0.515  -9.728  0.00  0.00     0.275 HD
HETATM   18  H           1     -36.998  -0.912  -8.974  0.00  0.00     0.275 HD
ENDBRANCH   5  15
ENDBRANCH   3   5
BRANCH   4  19
HETATM   19  C           1     -34.376  -3.954 -11.287  0.00  0.00     0.185 C 
BRANCH  19  20
HETATM   20  C           1     -35.047  -5.318 -11.192  0.00  0.00     0.036 C 
BRANCH  20  21
HETATM   21  C           1     -34.270  -6.200 -10.224  0.00  0.00     0.004 C 
BRANCH  21  22
HETATM   22  C           1     -34.995  -7.529 -10.053  0.00  0.00     0.027 C 
BRANCH  22  23
HETATM   23  C           1     -34.053  -8.544  -9.419  0.00  0.00     0.229 C 
BRANCH  23  24
HETATM   24  N           1     -33.425  -9.383 -10.493  0.00  0.00    -0.079 N 
HETATM   25  H           1     -32.445  -9.624 -10.219  0.00  0.00     0.274 HD
HETATM   26  H           1     -33.978 -10.260 -10.617  0.00  0.00     0.274 HD
HETATM   27  H           1     -33.413  -8.847 -11.390  0.00  0.00     0.274 HD
ENDBRANCH  23  24
ENDBRANCH  22  23
ENDBRANCH  21  22
ENDBRANCH  20  21
ENDBRANCH  19  20
BRANCH  19  28
HETATM   28  C           1     -33.433  -3.938 -12.465  0.00  0.00     0.196 C 
HETATM   29  O           1     -32.245  -4.299 -12.320  0.00  0.00    -0.646 OA
HETATM   30  O           1     -33.841  -3.563 -13.586  0.00  0.00    -0.646 OA
ENDBRANCH  19  28
ENDBRANCH   4  19
TORSDOF 12
ENDMDL
MODEL 5
REMARK VINA RESULT:      -6.9     14.090     15.215
REMARK  12 active torsions:
REMARK  status: ('A' for Active; 'I' for Inactive)
REMARK    1  A    between atoms: C_5  and  C_25 
REMARK    2  A    between atoms: C_5  and  C_14 
REMARK    3  A    between atoms: C_11  and  C_13 
REMARK    4  A    between atoms: C_11  and  C_20 
REMARK    5  A    between atoms: N_12  and  C_13 
REMARK    6  A    between atoms: C_13  and  C_18 
REMARK    7  A    between atoms: C_14  and  C_23 
REMARK    8  A    between atoms: C_16  and  O_17 
REMARK       I    between atoms: C_18  and  N_19 
REMARK    9  A    between atoms: N_19  and  C_27 
REMARK   10  A    between atoms: C_23  and  C_27 
REMARK   11  A    between atoms: N_24  and  C_25 
REMARK   12  A    between atoms: C_27  and  C_28 
ROOT
HETATM    1  O           1     -19.821  -7.011  -6.255  0.00  0.00    -0.271 OA
HETATM    2  H           1     -22.241  -6.881  -4.262  0.00  0.00     0.163 HD
HETATM    3  C           1     -20.910  -6.697  -5.837  0.00  0.00     0.249 C 
HETATM    4  N           1     -21.329  -7.145  -4.613  0.00  0.00    -0.345 N 
ENDROOT
BRANCH   3   5
HETATM    5  C           1     -21.808  -5.809  -6.663  0.00  0.00     0.278 C 
BRANCH   5   6
HETATM    6  C           1     -21.043  -4.562  -7.083  0.00  0.00     0.081 C 
BRANCH   6   7
HETATM    7  C           1     -21.196  -4.354  -8.557  0.00  0.00    -0.056 A 
HETATM    8  C           1     -22.414  -3.912  -9.075  0.00  0.00     0.010 A 
HETATM    9  C           1     -22.557  -3.718 -10.449  0.00  0.00     0.037 A 
HETATM   10  C           1     -21.484  -3.966 -11.305  0.00  0.00     0.065 A 
HETATM   11  C           1     -20.267  -4.409 -10.786  0.00  0.00     0.037 A 
HETATM   12  C           1     -20.124  -4.603  -9.413  0.00  0.00     0.010 A 
BRANCH  10  13
HETATM   13  O           1     -21.624  -3.778 -12.639  0.00  0.00    -0.361 OA
HETATM   14  H           1     -22.530  -4.028 -12.885  0.00  0.00     0.217 HD
ENDBRANCH  10  13
ENDBRANCH   6   7
ENDBRANCH   5   6
BRANCH   5  15
HETATM   15  N           1     -23.003  -5.411  -5.848  0.00  0.00    -0.066 N 
HETATM   16  H           1     -23.548  -6.266  -5.590  0.00  0.00     0.275 HD
HETATM   17  H           1     -22.686  -4.926  -4.978  0.00  0.00     0.275 HD
HETATM   18  H           1     -23.607  -4.767  -6.405  0.00  0.00     0.275 HD
ENDBRANCH   5  15
ENDBRANCH   3   5
BRANCH   4  19
HETATM   19  C           1     -20.466  -7.999  -3.820  0.00  0.00     0.185 C 
BRANCH  19  20
HETATM   20  C           1     -20.569  -7.603  -2.352  0.00  0.00     0.036 C 
BRANCH  20  21
HETATM   21  C           1     -21.783  -6.706  -2.151  0.00  0.00     0.004 C 
BRANCH  21  22
HETATM   22  C           1     -22.404  -6.989  -0.790  0.00  0.00     0.027 C 
BRANCH  22  23
HETATM   23  C           1     -21.871  -8.310  -0.252  0.00  0.00     0.229 C 
BRANCH  23  24
HETATM   24  N           1     -22.887  -9.390  -0.479  0.00  0.00    -0.079 N 
HETATM   25  H           1     -22.657 -10.217   0.118  0.00  0.00     0.274 HD
HETATM   26  H           1     -23.836  -9.033  -0.227  0.00  0.00     0.274 HD
HETATM   27  H           1     -22.875  -9.673  -1.484  0.00  0.00     0.274 HD
ENDBRANCH  23  24
ENDBRANCH  22  23
ENDBRANCH  21  22
ENDBRANCH  20  21
ENDBRANCH  19  20
BRANCH  19  28
HETATM   28  C           1     -20.893  -9.436  -3.983  0.00  0.00     0.196 C 
HETATM   29  O           1     -20.165 -10.239  -4.605  0.00  0.00    -0.646 OA
HETATM   30  O           1     -21.979  -9.824  -3.497  0.00  0.00    -0.646 OA
ENDBRANCH  19  28
ENDBRANCH   4  19
TORSDOF 12
ENDMDL
MODEL 6
REMARK VINA RESULT:      -6.4     14.640     16.915
REMARK  12 active torsions:
REMARK  status: ('A' for Active; 'I' for Inactive)
REMARK    1  A    between atoms: C_5  and  C_25 
REMARK    2  A    between atoms: C_5  and  C_14 
REMARK    3  A    between atoms: C_11  and  C_13 
REMARK    4  A    between atoms: C_11  and  C_20 
REMARK    5  A    between atoms: N_12  and  C_13 
REMARK    6  A    between atoms: C_13  and  C_18 
REMARK    7  A    between atoms: C_14  and  C_23 
REMARK    8  A    between atoms: C_16  and  O_17 
REMARK       I    between atoms: C_18  and  N_19 
REMARK    9  A    between atoms: N_19  and  C_27 
REMARK   10  A    between atoms: C_23  and  C_27 
REMARK   11  A    between atoms: N_24  and  C_25 
REMARK   12  A    between atoms: C_27  and  C_28 
ROOT
HETATM    1  O           1     -19.279  -7.885  -6.196  0.00  0.00    -0.271 OA
HETATM    2  H           1     -22.143  -6.604  -6.166  0.00  0.00     0.163 HD
HETATM    3  C           1     -20.437  -7.743  -5.884  0.00  0.00     0.249 C 
HETATM    4  N           1     -21.172  -6.723  -6.427  0.00  0.00    -0.345 N 
ENDROOT
BRANCH   3   5
HETATM    5  C           1     -21.074  -8.690  -4.897  0.00  0.00     0.278 C 
BRANCH   5   6
HETATM    6  C           1     -20.242  -8.733  -3.624  0.00  0.00     0.081 C 
BRANCH   6   7
HETATM    7  C           1     -21.125  -8.490  -2.440  0.00  0.00    -0.056 A 
HETATM    8  C           1     -21.587  -9.567  -1.682  0.00  0.00     0.010 A 
HETATM    9  C           1     -22.411  -9.341  -0.579  0.00  0.00     0.037 A 
HETATM   10  C           1     -22.773  -8.040  -0.233  0.00  0.00     0.065 A 
HETATM   11  C           1     -22.312  -6.964  -0.992  0.00  0.00     0.037 A 
HETATM   12  C           1     -21.489  -7.189  -2.095  0.00  0.00     0.010 A 
BRANCH  10  13
HETATM   13  O           1     -23.573  -7.821   0.837  0.00  0.00    -0.361 OA
HETATM   14  H           1     -23.076  -8.055   1.638  0.00  0.00     0.217 HD
ENDBRANCH  10  13
ENDBRANCH   6   7
ENDBRANCH   5   6
BRANCH   5  15
HETATM   15  N           1     -21.143 -10.063  -5.496  0.00  0.00    -0.066 N 
HETATM   16  H           1     -20.487 -10.121  -6.309  0.00  0.00     0.275 HD
HETATM   17  H           1     -20.871 -10.771  -4.777  0.00  0.00     0.275 HD
HETATM   18  H           1     -22.117 -10.254  -5.821  0.00  0.00     0.275 HD
ENDBRANCH   5  15
ENDBRANCH   3   5
BRANCH   4  19
HETATM   19  C           1     -20.560  -5.813  -7.375  0.00  0.00     0.185 C 
BRANCH  19  20
HETATM   20  C           1     -21.646  -5.080  -8.151  0.00  0.00     0.036 C 
BRANCH  20  21
HETATM   21  C           1     -21.015  -4.302  -9.299  0.00  0.00     0.004 C 
BRANCH  21  22
HETATM   22  C           1     -21.951  -4.319 -10.500  0.00  0.00     0.027 C 
BRANCH  22  23
HETATM   23  C           1     -21.581  -3.186 -11.449  0.00  0.00     0.229 C 
BRANCH  23  24
HETATM   24  N           1     -21.830  -3.617 -12.864  0.00  0.00    -0.079 N 
HETATM   25  H           1     -22.556  -4.369 -12.876  0.00  0.00     0.274 HD
HETATM   26  H           1     -22.165  -2.800 -13.422  0.00  0.00     0.274 HD
HETATM   27  H           1     -20.943  -3.983 -13.277  0.00  0.00     0.274 HD
ENDBRANCH  23  24
ENDBRANCH  22  23
ENDBRANCH  21  22
ENDBRANCH  20  21
ENDBRANCH  19  20
BRANCH  19  28
HETATM   28  C           1     -19.710  -4.811  -6.632  0.00  0.00     0.196 C 
HETATM   29  O           1     -20.086  -4.372  -5.524  0.00  0.00    -0.646 OA
HETATM   30  O           1     -18.630  -4.420  -7.127  0.00  0.00    -0.646 OA
ENDBRANCH  19  28
ENDBRANCH   4  19
TORSDOF 12
ENDMDL
MODEL 7
REMARK VINA RESULT:      -6.4     14.328     15.380
REMARK  12 active torsions:
REMARK  status: ('A' for Active; 'I' for Inactive)
REMARK    1  A    between atoms: C_5  and  C_25 
REMARK    2  A    between atoms: C_5  and  C_14 
REMARK    3  A    between atoms: C_11  and  C_13 
REMARK    4  A    between atoms: C_11  and  C_20 
REMARK    5  A    between atoms: N_12  and  C_13 
REMARK    6  A    between atoms: C_13  and  C_18 
REMARK    7  A    between atoms: C_14  and  C_23 
REMARK    8  A    between atoms: C_16  and  O_17 
REMARK       I    between atoms: C_18  and  N_19 
REMARK    9  A    between atoms: N_19  and  C_27 
REMARK   10  A    between atoms: C_23  and  C_27 
REMARK   11  A    between atoms: N_24  and  C_25 
REMARK   12  A    between atoms: C_27  and  C_28 
ROOT
HETATM    1  O           1     -22.090  -7.397  -5.345  0.00  0.00    -0.271 OA
HETATM    2  H           1     -20.597  -5.518  -3.324  0.00  0.00     0.163 HD
HETATM    3  C           1     -21.477  -6.430  -4.961  0.00  0.00     0.249 C 
HETATM    4  N           1     -21.112  -6.328  -3.645  0.00  0.00    -0.345 N 
ENDROOT
BRANCH   3   5
HETATM    5  C           1     -21.112  -5.334  -5.932  0.00  0.00     0.278 C 
BRANCH   5   6
HETATM    6  C           1     -20.627  -5.951  -7.236  0.00  0.00     0.081 C 
BRANCH   6   7
HETATM    7  C           1     -21.044  -5.086  -8.385  0.00  0.00    -0.056 A 
HETATM    8  C           1     -20.141  -4.808  -9.412  0.00  0.00     0.010 A 
HETATM    9  C           1     -20.530  -4.002 -10.482  0.00  0.00     0.037 A 
HETATM   10  C           1     -21.820  -3.474 -10.526  0.00  0.00     0.065 A 
HETATM   11  C           1     -22.722  -3.752  -9.498  0.00  0.00     0.037 A 
HETATM   12  C           1     -22.334  -4.558  -8.428  0.00  0.00     0.010 A 
BRANCH  10  13
HETATM   13  O           1     -22.197  -2.690 -11.564  0.00  0.00    -0.361 OA
HETATM   14  H           1     -22.979  -2.184 -11.290  0.00  0.00     0.217 HD
ENDBRANCH  10  13
ENDBRANCH   6   7
ENDBRANCH   5   6
BRANCH   5  15
HETATM   15  N           1     -20.021  -4.488  -5.343  0.00  0.00    -0.066 N 
HETATM   16  H           1     -19.826  -3.681  -5.979  0.00  0.00     0.275 HD
HETATM   17  H           1     -20.324  -4.130  -4.410  0.00  0.00     0.275 HD
HETATM   18  H           1     -19.156  -5.062  -5.232  0.00  0.00     0.275 HD
ENDBRANCH   5  15
ENDBRANCH   3   5
BRANCH   4  19
HETATM   19  C           1     -21.463  -7.381  -2.713  0.00  0.00     0.185 C 
BRANCH  19  20
HETATM   20  C           1     -20.196  -8.081  -2.235  0.00  0.00     0.036 C 
BRANCH  20  21
HETATM   21  C           1     -20.346  -9.585  -2.420  0.00  0.00     0.004 C 
BRANCH  21  22
HETATM   22  C           1     -21.696  -9.887  -3.057  0.00  0.00     0.027 C 
BRANCH  22  23
HETATM   23  C           1     -22.375 -11.020  -2.296  0.00  0.00     0.229 C 
BRANCH  23  24
HETATM   24  N           1     -23.099 -10.460  -1.108  0.00  0.00    -0.079 N 
HETATM   25  H           1     -23.556 -11.238  -0.579  0.00  0.00     0.274 HD
HETATM   26  H           1     -22.420  -9.968  -0.486  0.00  0.00     0.274 HD
HETATM   27  H           1     -23.829  -9.786  -1.431  0.00  0.00     0.274 HD
ENDBRANCH  23  24
ENDBRANCH  22  23
ENDBRANCH  21  22
ENDBRANCH  20  21
ENDBRANCH  19  20
BRANCH  19  28
HETATM   28  C           1     -22.183  -6.784  -1.529  0.00  0.00     0.196 C 
HETATM   29  O           1     -22.562  -7.519  -0.591  0.00  0.00    -0.646 OA
HETATM   30  O           1     -22.402  -5.554  -1.487  0.00  0.00    -0.646 OA
ENDBRANCH  19  28
ENDBRANCH   4  19
TORSDOF 12
ENDMDL
MODEL 8
REMARK VINA RESULT:      -6.3     14.081     15.087
REMARK  12 active torsions:
REMARK  status: ('A' for Active; 'I' for Inactive)
REMARK    1  A    between atoms: C_5  and  C_25 
REMARK    2  A    between atoms: C_5  and  C_14 
REMARK    3  A    between atoms: C_11  and  C_13 
REMARK    4  A    between atoms: C_11  and  C_20 
REMARK    5  A    between atoms: N_12  and  C_13 
REMARK    6  A    between atoms: C_13  and  C_18 
REMARK    7  A    between atoms: C_14  and  C_23 
REMARK    8  A    between atoms: C_16  and  O_17 
REMARK       I    between atoms: C_18  and  N_19 
REMARK    9  A    between atoms: N_19  and  C_27 
REMARK   10  A    between atoms: C_23  and  C_27 
REMARK   11  A    between atoms: N_24  and  C_25 
REMARK   12  A    between atoms: C_27  and  C_28 
ROOT
HETATM    1  O           1     -22.845  -5.326  -6.130  0.00  0.00    -0.271 OA
HETATM    2  H           1     -20.040  -6.595  -5.522  0.00  0.00     0.163 HD
HETATM    3  C           1     -21.650  -5.487  -6.206  0.00  0.00     0.249 C 
HETATM    4  N           1     -21.041  -6.459  -5.457  0.00  0.00    -0.345 N 
ENDROOT
BRANCH   3   5
HETATM    5  C           1     -20.829  -4.620  -7.128  0.00  0.00     0.278 C 
BRANCH   5   6
HETATM    6  C           1     -20.697  -5.302  -8.483  0.00  0.00     0.081 C 
BRANCH   6   7
HETATM    7  C           1     -21.378  -4.473  -9.528  0.00  0.00    -0.056 A 
HETATM    8  C           1     -20.624  -3.846 -10.520  0.00  0.00     0.010 A 
HETATM    9  C           1     -21.258  -3.074 -11.494  0.00  0.00     0.037 A 
HETATM   10  C           1     -22.645  -2.928 -11.475  0.00  0.00     0.065 A 
HETATM   11  C           1     -23.398  -3.555 -10.482  0.00  0.00     0.037 A 
HETATM   12  C           1     -22.765  -4.327  -9.509  0.00  0.00     0.010 A 
BRANCH  10  13
HETATM   13  O           1     -23.261  -2.178 -12.420  0.00  0.00    -0.361 OA
HETATM   14  H           1     -23.450  -2.750 -13.182  0.00  0.00     0.217 HD
ENDBRANCH  10  13
ENDBRANCH   6   7
ENDBRANCH   5   6
BRANCH   5  15
HETATM   15  N           1     -19.465  -4.415  -6.537  0.00  0.00    -0.066 N 
HETATM   16  H           1     -18.867  -5.247  -6.745  0.00  0.00     0.275 HD
HETATM   17  H           1     -19.030  -3.561  -6.955  0.00  0.00     0.275 HD
HETATM   18  H           1     -19.548  -4.294  -5.504  0.00  0.00     0.275 HD
ENDBRANCH   5  15
ENDBRANCH   3   5
BRANCH   4  19
HETATM   19  C           1     -21.831  -7.292  -4.571  0.00  0.00     0.185 C 
BRANCH  19  20
HETATM   20  C           1     -21.369  -8.739  -4.688  0.00  0.00     0.036 C 
BRANCH  20  21
HETATM   21  C           1     -19.850  -8.781  -4.792  0.00  0.00     0.004 C 
BRANCH  21  22
HETATM   22  C           1     -19.313  -9.914  -3.929  0.00  0.00     0.027 C 
BRANCH  22  23
HETATM   23  C           1     -18.467  -9.337  -2.800  0.00  0.00     0.229 C 
BRANCH  23  24
HETATM   24  N           1     -17.015  -9.435  -3.162  0.00  0.00    -0.079 N 
HETATM   25  H           1     -16.909  -9.371  -4.200  0.00  0.00     0.274 HD
HETATM   26  H           1     -16.491  -8.654  -2.709  0.00  0.00     0.274 HD
HETATM   27  H           1     -16.635 -10.351  -2.831  0.00  0.00     0.274 HD
ENDBRANCH  23  24
ENDBRANCH  22  23
ENDBRANCH  21  22
ENDBRANCH  20  21
ENDBRANCH  19  20
BRANCH  19  28
HETATM   28  C           1     -21.653  -6.821  -3.149  0.00  0.00     0.196 C 
HETATM   29  O           1     -21.426  -5.615  -2.913  0.00  0.00    -0.646 OA
HETATM   30  O           1     -21.731  -7.639  -2.206  0.00  0.00    -0.646 OA
ENDBRANCH  19  28
ENDBRANCH   4  19
TORSDOF 12
ENDMDL
MODEL 9
REMARK VINA RESULT:      -6.1     15.564     16.918
REMARK  12 active torsions:
REMARK  status: ('A' for Active; 'I' for Inactive)
REMARK    1  A    between atoms: C_5  and  C_25 
REMARK    2  A    between atoms: C_5  and  C_14 
REMARK    3  A    between atoms: C_11  and  C_13 
REMARK    4  A    between atoms: C_11  and  C_20 
REMARK    5  A    between atoms: N_12  and  C_13 
REMARK    6  A    between atoms: C_13  and  C_18 
REMARK    7  A    between atoms: C_14  and  C_23 
REMARK    8  A    between atoms: C_16  and  O_17 
REMARK       I    between atoms: C_18  and  N_19 
REMARK    9  A    between atoms: N_19  and  C_27 
REMARK   10  A    between atoms: C_23  and  C_27 
REMARK   11  A    between atoms: N_24  and  C_25 
REMARK   12  A    between atoms: C_27  and  C_28 
ROOT
HETATM    1  O           1     -19.505  -7.536  -6.341  0.00  0.00    -0.271 OA
HETATM    2  H           1     -20.610  -7.955  -3.434  0.00  0.00     0.163 HD
HETATM    3  C           1     -20.186  -7.335  -5.364  0.00  0.00     0.249 C 
HETATM    4  N           1     -20.041  -8.124  -4.254  0.00  0.00    -0.345 N 
ENDROOT
BRANCH   3   5
HETATM    5  C           1     -21.194  -6.212  -5.364  0.00  0.00     0.278 C 
BRANCH   5   6
HETATM    6  C           1     -20.511  -4.915  -5.771  0.00  0.00     0.081 C 
BRANCH   6   7
HETATM    7  C           1     -20.928  -4.543  -7.159  0.00  0.00    -0.056 A 
HETATM    8  C           1     -22.269  -4.272  -7.435  0.00  0.00     0.010 A 
HETATM    9  C           1     -22.658  -3.926  -8.729  0.00  0.00     0.037 A 
HETATM   10  C           1     -21.708  -3.850  -9.747  0.00  0.00     0.065 A 
HETATM   11  C           1     -20.368  -4.121  -9.471  0.00  0.00     0.037 A 
HETATM   12  C           1     -19.978  -4.468  -8.178  0.00  0.00     0.010 A 
BRANCH  10  13
HETATM   13  O           1     -22.086  -3.514 -11.004  0.00  0.00    -0.361 OA
HETATM   14  H           1     -23.034  -3.302 -10.986  0.00  0.00     0.217 HD
ENDBRANCH  10  13
ENDBRANCH   6   7
ENDBRANCH   5   6
BRANCH   5  15
HETATM   15  N           1     -21.776  -6.062  -3.990  0.00  0.00    -0.066 N 
HETATM   16  H           1     -22.812  -6.202  -4.033  0.00  0.00     0.275 HD
HETATM   17  H           1     -21.355  -6.777  -3.354  0.00  0.00     0.275 HD
HETATM   18  H           1     -21.567  -5.107  -3.625  0.00  0.00     0.275 HD
ENDBRANCH   5  15
ENDBRANCH   3   5
BRANCH   4  19
HETATM   19  C           1     -19.071  -9.202  -4.253  0.00  0.00     0.185 C 
BRANCH  19  20
HETATM   20  C           1     -18.424  -9.303  -2.877  0.00  0.00     0.036 C 
BRANCH  20  21
HETATM   21  C           1     -17.198 -10.202  -2.957  0.00  0.00     0.004 C 
BRANCH  21  22
HETATM   22  C           1     -16.246  -9.670  -4.020  0.00  0.00     0.027 C 
BRANCH  22  23
HETATM   23  C           1     -15.526 -10.835  -4.688  0.00  0.00     0.229 C 
BRANCH  23  24
HETATM   24  N           1     -16.492 -11.962  -4.903  0.00  0.00    -0.079 N 
HETATM   25  H           1     -17.051 -11.783  -5.768  0.00  0.00     0.274 HD
HETATM   26  H           1     -15.964 -12.857  -5.009  0.00  0.00     0.274 HD
HETATM   27  H           1     -17.135 -12.030  -4.083  0.00  0.00     0.274 HD
ENDBRANCH  23  24
ENDBRANCH  22  23
ENDBRANCH  21  22
ENDBRANCH  20  21
ENDBRANCH  19  20
BRANCH  19  28
HETATM   28  C           1     -19.766 -10.501  -4.578  0.00  0.00     0.196 C 
HETATM   29  O           1     -20.719 -10.895  -3.871  0.00  0.00    -0.646 OA
HETATM   30  O           1     -19.387 -11.185  -5.554  0.00  0.00    -0.646 OA
ENDBRANCH  19  28
ENDBRANCH   4  19
TORSDOF 12
ENDMDL
