MODEL 1
REMARK VINA RESULT:      -6.7      0.000      0.000
REMARK  8 active torsions:
REMARK  status: ('A' for Active; 'I' for Inactive)
REMARK    1  A    between atoms: N_2  and  C_13 
REMARK       I    between atoms: N_4  and  C_15 
REMARK    2  A    between atoms: N_11  and  C_24 
REMARK       I    between atoms: N_11  and  C_12 
REMARK    3  A    between atoms: C_12  and  C_13 
REMARK    4  A    between atoms: C_13  and  C_14 
REMARK    5  A    between atoms: C_14  and  C_15 
REMARK    6  A    between atoms: C_20  and  C_24 
REMARK    7  A    between atoms: C_24  and  C_25 
REMARK    8  A    between atoms: C_25  and  C_26 
ROOT
HETATM    1  H           1     -22.905  -5.947 -10.994  0.00  0.00     0.163 HD
HETATM    2  N           1     -23.056  -4.951 -10.890  0.00  0.00    -0.344 N 
HETATM    3  C           1     -23.738  -4.473  -9.804  0.00  0.00     0.249 C 
HETATM    4  O           1     -24.937  -4.341  -9.853  0.00  0.00    -0.271 OA
ENDROOT
BRANCH   2   5
HETATM    5  C           1     -22.550  -4.034 -11.891  0.00  0.00     0.191 C 
BRANCH   5   6
HETATM    6  C           1     -21.193  -3.527 -11.469  0.00  0.00     0.197 C 
HETATM    7  O           1     -21.003  -2.300 -11.315  0.00  0.00    -0.646 OA
HETATM    8  O           1     -20.258  -4.333 -11.272  0.00  0.00    -0.646 OA
ENDBRANCH   5   6
BRANCH   5   9
HETATM    9  C           1     -23.509  -2.859 -12.034  0.00  0.00     0.094 C 
BRANCH   9  10
HETATM   10  C           1     -23.437  -2.320 -13.429  0.00  0.00     0.028 A 
HETATM   11  N           1     -24.101  -1.206 -13.869  0.00  0.00    -0.354 N 
HETATM   12  C           1     -23.770  -1.081 -15.133  0.00  0.00     0.180 A 
ATOM     13  HN          1     -24.721  -0.601 -13.329  1.00  0.00     0.166 HD
HETATM   14  N           1     -22.918  -2.074 -15.527  0.00  0.00    -0.360 N 
HETATM   15  H           1     -22.510  -2.197 -16.487  0.00  0.00     0.166 HD
HETATM   16  C           1     -22.695  -2.878 -14.444  0.00  0.00     0.114 A 
ENDBRANCH   9  10
ENDBRANCH   5   9
ENDBRANCH   2   5
BRANCH   3  17
HETATM   17  C           1     -22.989  -4.107  -8.545  0.00  0.00     0.283 C 
BRANCH  17  18
HETATM   18  N           1     -23.904  -4.238  -7.363  0.00  0.00    -0.066 N 
HETATM   19  H           1     -24.750  -4.788  -7.636  0.00  0.00     0.275 HD
HETATM   20  H           1     -23.404  -4.730  -6.589  0.00  0.00     0.275 HD
HETATM   21  H           1     -24.196  -3.287  -7.042  0.00  0.00     0.275 HD
ENDBRANCH  17  18
BRANCH  17  22
HETATM   22  C           1     -21.799  -5.040  -8.372  0.00  0.00     0.145 C 
BRANCH  22  23
HETATM   23  C           1     -20.713  -4.333  -7.599  0.00  0.00     0.217 C 
HETATM   24  O           1     -20.820  -4.185  -6.405  0.00  0.00    -0.274 OA
HETATM   25  N           1     -19.606  -3.859  -8.251  0.00  0.00    -0.370 N 
HETATM   26  H           1     -18.877  -3.384  -7.733  0.00  0.00     0.159 HD
HETATM   27  H           1     -19.516  -3.983  -9.251  0.00  0.00     0.159 HD
ENDBRANCH  22  23
ENDBRANCH  17  22
ENDBRANCH   3  17
TORSDOF 8
ENDMDL
MODEL 2
REMARK VINA RESULT:      -6.5      2.122      3.647
REMARK  8 active torsions:
REMARK  status: ('A' for Active; 'I' for Inactive)
REMARK    1  A    between atoms: N_2  and  C_13 
REMARK       I    between atoms: N_4  and  C_15 
REMARK    2  A    between atoms: N_11  and  C_24 
REMARK       I    between atoms: N_11  and  C_12 
REMARK    3  A    between atoms: C_12  and  C_13 
REMARK    4  A    between atoms: C_13  and  C_14 
REMARK    5  A    between atoms: C_14  and  C_15 
REMARK    6  A    between atoms: C_20  and  C_24 
REMARK    7  A    between atoms: C_24  and  C_25 
REMARK    8  A    between atoms: C_25  and  C_26 
ROOT
HETATM    1  H           1     -23.694  -4.443  -7.290  0.00  0.00     0.163 HD
HETATM    2  N           1     -22.939  -4.110  -7.875  0.00  0.00    -0.344 N 
HETATM    3  C           1     -21.663  -4.060  -7.380  0.00  0.00     0.249 C 
HETATM    4  O           1     -21.268  -3.063  -6.825  0.00  0.00    -0.271 OA
ENDROOT
BRANCH   2   5
HETATM    5  C           1     -23.207  -3.685  -9.234  0.00  0.00     0.191 C 
BRANCH   5   6
HETATM    6  C           1     -24.692  -3.741  -9.494  0.00  0.00     0.197 C 
HETATM    7  O           1     -25.363  -2.686  -9.515  0.00  0.00    -0.646 OA
HETATM    8  O           1     -25.252  -4.841  -9.689  0.00  0.00    -0.646 OA
ENDBRANCH   5   6
BRANCH   5   9
HETATM    9  C           1     -22.485  -4.609 -10.206  0.00  0.00     0.094 C 
BRANCH   9  10
HETATM   10  C           1     -22.685  -4.117 -11.606  0.00  0.00     0.028 A 
HETATM   11  N           1     -23.717  -4.493 -12.424  0.00  0.00    -0.354 N 
HETATM   12  C           1     -23.525  -3.842 -13.548  0.00  0.00     0.180 A 
ATOM     13  HN          1     -24.475  -5.142 -12.206  1.00  0.00     0.166 HD
HETATM   14  N           1     -22.405  -3.061 -13.487  0.00  0.00    -0.360 N 
HETATM   15  H           1     -22.036  -2.446 -14.253  0.00  0.00     0.166 HD
HETATM   16  C           1     -21.855  -3.227 -12.246  0.00  0.00     0.114 A 
ENDBRANCH   9  10
ENDBRANCH   5   9
ENDBRANCH   2   5
BRANCH   3  17
HETATM   17  C           1     -20.748  -5.251  -7.532  0.00  0.00     0.283 C 
BRANCH  17  18
HETATM   18  N           1     -19.514  -4.842  -8.280  0.00  0.00    -0.066 N 
HETATM   19  H           1     -19.358  -3.816  -8.161  0.00  0.00     0.275 HD
HETATM   20  H           1     -18.691  -5.366  -7.907  0.00  0.00     0.275 HD
HETATM   21  H           1     -19.636  -5.061  -9.296  0.00  0.00     0.275 HD
ENDBRANCH  17  18
BRANCH  17  22
HETATM   22  C           1     -20.358  -5.770  -6.155  0.00  0.00     0.145 C 
BRANCH  22  23
HETATM   23  C           1     -21.382  -6.775  -5.687  0.00  0.00     0.217 C 
HETATM   24  O           1     -21.298  -7.929  -6.034  0.00  0.00    -0.274 OA
HETATM   25  N           1     -22.406  -6.380  -4.868  0.00  0.00    -0.370 N 
HETATM   26  H           1     -23.093  -7.054  -4.554  0.00  0.00     0.159 HD
HETATM   27  H           1     -22.476  -5.413  -4.577  0.00  0.00     0.159 HD
ENDBRANCH  22  23
ENDBRANCH  17  22
ENDBRANCH   3  17
TORSDOF 8
ENDMDL
MODEL 3
REMARK VINA RESULT:      -6.4      1.822      6.268
REMARK  8 active torsions:
REMARK  status: ('A' for Active; 'I' for Inactive)
REMARK    1  A    between atoms: N_2  and  C_13 
REMARK       I    between atoms: N_4  and  C_15 
REMARK    2  A    between atoms: N_11  and  C_24 
REMARK       I    between atoms: N_11  and  C_12 
REMARK    3  A    between atoms: C_12  and  C_13 
REMARK    4  A    between atoms: C_13  and  C_14 
REMARK    5  A    between atoms: C_14  and  C_15 
REMARK    6  A    between atoms: C_20  and  C_24 
REMARK    7  A    between atoms: C_24  and  C_25 
REMARK    8  A    between atoms: C_25  and  C_26 
ROOT
HETATM    1  H           1     -23.178  -2.183  -9.567  0.00  0.00     0.163 HD
HETATM    2  N           1     -22.920  -3.133  -9.799  0.00  0.00    -0.344 N 
HETATM    3  C           1     -23.745  -3.893 -10.585  0.00  0.00     0.249 C 
HETATM    4  O           1     -24.605  -4.573 -10.079  0.00  0.00    -0.271 OA
ENDROOT
BRANCH   2   5
HETATM    5  C           1     -21.679  -3.690  -9.300  0.00  0.00     0.191 C 
BRANCH   5   6
HETATM    6  C           1     -20.693  -3.817 -10.435  0.00  0.00     0.197 C 
HETATM    7  O           1     -20.111  -4.905 -10.639  0.00  0.00    -0.646 OA
HETATM    8  O           1     -20.457  -2.835 -11.172  0.00  0.00    -0.646 OA
ENDBRANCH   5   6
BRANCH   5   9
HETATM    9  C           1     -21.944  -5.065  -8.701  0.00  0.00     0.094 C 
BRANCH   9  10
HETATM   10  C           1     -21.249  -5.176  -7.379  0.00  0.00     0.028 A 
HETATM   11  N           1     -20.811  -4.111  -6.637  0.00  0.00    -0.354 N 
HETATM   12  C           1     -20.266  -4.636  -5.564  0.00  0.00     0.180 A 
ATOM     13  HN          1     -20.890  -3.120  -6.869  1.00  0.00     0.166 HD
HETATM   14  N           1     -20.335  -6.001  -5.586  0.00  0.00    -0.360 N 
HETATM   15  H           1     -19.971  -6.652  -4.847  0.00  0.00     0.166 HD
HETATM   16  C           1     -20.963  -6.362  -6.745  0.00  0.00     0.114 A 
ENDBRANCH   9  10
ENDBRANCH   5   9
ENDBRANCH   2   5
BRANCH   3  17
HETATM   17  C           1     -23.577  -3.883 -12.085  0.00  0.00     0.283 C 
BRANCH  17  18
HETATM   18  N           1     -23.873  -5.249 -12.630  0.00  0.00    -0.066 N 
HETATM   19  H           1     -24.902  -5.427 -12.586  0.00  0.00     0.275 HD
HETATM   20  H           1     -23.553  -5.304 -13.623  0.00  0.00     0.275 HD
HETATM   21  H           1     -23.370  -5.967 -12.061  0.00  0.00     0.275 HD
ENDBRANCH  17  18
BRANCH  17  22
HETATM   22  C           1     -24.538  -2.873 -12.697  0.00  0.00     0.145 C 
BRANCH  22  23
HETATM   23  C           1     -23.963  -2.352 -13.991  0.00  0.00     0.217 C 
HETATM   24  O           1     -23.395  -3.105 -14.747  0.00  0.00    -0.274 OA
HETATM   25  N           1     -24.084  -1.025 -14.310  0.00  0.00    -0.370 N 
HETATM   26  H           1     -23.698  -0.675 -15.178  0.00  0.00     0.159 HD
HETATM   27  H           1     -24.560  -0.395 -13.677  0.00  0.00     0.159 HD
ENDBRANCH  22  23
ENDBRANCH  17  22
ENDBRANCH   3  17
TORSDOF 8
ENDMDL
MODEL 4
REMARK VINA RESULT:      -6.3      2.380      3.690
REMARK  8 active torsions:
REMARK  status: ('A' for Active; 'I' for Inactive)
REMARK    1  A    between atoms: N_2  and  C_13 
REMARK       I    between atoms: N_4  and  C_15 
REMARK    2  A    between atoms: N_11  and  C_24 
REMARK       I    between atoms: N_11  and  C_12 
REMARK    3  A    between atoms: C_12  and  C_13 
REMARK    4  A    between atoms: C_13  and  C_14 
REMARK    5  A    between atoms: C_14  and  C_15 
REMARK    6  A    between atoms: C_20  and  C_24 
REMARK    7  A    between atoms: C_24  and  C_25 
REMARK    8  A    between atoms: C_25  and  C_26 
ROOT
HETATM    1  H           1     -21.368  -3.080  -7.619  0.00  0.00     0.163 HD
HETATM    2  N           1     -21.075  -3.931  -8.080  0.00  0.00    -0.344 N 
HETATM    3  C           1     -20.198  -4.779  -7.458  0.00  0.00     0.249 C 
HETATM    4  O           1     -19.008  -4.643  -7.618  0.00  0.00    -0.271 OA
ENDROOT
BRANCH   2   5
HETATM    5  C           1     -21.583  -4.253  -9.398  0.00  0.00     0.191 C 
BRANCH   5   6
HETATM    6  C           1     -20.530  -3.944 -10.433  0.00  0.00     0.197 C 
HETATM    7  O           1     -19.822  -4.863 -10.899  0.00  0.00    -0.646 OA
HETATM    8  O           1     -20.364  -2.768 -10.825  0.00  0.00    -0.646 OA
ENDBRANCH   5   6
BRANCH   5   9
HETATM    9  C           1     -22.830  -3.424  -9.678  0.00  0.00     0.094 C 
BRANCH   9  10
HETATM   10  C           1     -23.207  -3.559 -11.121  0.00  0.00     0.028 A 
HETATM   11  N           1     -23.252  -2.521 -12.014  0.00  0.00    -0.354 N 
HETATM   12  C           1     -23.622  -3.059 -13.153  0.00  0.00     0.180 A 
ATOM     13  HN          1     -23.042  -1.539 -11.832  1.00  0.00     0.166 HD
HETATM   14  N           1     -23.819  -4.405 -13.029  0.00  0.00    -0.360 N 
HETATM   15  H           1     -24.119  -5.061 -13.792  0.00  0.00     0.166 HD
HETATM   16  C           1     -23.557  -4.741 -11.730  0.00  0.00     0.114 A 
ENDBRANCH   9  10
ENDBRANCH   5   9
ENDBRANCH   2   5
BRANCH   3  17
HETATM   17  C           1     -20.718  -5.886  -6.573  0.00  0.00     0.283 C 
BRANCH  17  18
HETATM   18  N           1     -19.764  -7.043  -6.608  0.00  0.00    -0.066 N 
HETATM   19  H           1     -18.988  -6.835  -7.276  0.00  0.00     0.275 HD
HETATM   20  H           1     -19.370  -7.198  -5.653  0.00  0.00     0.275 HD
HETATM   21  H           1     -20.272  -7.903  -6.920  0.00  0.00     0.275 HD
ENDBRANCH  17  18
BRANCH  17  22
HETATM   22  C           1     -20.846  -5.376  -5.144  0.00  0.00     0.145 C 
BRANCH  22  23
HETATM   23  C           1     -21.674  -6.345  -4.336  0.00  0.00     0.217 C 
HETATM   24  O           1     -22.000  -7.406  -4.815  0.00  0.00    -0.274 OA
HETATM   25  N           1     -22.055  -6.023  -3.061  0.00  0.00    -0.370 N 
HETATM   26  H           1     -22.611  -6.673  -2.519  0.00  0.00     0.159 HD
HETATM   27  H           1     -21.782  -5.135  -2.660  0.00  0.00     0.159 HD
ENDBRANCH  22  23
ENDBRANCH  17  22
ENDBRANCH   3  17
TORSDOF 8
ENDMDL
MODEL 5
REMARK VINA RESULT:      -6.0      3.299      5.074
REMARK  8 active torsions:
REMARK  status: ('A' for Active; 'I' for Inactive)
REMARK    1  A    between atoms: N_2  and  C_13 
REMARK       I    between atoms: N_4  and  C_15 
REMARK    2  A    between atoms: N_11  and  C_24 
REMARK       I    between atoms: N_11  and  C_12 
REMARK    3  A    between atoms: C_12  and  C_13 
REMARK    4  A    between atoms: C_13  and  C_14 
REMARK    5  A    between atoms: C_14  and  C_15 
REMARK    6  A    between atoms: C_20  and  C_24 
REMARK    7  A    between atoms: C_24  and  C_25 
REMARK    8  A    between atoms: C_25  and  C_26 
ROOT
HETATM    1  H           1     -22.905  -4.425  -5.961  0.00  0.00     0.163 HD
HETATM    2  N           1     -22.094  -4.967  -6.232  0.00  0.00    -0.344 N 
HETATM    3  C           1     -21.340  -5.594  -5.276  0.00  0.00     0.249 C 
HETATM    4  O           1     -20.408  -5.018  -4.767  0.00  0.00    -0.271 OA
ENDROOT
BRANCH   2   5
HETATM    5  C           1     -21.731  -5.078  -7.630  0.00  0.00     0.191 C 
BRANCH   5   6
HETATM    6  C           1     -20.230  -5.152  -7.756  0.00  0.00     0.197 C 
HETATM    7  O           1     -19.557  -4.101  -7.847  0.00  0.00    -0.646 OA
HETATM    8  O           1     -19.656  -6.263  -7.768  0.00  0.00    -0.646 OA
ENDBRANCH   5   6
BRANCH   5   9
HETATM    9  C           1     -22.246  -3.860  -8.387  0.00  0.00     0.094 C 
BRANCH   9  10
HETATM   10  C           1     -22.535  -4.238  -9.806  0.00  0.00     0.028 A 
HETATM   11  N           1     -23.699  -4.820 -10.235  0.00  0.00    -0.354 N 
HETATM   12  C           1     -23.549  -4.984 -11.529  0.00  0.00     0.180 A 
ATOM     13  HN          1     -24.510  -5.072  -9.670  1.00  0.00     0.166 HD
HETATM   14  N           1     -22.330  -4.532 -11.952  0.00  0.00    -0.360 N 
HETATM   15  H           1     -21.969  -4.552 -12.937  0.00  0.00     0.166 HD
HETATM   16  C           1     -21.668  -4.051 -10.857  0.00  0.00     0.114 A 
ENDBRANCH   9  10
ENDBRANCH   5   9
ENDBRANCH   2   5
BRANCH   3  17
HETATM   17  C           1     -21.673  -7.006  -4.859  0.00  0.00     0.283 C 
BRANCH  17  18
HETATM   18  N           1     -21.291  -7.954  -5.958  0.00  0.00    -0.066 N 
HETATM   19  H           1     -22.100  -8.580  -6.175  0.00  0.00     0.275 HD
HETATM   20  H           1     -21.032  -7.411  -6.812  0.00  0.00     0.275 HD
HETATM   21  H           1     -20.476  -8.532  -5.650  0.00  0.00     0.275 HD
ENDBRANCH  17  18
BRANCH  17  22
HETATM   22  C           1     -20.901  -7.357  -3.594  0.00  0.00     0.145 C 
BRANCH  22  23
HETATM   23  C           1     -21.772  -7.105  -2.388  0.00  0.00     0.217 C 
HETATM   24  O           1     -21.992  -7.999  -1.605  0.00  0.00    -0.274 OA
HETATM   25  N           1     -22.311  -5.864  -2.180  0.00  0.00    -0.370 N 
HETATM   26  H           1     -22.895  -5.695  -1.370  0.00  0.00     0.159 HD
HETATM   27  H           1     -22.126  -5.115  -2.835  0.00  0.00     0.159 HD
ENDBRANCH  22  23
ENDBRANCH  17  22
ENDBRANCH   3  17
TORSDOF 8
ENDMDL
MODEL 6
REMARK VINA RESULT:      -6.0      4.672      8.904
REMARK  8 active torsions:
REMARK  status: ('A' for Active; 'I' for Inactive)
REMARK    1  A    between atoms: N_2  and  C_13 
REMARK       I    between atoms: N_4  and  C_15 
REMARK    2  A    between atoms: N_11  and  C_24 
REMARK       I    between atoms: N_11  and  C_12 
REMARK    3  A    between atoms: C_12  and  C_13 
REMARK    4  A    between atoms: C_13  and  C_14 
REMARK    5  A    between atoms: C_14  and  C_15 
REMARK    6  A    between atoms: C_20  and  C_24 
REMARK    7  A    between atoms: C_24  and  C_25 
REMARK    8  A    between atoms: C_25  and  C_26 
ROOT
HETATM    1  H           1     -21.828  -7.988  -6.433  0.00  0.00     0.163 HD
HETATM    2  N           1     -21.027  -7.531  -6.019  0.00  0.00    -0.344 N 
HETATM    3  C           1     -20.505  -6.406  -6.600  0.00  0.00     0.249 C 
HETATM    4  O           1     -19.636  -6.504  -7.434  0.00  0.00    -0.271 OA
ENDROOT
BRANCH   2   5
HETATM    5  C           1     -20.431  -8.067  -4.812  0.00  0.00     0.191 C 
BRANCH   5   6
HETATM    6  C           1     -19.450  -9.154  -5.174  0.00  0.00     0.197 C 
HETATM    7  O           1     -18.287  -9.126  -4.713  0.00  0.00    -0.646 OA
HETATM    8  O           1     -19.797 -10.082  -5.936  0.00  0.00    -0.646 OA
ENDBRANCH   5   6
BRANCH   5   9
HETATM    9  C           1     -21.523  -8.645  -3.920  0.00  0.00     0.094 C 
BRANCH   9  10
HETATM   10  C           1     -21.825  -7.684  -2.812  0.00  0.00     0.028 A 
HETATM   11  N           1     -21.962  -8.034  -1.495  0.00  0.00    -0.354 N 
HETATM   12  C           1     -22.219  -6.912  -0.863  0.00  0.00     0.180 A 
ATOM     13  HN          1     -21.882  -8.967  -1.090  1.00  0.00     0.166 HD
HETATM   14  N           1     -22.255  -5.850  -1.724  0.00  0.00    -0.360 N 
HETATM   15  H           1     -22.441  -4.850  -1.467  0.00  0.00     0.166 HD
HETATM   16  C           1     -22.003  -6.331  -2.979  0.00  0.00     0.114 A 
ENDBRANCH   9  10
ENDBRANCH   5   9
ENDBRANCH   2   5
BRANCH   3  17
HETATM   17  C           1     -21.013  -5.044  -6.196  0.00  0.00     0.283 C 
BRANCH  17  18
HETATM   18  N           1     -20.047  -4.413  -5.237  0.00  0.00    -0.066 N 
HETATM   19  H           1     -20.276  -4.715  -4.263  0.00  0.00     0.275 HD
HETATM   20  H           1     -19.075  -4.713  -5.475  0.00  0.00     0.275 HD
HETATM   21  H           1     -20.119  -3.372  -5.306  0.00  0.00     0.275 HD
ENDBRANCH  17  18
BRANCH  17  22
HETATM   22  C           1     -21.148  -4.165  -7.433  0.00  0.00     0.145 C 
BRANCH  22  23
HETATM   23  C           1     -22.468  -4.444  -8.107  0.00  0.00     0.217 C 
HETATM   24  O           1     -22.491  -4.864  -9.240  0.00  0.00    -0.274 OA
HETATM   25  N           1     -23.641  -4.222  -7.436  0.00  0.00    -0.370 N 
HETATM   26  H           1     -24.527  -4.409  -7.889  0.00  0.00     0.159 HD
HETATM   27  H           1     -23.623  -3.871  -6.487  0.00  0.00     0.159 HD
ENDBRANCH  22  23
ENDBRANCH  17  22
ENDBRANCH   3  17
TORSDOF 8
ENDMDL
MODEL 7
REMARK VINA RESULT:      -6.0      8.538     10.488
REMARK  8 active torsions:
REMARK  status: ('A' for Active; 'I' for Inactive)
REMARK    1  A    between atoms: N_2  and  C_13 
REMARK       I    between atoms: N_4  and  C_15 
REMARK    2  A    between atoms: N_11  and  C_24 
REMARK       I    between atoms: N_11  and  C_12 
REMARK    3  A    between atoms: C_12  and  C_13 
REMARK    4  A    between atoms: C_13  and  C_14 
REMARK    5  A    between atoms: C_14  and  C_15 
REMARK    6  A    between atoms: C_20  and  C_24 
REMARK    7  A    between atoms: C_24  and  C_25 
REMARK    8  A    between atoms: C_25  and  C_26 
ROOT
HETATM    1  H           1     -29.433  -8.372 -16.111  0.00  0.00     0.163 HD
HETATM    2  N           1     -29.428  -7.458 -16.545  0.00  0.00    -0.344 N 
HETATM    3  C           1     -28.314  -6.667 -16.459  0.00  0.00     0.249 C 
HETATM    4  O           1     -28.190  -5.895 -15.538  0.00  0.00    -0.271 OA
ENDROOT
BRANCH   2   5
HETATM    5  C           1     -30.599  -6.988 -17.256  0.00  0.00     0.191 C 
BRANCH   5   6
HETATM    6  C           1     -30.790  -7.809 -18.507  0.00  0.00     0.197 C 
HETATM    7  O           1     -31.893  -7.801 -19.098  0.00  0.00    -0.646 OA
HETATM    8  O           1     -29.848  -8.497 -18.955  0.00  0.00    -0.646 OA
ENDBRANCH   5   6
BRANCH   5   9
HETATM    9  C           1     -30.410  -5.524 -17.633  0.00  0.00     0.094 C 
BRANCH   9  10
HETATM   10  C           1     -31.655  -4.759 -17.309  0.00  0.00     0.028 A 
HETATM   11  N           1     -32.713  -5.259 -16.596  0.00  0.00    -0.354 N 
HETATM   12  C           1     -33.586  -4.280 -16.537  0.00  0.00     0.180 A 
ATOM     13  HN          1     -32.804  -6.194 -16.196  1.00  0.00     0.166 HD
HETATM   14  N           1     -33.132  -3.166 -17.186  0.00  0.00    -0.360 N 
HETATM   15  H           1     -33.642  -2.254 -17.283  0.00  0.00     0.166 HD
HETATM   16  C           1     -31.894  -3.459 -17.687  0.00  0.00     0.114 A 
ENDBRANCH   9  10
ENDBRANCH   5   9
ENDBRANCH   2   5
BRANCH   3  17
HETATM   17  C           1     -27.241  -6.757 -17.517  0.00  0.00     0.283 C 
BRANCH  17  18
HETATM   18  N           1     -27.711  -6.070 -18.765  0.00  0.00    -0.066 N 
HETATM   19  H           1     -28.744  -6.194 -18.863  0.00  0.00     0.275 HD
HETATM   20  H           1     -27.486  -5.052 -18.708  0.00  0.00     0.275 HD
HETATM   21  H           1     -27.230  -6.489 -19.594  0.00  0.00     0.275 HD
ENDBRANCH  17  18
BRANCH  17  22
HETATM   22  C           1     -25.973  -6.082 -17.013  0.00  0.00     0.145 C 
BRANCH  22  23
HETATM   23  C           1     -25.080  -7.109 -16.361  0.00  0.00     0.217 C 
HETATM   24  O           1     -25.167  -7.318 -15.175  0.00  0.00    -0.274 OA
HETATM   25  N           1     -24.172  -7.804 -17.114  0.00  0.00    -0.370 N 
HETATM   26  H           1     -23.573  -8.493 -16.677  0.00  0.00     0.159 HD
HETATM   27  H           1     -24.100  -7.629 -18.109  0.00  0.00     0.159 HD
ENDBRANCH  22  23
ENDBRANCH  17  22
ENDBRANCH   3  17
TORSDOF 8
ENDMDL
MODEL 8
REMARK VINA RESULT:      -5.9      5.198      9.314
REMARK  8 active torsions:
REMARK  status: ('A' for Active; 'I' for Inactive)
REMARK    1  A    between atoms: N_2  and  C_13 
REMARK       I    between atoms: N_4  and  C_15 
REMARK    2  A    between atoms: N_11  and  C_24 
REMARK       I    between atoms: N_11  and  C_12 
REMARK    3  A    between atoms: C_12  and  C_13 
REMARK    4  A    between atoms: C_13  and  C_14 
REMARK    5  A    between atoms: C_14  and  C_15 
REMARK    6  A    between atoms: C_20  and  C_24 
REMARK    7  A    between atoms: C_24  and  C_25 
REMARK    8  A    between atoms: C_25  and  C_26 
ROOT
HETATM    1  H           1     -21.264  -5.591  -2.685  0.00  0.00     0.163 HD
HETATM    2  N           1     -21.426  -6.368  -3.312  0.00  0.00    -0.344 N 
HETATM    3  C           1     -21.620  -6.139  -4.649  0.00  0.00     0.249 C 
HETATM    4  O           1     -22.735  -5.957  -5.075  0.00  0.00    -0.271 OA
ENDROOT
BRANCH   2   5
HETATM    5  C           1     -21.453  -7.723  -2.797  0.00  0.00     0.191 C 
BRANCH   5   6
HETATM    6  C           1     -22.090  -7.728  -1.430  0.00  0.00     0.197 C 
HETATM    7  O           1     -22.634  -6.691  -0.990  0.00  0.00    -0.646 OA
HETATM    8  O           1     -22.077  -8.768  -0.737  0.00  0.00    -0.646 OA
ENDBRANCH   5   6
BRANCH   5   9
HETATM    9  C           1     -20.029  -8.255  -2.696  0.00  0.00     0.094 C 
BRANCH   9  10
HETATM   10  C           1     -19.717  -9.080  -3.906  0.00  0.00     0.028 A 
HETATM   11  N           1     -18.458  -9.275  -4.412  0.00  0.00    -0.354 N 
HETATM   12  C           1     -18.622 -10.047  -5.461  0.00  0.00     0.180 A 
ATOM     13  HN          1     -17.581  -8.899  -4.051  1.00  0.00     0.166 HD
HETATM   14  N           1     -19.939 -10.358  -5.653  0.00  0.00    -0.360 N 
HETATM   15  H           1     -20.329 -10.958  -6.421  0.00  0.00     0.166 HD
HETATM   16  C           1     -20.654  -9.744  -4.663  0.00  0.00     0.114 A 
ENDBRANCH   9  10
ENDBRANCH   5   9
ENDBRANCH   2   5
BRANCH   3  17
HETATM   17  C           1     -20.440  -6.118  -5.589  0.00  0.00     0.283 C 
BRANCH  17  18
HETATM   18  N           1     -20.821  -6.770  -6.885  0.00  0.00    -0.066 N 
HETATM   19  H           1     -20.327  -6.295  -7.674  0.00  0.00     0.275 HD
HETATM   20  H           1     -20.549  -7.779  -6.861  0.00  0.00     0.275 HD
HETATM   21  H           1     -21.855  -6.691  -7.023  0.00  0.00     0.275 HD
ENDBRANCH  17  18
BRANCH  17  22
HETATM   22  C           1     -20.024  -4.677  -5.850  0.00  0.00     0.145 C 
BRANCH  22  23
HETATM   23  C           1     -20.602  -4.215  -7.165  0.00  0.00     0.217 C 
HETATM   24  O           1     -19.991  -4.400  -8.191  0.00  0.00    -0.274 OA
HETATM   25  N           1     -21.818  -3.587  -7.196  0.00  0.00    -0.370 N 
HETATM   26  H           1     -22.205  -3.277  -8.078  0.00  0.00     0.159 HD
HETATM   27  H           1     -22.329  -3.432  -6.337  0.00  0.00     0.159 HD
ENDBRANCH  22  23
ENDBRANCH  17  22
ENDBRANCH   3  17
TORSDOF 8
ENDMDL
MODEL 9
REMARK VINA RESULT:      -5.7      6.354      9.981
REMARK  8 active torsions:
REMARK  status: ('A' for Active; 'I' for Inactive)
REMARK    1  A    between atoms: N_2  and  C_13 
REMARK       I    between atoms: N_4  and  C_15 
REMARK    2  A    between atoms: N_11  and  C_24 
REMARK       I    between atoms: N_11  and  C_12 
REMARK    3  A    between atoms: C_12  and  C_13 
REMARK    4  A    between atoms: C_13  and  C_14 
REMARK    5  A    between atoms: C_14  and  C_15 
REMARK    6  A    between atoms: C_20  and  C_24 
REMARK    7  A    between atoms: C_24  and  C_25 
REMARK    8  A    between atoms: C_25  and  C_26 
ROOT
HETATM    1  H           1     -20.016  -7.109  -1.929  0.00  0.00     0.163 HD
HETATM    2  N           1     -20.943  -7.407  -2.206  0.00  0.00    -0.344 N 
HETATM    3  C           1     -21.748  -6.560  -2.919  0.00  0.00     0.249 C 
HETATM    4  O           1     -22.494  -5.806  -2.341  0.00  0.00    -0.271 OA
ENDROOT
BRANCH   2   5
HETATM    5  C           1     -21.416  -8.729  -1.848  0.00  0.00     0.191 C 
BRANCH   5   6
HETATM    6  C           1     -21.786  -8.751  -0.385  0.00  0.00     0.197 C 
HETATM    7  O           1     -22.854  -8.225  -0.002  0.00  0.00    -0.646 OA
HETATM    8  O           1     -21.025  -9.295   0.444  0.00  0.00    -0.646 OA
ENDBRANCH   5   6
BRANCH   5   9
HETATM    9  C           1     -20.317  -9.750  -2.110  0.00  0.00     0.094 C 
BRANCH   9  10
HETATM   10  C           1     -19.884  -9.663  -3.540  0.00  0.00     0.028 A 
HETATM   11  N           1     -18.662  -9.207  -3.958  0.00  0.00    -0.354 N 
HETATM   12  C           1     -18.688  -9.294  -5.268  0.00  0.00     0.180 A 
ATOM     13  HN          1     -17.894  -8.871  -3.375  1.00  0.00     0.166 HD
HETATM   14  N           1     -19.882  -9.788  -5.712  0.00  0.00    -0.360 N 
HETATM   15  H           1     -20.152  -9.951  -6.714  0.00  0.00     0.166 HD
HETATM   16  C           1     -20.661 -10.030  -4.615  0.00  0.00     0.114 A 
ENDBRANCH   9  10
ENDBRANCH   5   9
ENDBRANCH   2   5
BRANCH   3  17
HETATM   17  C           1     -21.707  -6.572  -4.428  0.00  0.00     0.283 C 
BRANCH  17  18
HETATM   18  N           1     -23.047  -6.167  -4.968  0.00  0.00    -0.066 N 
HETATM   19  H           1     -23.233  -5.168  -4.724  0.00  0.00     0.275 HD
HETATM   20  H           1     -23.051  -6.278  -6.007  0.00  0.00     0.275 HD
HETATM   21  H           1     -23.788  -6.773  -4.548  0.00  0.00     0.275 HD
ENDBRANCH  17  18
BRANCH  17  22
HETATM   22  C           1     -20.646  -5.593  -4.914  0.00  0.00     0.145 C 
BRANCH  22  23
HETATM   23  C           1     -20.290  -5.908  -6.346  0.00  0.00     0.217 C 
HETATM   24  O           1     -20.729  -6.902  -6.873  0.00  0.00    -0.274 OA
HETATM   25  N           1     -19.468  -5.067  -7.048  0.00  0.00    -0.370 N 
HETATM   26  H           1     -19.228  -5.278  -8.009  0.00  0.00     0.159 HD
HETATM   27  H           1     -19.100  -4.234  -6.607  0.00  0.00     0.159 HD
ENDBRANCH  22  23
ENDBRANCH  17  22
ENDBRANCH   3  17
TORSDOF 8
ENDMDL
