MODEL 1
REMARK VINA RESULT:      -7.6      0.000      0.000
REMARK  12 active torsions:
REMARK  status: ('A' for Active; 'I' for Inactive)
REMARK    1  A    between atoms: Se_2  and  C_3 
REMARK    2  A    between atoms: C_3  and  C_4 
REMARK    3  A    between atoms: C_4  and  C_5 
REMARK    4  A    between atoms: C_5  and  C_6 
REMARK    5  A    between atoms: C_5  and  N_9 
REMARK       I    between atoms: N_9  and  C_10 
REMARK    6  A    between atoms: C_10  and  C_11 
REMARK    7  A    between atoms: C_11  and  C_12 
REMARK    8  A    between atoms: C_11  and  N_24 
REMARK    9  A    between atoms: C_12  and  C_13 
REMARK   10  A    between atoms: C_16  and  O_17 
REMARK   11  A    between atoms: O_17  and  P_18 
REMARK   12  A    between atoms: P_18  and  O_19 
ROOT
HETATM    1  C           1     -20.977  -4.904  -6.383  0.00  0.00     0.278 C 
ENDROOT
BRANCH   1   2
HETATM    2  C           1     -21.669  -5.860  -5.443  0.00  0.00     0.249 C 
HETATM    3  N           1     -20.929  -6.645  -4.599  0.00  0.00    -0.345 N 
HETATM    4  H           1     -19.919  -6.584  -4.606  0.00  0.00     0.163 HD
HETATM    5  O           1     -22.874  -5.934  -5.436  0.00  0.00    -0.271 OA
BRANCH   3   6
HETATM    6  C           1     -21.594  -7.564  -3.695  0.00  0.00     0.185 C 
BRANCH   6   7
HETATM    7  C           1     -20.825  -8.878  -3.649  0.00  0.00     0.036 C 
BRANCH   7   8
HETATM    8  C           1     -21.783 -10.036  -3.894  0.00  0.00     0.003 C 
BRANCH   8   9
HETATM    9 Se           1     -22.404 -10.739  -2.185  0.00  0.00     0.000 Se
HETATM   10  C           1     -20.616 -11.069  -1.484  0.00  0.00     0.000 C 
ENDBRANCH   8   9
ENDBRANCH   7   8
ENDBRANCH   6   7
BRANCH   6  11
HETATM   11  C           1     -21.642  -6.962  -2.313  0.00  0.00     0.196 C 
HETATM   12  O           1     -22.366  -5.966  -2.090  0.00  0.00    -0.646 OA
HETATM   13  O           1     -20.960  -7.458  -1.390  0.00  0.00    -0.646 OA
ENDBRANCH   6  11
ENDBRANCH   3   6
ENDBRANCH   1   2
BRANCH   1  14
HETATM   14  C           1     -20.723  -5.596  -7.715  0.00  0.00     0.081 C 
BRANCH  14  15
HETATM   15  C           1     -21.302  -4.773  -8.824  0.00  0.00    -0.056 A 
HETATM   16  C           1     -20.511  -4.422  -9.918  0.00  0.00     0.010 A 
HETATM   17  C           1     -21.051  -3.655 -10.951  0.00  0.00     0.038 A 
HETATM   18  C           1     -22.381  -3.239 -10.890  0.00  0.00     0.081 A 
HETATM   19  C           1     -23.171  -3.590  -9.795  0.00  0.00     0.038 A 
HETATM   20  C           1     -22.632  -4.357  -8.762  0.00  0.00     0.010 A 
BRANCH  18  21
HETATM   21  O           1     -22.904  -2.495 -11.893  0.00  0.00    -0.247 OA
BRANCH  21  22
HETATM   22  P           1     -23.914  -3.215 -12.927  0.00  0.00     0.411 P 
HETATM   23  O           1     -25.310  -2.886 -12.564  0.00  0.00    -0.624 OA
HETATM   24  O           1     -23.633  -2.740 -14.301  0.00  0.00    -0.624 OA
BRANCH  22  25
HETATM   25  O           1     -23.702  -4.815 -12.858  0.00  0.00    -0.300 OA
HETATM   26  H           1     -23.047  -4.946 -12.194  0.00  0.00     0.223 HD
ENDBRANCH  22  25
ENDBRANCH  21  22
ENDBRANCH  18  21
ENDBRANCH  14  15
ENDBRANCH   1  14
BRANCH   1  27
HETATM   27  N           1     -19.669  -4.474  -5.786  0.00  0.00    -0.066 N 
HETATM   28  H           1     -19.452  -5.072  -4.957  0.00  0.00     0.275 HD
HETATM   29  H           1     -18.911  -4.575  -6.496  0.00  0.00     0.275 HD
HETATM   30  H           1     -19.737  -3.475  -5.485  0.00  0.00     0.275 HD
ENDBRANCH   1  27
TORSDOF 12
ENDMDL
MODEL 2
REMARK VINA RESULT:      -7.4      1.847      2.416
REMARK  12 active torsions:
REMARK  status: ('A' for Active; 'I' for Inactive)
REMARK    1  A    between atoms: Se_2  and  C_3 
REMARK    2  A    between atoms: C_3  and  C_4 
REMARK    3  A    between atoms: C_4  and  C_5 
REMARK    4  A    between atoms: C_5  and  C_6 
REMARK    5  A    between atoms: C_5  and  N_9 
REMARK       I    between atoms: N_9  and  C_10 
REMARK    6  A    between atoms: C_10  and  C_11 
REMARK    7  A    between atoms: C_11  and  C_12 
REMARK    8  A    between atoms: C_11  and  N_24 
REMARK    9  A    between atoms: C_12  and  C_13 
REMARK   10  A    between atoms: C_16  and  O_17 
REMARK   11  A    between atoms: O_17  and  P_18 
REMARK   12  A    between atoms: P_18  and  O_19 
ROOT
HETATM    1  C           1     -20.757  -5.510  -6.847  0.00  0.00     0.278 C 
ENDROOT
BRANCH   1   2
HETATM    2  C           1     -20.266  -6.749  -6.140  0.00  0.00     0.249 C 
HETATM    3  N           1     -20.908  -7.195  -5.015  0.00  0.00    -0.345 N 
HETATM    4  H           1     -21.712  -6.694  -4.660  0.00  0.00     0.163 HD
HETATM    5  O           1     -19.306  -7.346  -6.564  0.00  0.00    -0.271 OA
BRANCH   3   6
HETATM    6  C           1     -20.436  -8.385  -4.336  0.00  0.00     0.185 C 
BRANCH   6   7
HETATM    7  C           1     -20.585  -8.205  -2.830  0.00  0.00     0.036 C 
BRANCH   7   8
HETATM    8  C           1     -21.308  -6.895  -2.545  0.00  0.00     0.003 C 
BRANCH   8   9
HETATM    9 Se           1     -22.284  -7.044  -0.864  0.00  0.00     0.000 Se
HETATM   10  C           1     -22.091  -8.979  -0.734  0.00  0.00     0.000 C 
ENDBRANCH   8   9
ENDBRANCH   7   8
ENDBRANCH   6   7
BRANCH   6  11
HETATM   11  C           1     -21.253  -9.574  -4.780  0.00  0.00     0.196 C 
HETATM   12  O           1     -21.039 -10.096  -5.896  0.00  0.00    -0.646 OA
HETATM   13  O           1     -22.141 -10.037  -4.034  0.00  0.00    -0.646 OA
ENDBRANCH   6  11
ENDBRANCH   3   6
ENDBRANCH   1   2
BRANCH   1  14
HETATM   14  C           1     -19.960  -5.307  -8.129  0.00  0.00     0.081 C 
BRANCH  14  15
HETATM   15  C           1     -20.797  -4.565  -9.125  0.00  0.00    -0.056 A 
HETATM   16  C           1     -22.140  -4.307  -8.853  0.00  0.00     0.010 A 
HETATM   17  C           1     -22.918  -3.616  -9.782  0.00  0.00     0.038 A 
HETATM   18  C           1     -22.354  -3.184 -10.982  0.00  0.00     0.081 A 
HETATM   19  C           1     -21.011  -3.443 -11.253  0.00  0.00     0.038 A 
HETATM   20  C           1     -20.232  -4.133 -10.325  0.00  0.00     0.010 A 
BRANCH  18  21
HETATM   21  O           1     -23.111  -2.513 -11.884  0.00  0.00    -0.247 OA
BRANCH  21  22
HETATM   22  P           1     -23.948  -3.375 -12.962  0.00  0.00     0.411 P 
HETATM   23  O           1     -25.391  -3.081 -12.816  0.00  0.00    -0.624 OA
HETATM   24  O           1     -23.505  -3.019 -14.329  0.00  0.00    -0.624 OA
BRANCH  22  25
HETATM   25  O           1     -23.693  -4.950 -12.707  0.00  0.00    -0.300 OA
HETATM   26  H           1     -23.335  -5.273 -13.518  0.00  0.00     0.223 HD
ENDBRANCH  22  25
ENDBRANCH  21  22
ENDBRANCH  18  21
ENDBRANCH  14  15
ENDBRANCH   1  14
BRANCH   1  27
HETATM   27  N           1     -20.577  -4.319  -5.952  0.00  0.00    -0.066 N 
HETATM   28  H           1     -19.729  -3.785  -6.250  0.00  0.00     0.275 HD
HETATM   29  H           1     -21.417  -3.703  -6.018  0.00  0.00     0.275 HD
HETATM   30  H           1     -20.456  -4.641  -4.966  0.00  0.00     0.275 HD
ENDBRANCH   1  27
TORSDOF 12
ENDMDL
MODEL 3
REMARK VINA RESULT:      -7.0      1.996      2.327
REMARK  12 active torsions:
REMARK  status: ('A' for Active; 'I' for Inactive)
REMARK    1  A    between atoms: Se_2  and  C_3 
REMARK    2  A    between atoms: C_3  and  C_4 
REMARK    3  A    between atoms: C_4  and  C_5 
REMARK    4  A    between atoms: C_5  and  C_6 
REMARK    5  A    between atoms: C_5  and  N_9 
REMARK       I    between atoms: N_9  and  C_10 
REMARK    6  A    between atoms: C_10  and  C_11 
REMARK    7  A    between atoms: C_11  and  C_12 
REMARK    8  A    between atoms: C_11  and  N_24 
REMARK    9  A    between atoms: C_12  and  C_13 
REMARK   10  A    between atoms: C_16  and  O_17 
REMARK   11  A    between atoms: O_17  and  P_18 
REMARK   12  A    between atoms: P_18  and  O_19 
ROOT
HETATM    1  C           1     -20.907  -5.526  -6.325  0.00  0.00     0.278 C 
ENDROOT
BRANCH   1   2
HETATM    2  C           1     -20.665  -6.705  -5.416  0.00  0.00     0.249 C 
HETATM    3  N           1     -20.138  -7.864  -5.923  0.00  0.00    -0.345 N 
HETATM    4  H           1     -19.911  -7.928  -6.907  0.00  0.00     0.163 HD
HETATM    5  O           1     -20.937  -6.629  -4.242  0.00  0.00    -0.271 OA
BRANCH   3   6
HETATM    6  C           1     -19.905  -8.997  -5.048  0.00  0.00     0.185 C 
BRANCH   6   7
HETATM    7  C           1     -20.998 -10.037  -5.262  0.00  0.00     0.036 C 
BRANCH   7   8
HETATM    8  C           1     -21.921 -10.059  -4.051  0.00  0.00     0.003 C 
BRANCH   8   9
HETATM    9 Se           1     -20.918 -10.629  -2.479  0.00  0.00     0.000 Se
HETATM   10  C           1     -22.481 -10.745  -1.321  0.00  0.00     0.000 C 
ENDBRANCH   8   9
ENDBRANCH   7   8
ENDBRANCH   6   7
BRANCH   6  11
HETATM   11  C           1     -18.563  -9.608  -5.366  0.00  0.00     0.196 C 
HETATM   12  O           1     -18.409 -10.265  -6.418  0.00  0.00    -0.646 OA
HETATM   13  O           1     -17.605  -9.456  -4.578  0.00  0.00    -0.646 OA
ENDBRANCH   6  11
ENDBRANCH   3   6
ENDBRANCH   1   2
BRANCH   1  14
HETATM   14  C           1     -20.197  -5.753  -7.652  0.00  0.00     0.081 C 
BRANCH  14  15
HETATM   15  C           1     -20.851  -4.929  -8.718  0.00  0.00    -0.056 A 
HETATM   16  C           1     -20.138  -4.576  -9.862  0.00  0.00     0.010 A 
HETATM   17  C           1     -20.748  -3.808 -10.854  0.00  0.00     0.038 A 
HETATM   18  C           1     -22.071  -3.394 -10.702  0.00  0.00     0.081 A 
HETATM   19  C           1     -22.784  -3.747  -9.555  0.00  0.00     0.038 A 
HETATM   20  C           1     -22.174  -4.514  -8.563  0.00  0.00     0.010 A 
BRANCH  18  21
HETATM   21  O           1     -22.664  -2.648 -11.665  0.00  0.00    -0.247 OA
BRANCH  21  22
HETATM   22  P           1     -23.817  -3.339 -12.559  0.00  0.00     0.411 P 
HETATM   23  O           1     -25.142  -3.028 -11.979  0.00  0.00    -0.624 OA
HETATM   24  O           1     -23.747  -2.818 -13.942  0.00  0.00    -0.624 OA
BRANCH  22  25
HETATM   25  O           1     -23.599  -4.939 -12.574  0.00  0.00    -0.300 OA
HETATM   26  H           1     -24.446  -5.299 -12.776  0.00  0.00     0.223 HD
ENDBRANCH  22  25
ENDBRANCH  21  22
ENDBRANCH  18  21
ENDBRANCH  14  15
ENDBRANCH   1  14
BRANCH   1  27
HETATM   27  N           1     -20.376  -4.280  -5.680  0.00  0.00    -0.066 N 
HETATM   28  H           1     -21.140  -3.570  -5.613  0.00  0.00     0.275 HD
HETATM   29  H           1     -20.026  -4.506  -4.723  0.00  0.00     0.275 HD
HETATM   30  H           1     -19.594  -3.896  -6.257  0.00  0.00     0.275 HD
ENDBRANCH   1  27
TORSDOF 12
ENDMDL
MODEL 4
REMARK VINA RESULT:      -6.9      2.094      2.502
REMARK  12 active torsions:
REMARK  status: ('A' for Active; 'I' for Inactive)
REMARK    1  A    between atoms: Se_2  and  C_3 
REMARK    2  A    between atoms: C_3  and  C_4 
REMARK    3  A    between atoms: C_4  and  C_5 
REMARK    4  A    between atoms: C_5  and  C_6 
REMARK    5  A    between atoms: C_5  and  N_9 
REMARK       I    between atoms: N_9  and  C_10 
REMARK    6  A    between atoms: C_10  and  C_11 
REMARK    7  A    between atoms: C_11  and  C_12 
REMARK    8  A    between atoms: C_11  and  N_24 
REMARK    9  A    between atoms: C_12  and  C_13 
REMARK   10  A    between atoms: C_16  and  O_17 
REMARK   11  A    between atoms: O_17  and  P_18 
REMARK   12  A    between atoms: P_18  and  O_19 
ROOT
HETATM    1  C           1     -20.801  -5.670  -6.320  0.00  0.00     0.278 C 
ENDROOT
BRANCH   1   2
HETATM    2  C           1     -20.791  -7.092  -5.816  0.00  0.00     0.249 C 
HETATM    3  N           1     -20.000  -7.435  -4.751  0.00  0.00    -0.345 N 
HETATM    4  H           1     -19.423  -6.735  -4.303  0.00  0.00     0.163 HD
HETATM    5  O           1     -21.478  -7.928  -6.352  0.00  0.00    -0.271 OA
BRANCH   3   6
HETATM    6  C           1     -19.991  -8.802  -4.267  0.00  0.00     0.185 C 
BRANCH   6   7
HETATM    7  C           1     -18.560  -9.326  -4.253  0.00  0.00     0.036 C 
BRANCH   7   8
HETATM    8  C           1     -18.152  -9.726  -5.664  0.00  0.00     0.003 C 
BRANCH   8   9
HETATM    9 Se           1     -17.479 -11.556  -5.653  0.00  0.00     0.000 Se
HETATM   10  C           1     -18.425 -12.088  -7.271  0.00  0.00     0.000 C 
ENDBRANCH   8   9
ENDBRANCH   7   8
ENDBRANCH   6   7
BRANCH   6  11
HETATM   11  C           1     -20.553  -8.842  -2.868  0.00  0.00     0.196 C 
HETATM   12  O           1     -21.746  -9.168  -2.683  0.00  0.00    -0.646 OA
HETATM   13  O           1     -19.827  -8.550  -1.893  0.00  0.00    -0.646 OA
ENDBRANCH   6  11
ENDBRANCH   3   6
ENDBRANCH   1   2
BRANCH   1  14
HETATM   14  C           1     -19.866  -5.548  -7.516  0.00  0.00     0.081 C 
BRANCH  14  15
HETATM   15  C           1     -20.573  -4.845  -8.633  0.00  0.00    -0.056 A 
HETATM   16  C           1     -19.953  -4.712  -9.875  0.00  0.00     0.010 A 
HETATM   17  C           1     -20.612  -4.057 -10.916  0.00  0.00     0.038 A 
HETATM   18  C           1     -21.890  -3.535 -10.715  0.00  0.00     0.081 A 
HETATM   19  C           1     -22.508  -3.668  -9.472  0.00  0.00     0.038 A 
HETATM   20  C           1     -21.851  -4.323  -8.431  0.00  0.00     0.010 A 
BRANCH  18  21
HETATM   21  O           1     -22.529  -2.898 -11.725  0.00  0.00    -0.247 OA
BRANCH  21  22
HETATM   22  P           1     -23.792  -3.636 -12.409  0.00  0.00     0.411 P 
HETATM   23  O           1     -23.774  -5.072 -12.057  0.00  0.00    -0.624 OA
HETATM   24  O           1     -25.046  -3.021 -11.919  0.00  0.00    -0.624 OA
BRANCH  22  25
HETATM   25  O           1     -23.705  -3.474 -14.014  0.00  0.00    -0.300 OA
HETATM   26  H           1     -24.568  -3.205 -14.279  0.00  0.00     0.223 HD
ENDBRANCH  22  25
ENDBRANCH  21  22
ENDBRANCH  18  21
ENDBRANCH  14  15
ENDBRANCH   1  14
BRANCH   1  27
HETATM   27  N           1     -20.340  -4.749  -5.229  0.00  0.00    -0.066 N 
HETATM   28  H           1     -20.930  -4.895  -4.378  0.00  0.00     0.275 HD
HETATM   29  H           1     -19.342  -4.953  -5.000  0.00  0.00     0.275 HD
HETATM   30  H           1     -20.430  -3.759  -5.549  0.00  0.00     0.275 HD
ENDBRANCH   1  27
TORSDOF 12
ENDMDL
MODEL 5
REMARK VINA RESULT:      -6.5      2.558      3.202
REMARK  12 active torsions:
REMARK  status: ('A' for Active; 'I' for Inactive)
REMARK    1  A    between atoms: Se_2  and  C_3 
REMARK    2  A    between atoms: C_3  and  C_4 
REMARK    3  A    between atoms: C_4  and  C_5 
REMARK    4  A    between atoms: C_5  and  C_6 
REMARK    5  A    between atoms: C_5  and  N_9 
REMARK       I    between atoms: N_9  and  C_10 
REMARK    6  A    between atoms: C_10  and  C_11 
REMARK    7  A    between atoms: C_11  and  C_12 
REMARK    8  A    between atoms: C_11  and  N_24 
REMARK    9  A    between atoms: C_12  and  C_13 
REMARK   10  A    between atoms: C_16  and  O_17 
REMARK   11  A    between atoms: O_17  and  P_18 
REMARK   12  A    between atoms: P_18  and  O_19 
ROOT
HETATM    1  C           1     -21.638  -6.352  -5.026  0.00  0.00     0.278 C 
ENDROOT
BRANCH   1   2
HETATM    2  C           1     -21.115  -7.765  -5.102  0.00  0.00     0.249 C 
HETATM    3  N           1     -21.537  -8.702  -4.196  0.00  0.00    -0.345 N 
HETATM    4  H           1     -22.200  -8.446  -3.476  0.00  0.00     0.163 HD
HETATM    5  O           1     -20.322  -8.070  -5.961  0.00  0.00    -0.271 OA
BRANCH   3   6
HETATM    6  C           1     -21.033 -10.059  -4.270  0.00  0.00     0.185 C 
BRANCH   6   7
HETATM    7  C           1     -19.950 -10.258  -3.217  0.00  0.00     0.036 C 
BRANCH   7   8
HETATM    8  C           1     -18.629 -10.580  -3.902  0.00  0.00     0.003 C 
BRANCH   8   9
HETATM    9 Se           1     -17.172  -9.698  -2.953  0.00  0.00     0.000 Se
HETATM   10  C           1     -15.893  -9.881  -4.411  0.00  0.00     0.000 C 
ENDBRANCH   8   9
ENDBRANCH   7   8
ENDBRANCH   6   7
BRANCH   6  11
HETATM   11  C           1     -22.162 -11.027  -4.017  0.00  0.00     0.196 C 
HETATM   12  O           1     -22.425 -11.914  -4.859  0.00  0.00    -0.646 OA
HETATM   13  O           1     -22.833 -10.945  -2.966  0.00  0.00    -0.646 OA
ENDBRANCH   6  11
ENDBRANCH   3   6
ENDBRANCH   1   2
BRANCH   1  14
HETATM   14  C           1     -20.586  -5.390  -5.559  0.00  0.00     0.081 C 
BRANCH  14  15
HETATM   15  C           1     -21.007  -4.882  -6.903  0.00  0.00    -0.056 A 
HETATM   16  C           1     -20.082  -4.817  -7.944  0.00  0.00     0.010 A 
HETATM   17  C           1     -20.475  -4.343  -9.196  0.00  0.00     0.038 A 
HETATM   18  C           1     -21.792  -3.936  -9.407  0.00  0.00     0.081 A 
HETATM   19  C           1     -22.716  -4.002  -8.365  0.00  0.00     0.038 A 
HETATM   20  C           1     -22.324  -4.475  -7.113  0.00  0.00     0.010 A 
BRANCH  18  21
HETATM   21  O           1     -22.173  -3.476 -10.623  0.00  0.00    -0.247 OA
BRANCH  21  22
HETATM   22  P           1     -23.569  -4.011 -11.234  0.00  0.00     0.411 P 
HETATM   23  O           1     -23.839  -5.374 -10.728  0.00  0.00    -0.624 OA
HETATM   24  O           1     -24.665  -3.104 -10.824  0.00  0.00    -0.624 OA
BRANCH  22  25
HETATM   25  O           1     -23.472  -4.044 -12.846  0.00  0.00    -0.300 OA
HETATM   26  H           1     -22.802  -3.419 -13.063  0.00  0.00     0.223 HD
ENDBRANCH  22  25
ENDBRANCH  21  22
ENDBRANCH  18  21
ENDBRANCH  14  15
ENDBRANCH   1  14
BRANCH   1  27
HETATM   27  N           1     -21.951  -6.011  -3.599  0.00  0.00    -0.066 N 
HETATM   28  H           1     -22.428  -5.082  -3.559  0.00  0.00     0.275 HD
HETATM   29  H           1     -22.578  -6.742  -3.195  0.00  0.00     0.275 HD
HETATM   30  H           1     -21.063  -5.970  -3.049  0.00  0.00     0.275 HD
ENDBRANCH   1  27
TORSDOF 12
ENDMDL
MODEL 6
REMARK VINA RESULT:      -6.4      1.793      2.656
REMARK  12 active torsions:
REMARK  status: ('A' for Active; 'I' for Inactive)
REMARK    1  A    between atoms: Se_2  and  C_3 
REMARK    2  A    between atoms: C_3  and  C_4 
REMARK    3  A    between atoms: C_4  and  C_5 
REMARK    4  A    between atoms: C_5  and  C_6 
REMARK    5  A    between atoms: C_5  and  N_9 
REMARK       I    between atoms: N_9  and  C_10 
REMARK    6  A    between atoms: C_10  and  C_11 
REMARK    7  A    between atoms: C_11  and  C_12 
REMARK    8  A    between atoms: C_11  and  N_24 
REMARK    9  A    between atoms: C_12  and  C_13 
REMARK   10  A    between atoms: C_16  and  O_17 
REMARK   11  A    between atoms: O_17  and  P_18 
REMARK   12  A    between atoms: P_18  and  O_19 
ROOT
HETATM    1  C           1     -20.703  -7.006  -5.482  0.00  0.00     0.278 C 
ENDROOT
BRANCH   1   2
HETATM    2  C           1     -21.203  -7.791  -4.293  0.00  0.00     0.249 C 
HETATM    3  N           1     -21.103  -7.262  -3.034  0.00  0.00    -0.345 N 
HETATM    4  H           1     -20.694  -6.346  -2.900  0.00  0.00     0.163 HD
HETATM    5  O           1     -21.689  -8.885  -4.453  0.00  0.00    -0.271 OA
BRANCH   3   6
HETATM    6  C           1     -21.583  -8.016  -1.892  0.00  0.00     0.185 C 
BRANCH   6   7
HETATM    7  C           1     -20.401  -8.638  -1.159  0.00  0.00     0.036 C 
BRANCH   7   8
HETATM    8  C           1     -20.588 -10.147  -1.081  0.00  0.00     0.003 C 
BRANCH   8   9
HETATM    9 Se           1     -19.500 -11.009  -2.450  0.00  0.00     0.000 Se
HETATM   10  C           1     -18.295  -9.494  -2.679  0.00  0.00     0.000 C 
ENDBRANCH   8   9
ENDBRANCH   7   8
ENDBRANCH   6   7
BRANCH   6  11
HETATM   11  C           1     -22.323  -7.093  -0.956  0.00  0.00     0.196 C 
HETATM   12  O           1     -22.866  -7.551   0.073  0.00  0.00    -0.646 OA
HETATM   13  O           1     -22.394  -5.871  -1.209  0.00  0.00    -0.646 OA
ENDBRANCH   6  11
ENDBRANCH   3   6
ENDBRANCH   1   2
BRANCH   1  14
HETATM   14  C           1     -21.056  -5.536  -5.305  0.00  0.00     0.081 C 
BRANCH  14  15
HETATM   15  C           1     -21.421  -4.946  -6.632  0.00  0.00    -0.056 A 
HETATM   16  C           1     -22.747  -4.611  -6.904  0.00  0.00     0.010 A 
HETATM   17  C           1     -23.086  -4.062  -8.141  0.00  0.00     0.038 A 
HETATM   18  C           1     -22.101  -3.848  -9.105  0.00  0.00     0.081 A 
HETATM   19  C           1     -20.775  -4.184  -8.831  0.00  0.00     0.038 A 
HETATM   20  C           1     -20.435  -4.733  -7.595  0.00  0.00     0.010 A 
BRANCH  18  21
HETATM   21  O           1     -22.431  -3.315 -10.305  0.00  0.00    -0.247 OA
BRANCH  21  22
HETATM   22  P           1     -23.628  -4.007 -11.140  0.00  0.00     0.411 P 
HETATM   23  O           1     -23.830  -5.391 -10.658  0.00  0.00    -0.624 OA
HETATM   24  O           1     -24.874  -3.230 -10.950  0.00  0.00    -0.624 OA
BRANCH  22  25
HETATM   25  O           1     -23.245  -4.034 -12.708  0.00  0.00    -0.300 OA
HETATM   26  H           1     -22.325  -3.828 -12.738  0.00  0.00     0.223 HD
ENDBRANCH  22  25
ENDBRANCH  21  22
ENDBRANCH  18  21
ENDBRANCH  14  15
ENDBRANCH   1  14
BRANCH   1  27
HETATM   27  N           1     -21.348  -7.529  -6.732  0.00  0.00    -0.066 N 
HETATM   28  H           1     -21.809  -8.445  -6.529  0.00  0.00     0.275 HD
HETATM   29  H           1     -22.063  -6.846  -7.066  0.00  0.00     0.275 HD
HETATM   30  H           1     -20.620  -7.661  -7.469  0.00  0.00     0.275 HD
ENDBRANCH   1  27
TORSDOF 12
ENDMDL
MODEL 7
REMARK VINA RESULT:      -6.2      2.062      2.852
REMARK  12 active torsions:
REMARK  status: ('A' for Active; 'I' for Inactive)
REMARK    1  A    between atoms: Se_2  and  C_3 
REMARK    2  A    between atoms: C_3  and  C_4 
REMARK    3  A    between atoms: C_4  and  C_5 
REMARK    4  A    between atoms: C_5  and  C_6 
REMARK    5  A    between atoms: C_5  and  N_9 
REMARK       I    between atoms: N_9  and  C_10 
REMARK    6  A    between atoms: C_10  and  C_11 
REMARK    7  A    between atoms: C_11  and  C_12 
REMARK    8  A    between atoms: C_11  and  N_24 
REMARK    9  A    between atoms: C_12  and  C_13 
REMARK   10  A    between atoms: C_16  and  O_17 
REMARK   11  A    between atoms: O_17  and  P_18 
REMARK   12  A    between atoms: P_18  and  O_19 
ROOT
HETATM    1  C           1     -21.577  -6.700  -4.489  0.00  0.00     0.278 C 
ENDROOT
BRANCH   1   2
HETATM    2  C           1     -21.530  -8.128  -4.002  0.00  0.00     0.249 C 
HETATM    3  N           1     -21.625  -8.398  -2.662  0.00  0.00    -0.345 N 
HETATM    4  H           1     -21.727  -7.640  -1.999  0.00  0.00     0.163 HD
HETATM    5  O           1     -21.407  -9.032  -4.793  0.00  0.00    -0.271 OA
BRANCH   3   6
HETATM    6  C           1     -21.580  -9.769  -2.195  0.00  0.00     0.185 C 
BRANCH   6   7
HETATM    7  C           1     -20.221 -10.047  -1.564  0.00  0.00     0.036 C 
BRANCH   7   8
HETATM    8  C           1     -19.960 -11.547  -1.563  0.00  0.00     0.003 C 
BRANCH   8   9
HETATM    9 Se           1     -20.180 -12.248  -3.369  0.00  0.00     0.000 Se
HETATM   10  C           1     -21.592 -13.502  -2.887  0.00  0.00     0.000 C 
ENDBRANCH   8   9
ENDBRANCH   7   8
ENDBRANCH   6   7
BRANCH   6  11
HETATM   11  C           1     -22.663  -9.985  -1.167  0.00  0.00     0.196 C 
HETATM   12  O           1     -22.715  -9.256  -0.152  0.00  0.00    -0.646 OA
HETATM   13  O           1     -23.508 -10.891  -1.330  0.00  0.00    -0.646 OA
ENDBRANCH   6  11
ENDBRANCH   3   6
ENDBRANCH   1   2
BRANCH   1  14
HETATM   14  C           1     -20.474  -6.477  -5.514  0.00  0.00     0.081 C 
BRANCH  14  15
HETATM   15  C           1     -21.005  -5.652  -6.646  0.00  0.00    -0.056 A 
HETATM   16  C           1     -20.216  -5.428  -7.774  0.00  0.00     0.010 A 
HETATM   17  C           1     -20.710  -4.660  -8.828  0.00  0.00     0.038 A 
HETATM   18  C           1     -21.992  -4.115  -8.754  0.00  0.00     0.081 A 
HETATM   19  C           1     -22.780  -4.338  -7.625  0.00  0.00     0.038 A 
HETATM   20  C           1     -22.286  -5.106  -6.571  0.00  0.00     0.010 A 
BRANCH  18  21
HETATM   21  O           1     -22.471  -3.368  -9.778  0.00  0.00    -0.247 OA
BRANCH  21  22
HETATM   22  P           1     -23.196  -4.133 -11.002  0.00  0.00     0.411 P 
HETATM   23  O           1     -23.891  -5.334 -10.490  0.00  0.00    -0.624 OA
HETATM   24  O           1     -24.177  -3.225 -11.638  0.00  0.00    -0.624 OA
BRANCH  22  25
HETATM   25  O           1     -22.088  -4.575 -12.091  0.00  0.00    -0.300 OA
HETATM   26  H           1     -21.612  -3.785 -12.288  0.00  0.00     0.223 HD
ENDBRANCH  22  25
ENDBRANCH  21  22
ENDBRANCH  18  21
ENDBRANCH  14  15
ENDBRANCH   1  14
BRANCH   1  27
HETATM   27  N           1     -21.377  -5.770  -3.329  0.00  0.00    -0.066 N 
HETATM   28  H           1     -21.413  -4.781  -3.665  0.00  0.00     0.275 HD
HETATM   29  H           1     -22.131  -5.925  -2.623  0.00  0.00     0.275 HD
HETATM   30  H           1     -20.446  -5.955  -2.892  0.00  0.00     0.275 HD
ENDBRANCH   1  27
TORSDOF 12
ENDMDL
MODEL 8
REMARK VINA RESULT:      -6.1      4.458      9.666
REMARK  12 active torsions:
REMARK  status: ('A' for Active; 'I' for Inactive)
REMARK    1  A    between atoms: Se_2  and  C_3 
REMARK    2  A    between atoms: C_3  and  C_4 
REMARK    3  A    between atoms: C_4  and  C_5 
REMARK    4  A    between atoms: C_5  and  C_6 
REMARK    5  A    between atoms: C_5  and  N_9 
REMARK       I    between atoms: N_9  and  C_10 
REMARK    6  A    between atoms: C_10  and  C_11 
REMARK    7  A    between atoms: C_11  and  C_12 
REMARK    8  A    between atoms: C_11  and  N_24 
REMARK    9  A    between atoms: C_12  and  C_13 
REMARK   10  A    between atoms: C_16  and  O_17 
REMARK   11  A    between atoms: O_17  and  P_18 
REMARK   12  A    between atoms: P_18  and  O_19 
ROOT
HETATM    1  C           1     -21.939  -5.642  -5.636  0.00  0.00     0.278 C 
ENDROOT
BRANCH   1   2
HETATM    2  C           1     -21.940  -4.684  -6.802  0.00  0.00     0.249 C 
HETATM    3  N           1     -22.918  -4.768  -7.757  0.00  0.00    -0.345 N 
HETATM    4  H           1     -23.640  -5.473  -7.681  0.00  0.00     0.163 HD
HETATM    5  O           1     -21.078  -3.843  -6.893  0.00  0.00    -0.271 OA
BRANCH   3   6
HETATM    6  C           1     -22.919  -3.847  -8.876  0.00  0.00     0.185 C 
BRANCH   6   7
HETATM    7  C           1     -21.922  -4.321  -9.926  0.00  0.00     0.036 C 
BRANCH   7   8
HETATM    8  C           1     -21.680  -3.208 -10.936  0.00  0.00     0.003 C 
BRANCH   8   9
HETATM    9 Se           1     -22.256  -3.796 -12.703  0.00  0.00     0.000 Se
HETATM   10  C           1     -23.733  -2.531 -12.825  0.00  0.00     0.000 C 
ENDBRANCH   8   9
ENDBRANCH   7   8
ENDBRANCH   6   7
BRANCH   6  11
HETATM   11  C           1     -24.299  -3.796  -9.483  0.00  0.00     0.196 C 
HETATM   12  O           1     -24.769  -4.806 -10.052  0.00  0.00    -0.646 OA
HETATM   13  O           1     -24.974  -2.746  -9.416  0.00  0.00    -0.646 OA
ENDBRANCH   6  11
ENDBRANCH   3   6
ENDBRANCH   1   2
BRANCH   1  14
HETATM   14  C           1     -21.164  -6.898  -6.012  0.00  0.00     0.081 C 
BRANCH  14  15
HETATM   15  C           1     -21.007  -7.769  -4.804  0.00  0.00    -0.056 A 
HETATM   16  C           1     -21.186  -9.147  -4.911  0.00  0.00     0.010 A 
HETATM   17  C           1     -21.040  -9.958  -3.785  0.00  0.00     0.038 A 
HETATM   18  C           1     -20.715  -9.391  -2.553  0.00  0.00     0.081 A 
HETATM   19  C           1     -20.537  -8.012  -2.447  0.00  0.00     0.038 A 
HETATM   20  C           1     -20.683  -7.200  -3.572  0.00  0.00     0.010 A 
BRANCH  18  21
HETATM   21  O           1     -20.574 -10.179  -1.460  0.00  0.00    -0.247 OA
BRANCH  21  22
HETATM   22  P           1     -21.651 -10.022  -0.267  0.00  0.00     0.411 P 
HETATM   23  O           1     -22.998  -9.812  -0.843  0.00  0.00    -0.624 OA
HETATM   24  O           1     -21.651 -11.249   0.561  0.00  0.00    -0.624 OA
BRANCH  22  25
HETATM   25  O           1     -21.255  -8.753   0.651  0.00  0.00    -0.300 OA
HETATM   26  H           1     -21.244  -9.085   1.533  0.00  0.00     0.223 HD
ENDBRANCH  22  25
ENDBRANCH  21  22
ENDBRANCH  18  21
ENDBRANCH  14  15
ENDBRANCH   1  14
BRANCH   1  27
HETATM   27  N           1     -23.351  -6.011  -5.291  0.00  0.00    -0.066 N 
HETATM   28  H           1     -23.416  -7.044  -5.147  0.00  0.00     0.275 HD
HETATM   29  H           1     -23.636  -5.518  -4.416  0.00  0.00     0.275 HD
HETATM   30  H           1     -23.985  -5.729  -6.073  0.00  0.00     0.275 HD
ENDBRANCH   1  27
TORSDOF 12
ENDMDL
MODEL 9
REMARK VINA RESULT:      -6.1      2.183      3.181
REMARK  12 active torsions:
REMARK  status: ('A' for Active; 'I' for Inactive)
REMARK    1  A    between atoms: Se_2  and  C_3 
REMARK    2  A    between atoms: C_3  and  C_4 
REMARK    3  A    between atoms: C_4  and  C_5 
REMARK    4  A    between atoms: C_5  and  C_6 
REMARK    5  A    between atoms: C_5  and  N_9 
REMARK       I    between atoms: N_9  and  C_10 
REMARK    6  A    between atoms: C_10  and  C_11 
REMARK    7  A    between atoms: C_11  and  C_12 
REMARK    8  A    between atoms: C_11  and  N_24 
REMARK    9  A    between atoms: C_12  and  C_13 
REMARK   10  A    between atoms: C_16  and  O_17 
REMARK   11  A    between atoms: O_17  and  P_18 
REMARK   12  A    between atoms: P_18  and  O_19 
ROOT
HETATM    1  C           1     -20.722  -7.182  -5.167  0.00  0.00     0.278 C 
ENDROOT
BRANCH   1   2
HETATM    2  C           1     -20.826  -7.771  -3.782  0.00  0.00     0.249 C 
HETATM    3  N           1     -20.884  -9.130  -3.619  0.00  0.00    -0.345 N 
HETATM    4  H           1     -20.856  -9.738  -4.427  0.00  0.00     0.163 HD
HETATM    5  O           1     -20.860  -7.045  -2.818  0.00  0.00    -0.271 OA
BRANCH   3   6
HETATM    6  C           1     -20.984  -9.696  -2.288  0.00  0.00     0.185 C 
BRANCH   6   7
HETATM    7  C           1     -22.387 -10.251  -2.075  0.00  0.00     0.036 C 
BRANCH   7   8
HETATM    8  C           1     -22.736 -10.196  -0.594  0.00  0.00     0.003 C 
BRANCH   8   9
HETATM    9 Se           1     -22.650  -8.350   0.027  0.00  0.00     0.000 Se
HETATM   10  C           1     -21.144  -8.651   1.227  0.00  0.00     0.000 C 
ENDBRANCH   8   9
ENDBRANCH   7   8
ENDBRANCH   6   7
BRANCH   6  11
HETATM   11  C           1     -19.977 -10.809  -2.138  0.00  0.00     0.196 C 
HETATM   12  O           1     -18.824 -10.556  -1.725  0.00  0.00    -0.646 OA
HETATM   13  O           1     -20.295 -11.983  -2.425  0.00  0.00    -0.646 OA
ENDBRANCH   6  11
ENDBRANCH   3   6
ENDBRANCH   1   2
BRANCH   1  14
HETATM   14  C           1     -21.489  -5.868  -5.220  0.00  0.00     0.081 C 
BRANCH  14  15
HETATM   15  C           1     -21.346  -5.260  -6.581  0.00  0.00    -0.056 A 
HETATM   16  C           1     -20.154  -5.409  -7.289  0.00  0.00     0.010 A 
HETATM   17  C           1     -20.021  -4.842  -8.557  0.00  0.00     0.038 A 
HETATM   18  C           1     -21.080  -4.127  -9.116  0.00  0.00     0.081 A 
HETATM   19  C           1     -22.272  -3.978  -8.407  0.00  0.00     0.038 A 
HETATM   20  C           1     -22.405  -4.544  -7.139  0.00  0.00     0.010 A 
BRANCH  18  21
HETATM   21  O           1     -20.951  -3.576 -10.347  0.00  0.00    -0.247 OA
BRANCH  21  22
HETATM   22  P           1     -22.169  -3.756 -11.391  0.00  0.00     0.411 P 
HETATM   23  O           1     -22.864  -5.035 -11.123  0.00  0.00    -0.624 OA
HETATM   24  O           1     -23.121  -2.633 -11.237  0.00  0.00    -0.624 OA
BRANCH  22  25
HETATM   25  O           1     -21.588  -3.766 -12.898  0.00  0.00    -0.300 OA
HETATM   26  H           1     -22.350  -3.790 -13.453  0.00  0.00     0.223 HD
ENDBRANCH  22  25
ENDBRANCH  21  22
ENDBRANCH  18  21
ENDBRANCH  14  15
ENDBRANCH   1  14
BRANCH   1  27
HETATM   27  N           1     -21.304  -8.141  -6.163  0.00  0.00    -0.066 N 
HETATM   28  H           1     -22.285  -7.859  -6.386  0.00  0.00     0.275 HD
HETATM   29  H           1     -20.731  -8.128  -7.036  0.00  0.00     0.275 HD
HETATM   30  H           1     -21.302  -9.105  -5.759  0.00  0.00     0.275 HD
ENDBRANCH   1  27
TORSDOF 12
ENDMDL
