MODEL 1
REMARK VINA RESULT:      -6.4      0.000      0.000
REMARK  6 active torsions:
REMARK  status: ('A' for Active; 'I' for Inactive)
REMARK    1  A    between atoms: N_3  and  C_16 
REMARK       I    between atoms: N_3  and  C_4 
REMARK    2  A    between atoms: C_4  and  C_5 
REMARK    3  A    between atoms: C_5  and  N_7 
REMARK    4  A    between atoms: C_14  and  C_16 
REMARK    5  A    between atoms: C_16  and  C_18 
REMARK    6  A    between atoms: C_18  and  C_19 
ROOT
HETATM    1  C           1     -22.650  -4.023  -9.638  0.00  0.00     0.191 C 
ENDROOT
BRANCH   1   2
HETATM    2  N           1     -22.220  -4.970  -8.627  0.00  0.00    -0.344 N 
HETATM    3  C           1     -22.085  -4.568  -7.326  0.00  0.00     0.248 C 
HETATM    4  O           1     -23.022  -4.647  -6.568  0.00  0.00    -0.271 OA
HETATM    5  H           1     -22.020  -5.928  -8.885  0.00  0.00     0.163 HD
BRANCH   3   6
HETATM    6  C           1     -20.763  -4.025  -6.837  0.00  0.00     0.270 C 
HETATM    7  C           1     -19.678  -4.335  -7.861  0.00  0.00     0.050 C 
BRANCH   6   8
HETATM    8  N           1     -20.413  -4.668  -5.528  0.00  0.00    -0.067 N 
HETATM    9  H           1     -20.805  -5.636  -5.498  0.00  0.00     0.275 HD
HETATM   10  H           1     -19.373  -4.712  -5.430  0.00  0.00     0.275 HD
HETATM   11  H           1     -20.815  -4.105  -4.745  0.00  0.00     0.275 HD
ENDBRANCH   6   8
ENDBRANCH   3   6
ENDBRANCH   1   2
BRANCH   1  12
HETATM   12  C           1     -24.158  -3.976  -9.675  0.00  0.00     0.197 C 
HETATM   13  O           1     -24.755  -2.903  -9.442  0.00  0.00    -0.646 OA
HETATM   14  O           1     -24.809  -5.010  -9.938  0.00  0.00    -0.646 OA
ENDBRANCH   1  12
BRANCH   1  15
HETATM   15  C           1     -22.122  -4.459 -10.999  0.00  0.00     0.094 C 
BRANCH  15  16
HETATM   16  C           1     -22.823  -3.691 -12.076  0.00  0.00     0.028 A 
HETATM   17  N           1     -23.689  -4.239 -12.985  0.00  0.00    -0.354 N 
HETATM   18  C           1     -24.077  -3.238 -13.743  0.00  0.00     0.180 A 
ATOM     19  HN          1     -23.973  -5.216 -13.059  1.00  0.00     0.166 HD
HETATM   20  N           1     -23.493  -2.064 -13.357  0.00  0.00    -0.360 N 
HETATM   21  H           1     -23.639  -1.124 -13.799  0.00  0.00     0.166 HD
HETATM   22  C           1     -22.685  -2.339 -12.287  0.00  0.00     0.114 A 
ENDBRANCH  15  16
ENDBRANCH   1  15
TORSDOF 6
ENDMDL
MODEL 2
REMARK VINA RESULT:      -6.4     13.441     15.034
REMARK  6 active torsions:
REMARK  status: ('A' for Active; 'I' for Inactive)
REMARK    1  A    between atoms: N_3  and  C_16 
REMARK       I    between atoms: N_3  and  C_4 
REMARK    2  A    between atoms: C_4  and  C_5 
REMARK    3  A    between atoms: C_5  and  N_7 
REMARK    4  A    between atoms: C_14  and  C_16 
REMARK    5  A    between atoms: C_16  and  C_18 
REMARK    6  A    between atoms: C_18  and  C_19 
ROOT
HETATM    1  C           1     -36.308  -0.490 -11.573  0.00  0.00     0.191 C 
ENDROOT
BRANCH   1   2
HETATM    2  N           1     -36.616  -0.754 -12.966  0.00  0.00    -0.344 N 
HETATM    3  C           1     -35.609  -0.807 -13.891  0.00  0.00     0.248 C 
HETATM    4  O           1     -35.060  -1.856 -14.129  0.00  0.00    -0.271 OA
HETATM    5  H           1     -37.576  -0.899 -13.253  0.00  0.00     0.163 HD
BRANCH   3   6
HETATM    6  C           1     -35.184   0.448 -14.616  0.00  0.00     0.270 C 
HETATM    7  C           1     -34.481   1.384 -13.641  0.00  0.00     0.050 C 
BRANCH   6   8
HETATM    8  N           1     -36.394   1.132 -15.181  0.00  0.00    -0.067 N 
HETATM    9  H           1     -36.363   2.149 -14.944  0.00  0.00     0.275 HD
HETATM   10  H           1     -36.405   1.017 -16.220  0.00  0.00     0.275 HD
HETATM   11  H           1     -37.257   0.706 -14.774  0.00  0.00     0.275 HD
ENDBRANCH   6   8
ENDBRANCH   3   6
ENDBRANCH   1   2
BRANCH   1  12
HETATM   12  C           1     -35.602  -1.684 -10.980  0.00  0.00     0.197 C 
HETATM   13  O           1     -36.169  -2.798 -10.958  0.00  0.00    -0.646 OA
HETATM   14  O           1     -34.451  -1.560 -10.510  0.00  0.00    -0.646 OA
ENDBRANCH   1  12
BRANCH   1  15
HETATM   15  C           1     -37.600  -0.233 -10.809  0.00  0.00     0.094 C 
BRANCH  15  16
HETATM   16  C           1     -37.287   0.458  -9.517  0.00  0.00     0.028 A 
HETATM   17  N           1     -36.372   0.014  -8.599  0.00  0.00    -0.354 N 
HETATM   18  C           1     -36.403   0.895  -7.625  0.00  0.00     0.180 A 
ATOM     19  HN          1     -35.791  -0.823  -8.658  1.00  0.00     0.166 HD
HETATM   20  N           1     -37.303   1.891  -7.880  0.00  0.00    -0.360 N 
HETATM   21  H           1     -37.513   2.711  -7.260  0.00  0.00     0.166 HD
HETATM   22  C           1     -37.879   1.624  -9.092  0.00  0.00     0.114 A 
ENDBRANCH  15  16
ENDBRANCH   1  15
TORSDOF 6
ENDMDL
MODEL 3
REMARK VINA RESULT:      -6.3     11.977     14.355
REMARK  6 active torsions:
REMARK  status: ('A' for Active; 'I' for Inactive)
REMARK    1  A    between atoms: N_3  and  C_16 
REMARK       I    between atoms: N_3  and  C_4 
REMARK    2  A    between atoms: C_4  and  C_5 
REMARK    3  A    between atoms: C_5  and  N_7 
REMARK    4  A    between atoms: C_14  and  C_16 
REMARK    5  A    between atoms: C_16  and  C_18 
REMARK    6  A    between atoms: C_18  and  C_19 
ROOT
HETATM    1  C           1     -36.216  -1.038 -11.745  0.00  0.00     0.191 C 
ENDROOT
BRANCH   1   2
HETATM    2  N           1     -36.700  -0.025 -12.662  0.00  0.00    -0.344 N 
HETATM    3  C           1     -36.971  -0.352 -13.963  0.00  0.00     0.248 C 
HETATM    4  O           1     -38.075  -0.729 -14.275  0.00  0.00    -0.271 OA
HETATM    5  H           1     -36.838   0.925 -12.340  0.00  0.00     0.163 HD
BRANCH   3   6
HETATM    6  C           1     -35.888  -0.242 -15.010  0.00  0.00     0.270 C 
HETATM    7  C           1     -35.088   1.035 -14.780  0.00  0.00     0.050 C 
BRANCH   6   8
HETATM    8  N           1     -36.512  -0.201 -16.373  0.00  0.00    -0.067 N 
HETATM    9  H           1     -37.340  -0.838 -16.397  0.00  0.00     0.275 HD
HETATM   10  H           1     -36.818   0.775 -16.586  0.00  0.00     0.275 HD
HETATM   11  H           1     -35.814  -0.511 -17.085  0.00  0.00     0.275 HD
ENDBRANCH   6   8
ENDBRANCH   3   6
ENDBRANCH   1   2
BRANCH   1  12
HETATM   12  C           1     -36.609  -0.669 -10.335  0.00  0.00     0.197 C 
HETATM   13  O           1     -37.791  -0.351 -10.079  0.00  0.00    -0.646 OA
HETATM   14  O           1     -35.753  -0.680  -9.424  0.00  0.00    -0.646 OA
ENDBRANCH   1  12
BRANCH   1  15
HETATM   15  C           1     -34.699  -1.127 -11.842  0.00  0.00     0.094 C 
BRANCH  15  16
HETATM   16  C           1     -34.275  -2.561 -11.745  0.00  0.00     0.028 A 
HETATM   17  N           1     -33.892  -3.183 -10.586  0.00  0.00    -0.354 N 
HETATM   18  C           1     -33.605  -4.416 -10.933  0.00  0.00     0.180 A 
ATOM     19  HN          1     -33.839  -2.774  -9.653  1.00  0.00     0.166 HD
HETATM   20  N           1     -33.790  -4.615 -12.272  0.00  0.00    -0.360 N 
HETATM   21  H           1     -33.630  -5.512 -12.794  0.00  0.00     0.166 HD
HETATM   22  C           1     -34.221  -3.432 -12.807  0.00  0.00     0.114 A 
ENDBRANCH  15  16
ENDBRANCH   1  15
TORSDOF 6
ENDMDL
MODEL 4
REMARK VINA RESULT:      -6.2     12.130     13.911
REMARK  6 active torsions:
REMARK  status: ('A' for Active; 'I' for Inactive)
REMARK    1  A    between atoms: N_3  and  C_16 
REMARK       I    between atoms: N_3  and  C_4 
REMARK    2  A    between atoms: C_4  and  C_5 
REMARK    3  A    between atoms: C_5  and  N_7 
REMARK    4  A    between atoms: C_14  and  C_16 
REMARK    5  A    between atoms: C_16  and  C_18 
REMARK    6  A    between atoms: C_18  and  C_19 
ROOT
HETATM    1  C           1     -35.770  -0.468 -12.019  0.00  0.00     0.191 C 
ENDROOT
BRANCH   1   2
HETATM    2  N           1     -34.576  -1.272 -12.189  0.00  0.00    -0.344 N 
HETATM    3  C           1     -34.671  -2.541 -12.693  0.00  0.00     0.248 C 
HETATM    4  O           1     -34.598  -2.726 -13.884  0.00  0.00    -0.271 OA
HETATM    5  H           1     -33.671  -0.895 -11.934  0.00  0.00     0.163 HD
BRANCH   3   6
HETATM    6  C           1     -34.867  -3.711 -11.758  0.00  0.00     0.270 C 
HETATM    7  C           1     -33.858  -3.626 -10.620  0.00  0.00     0.050 C 
BRANCH   6   8
HETATM    8  N           1     -34.664  -4.992 -12.512  0.00  0.00    -0.067 N 
HETATM    9  H           1     -34.462  -4.779 -13.514  0.00  0.00     0.275 HD
HETATM   10  H           1     -33.859  -5.515 -12.098  0.00  0.00     0.275 HD
HETATM   11  H           1     -35.529  -5.574 -12.448  0.00  0.00     0.275 HD
ENDBRANCH   6   8
ENDBRANCH   3   6
ENDBRANCH   1   2
BRANCH   1  12
HETATM   12  C           1     -36.434  -0.824 -10.711  0.00  0.00     0.197 C 
HETATM   13  O           1     -35.800  -0.715  -9.639  0.00  0.00    -0.646 OA
HETATM   14  O           1     -37.617  -1.227 -10.700  0.00  0.00    -0.646 OA
ENDBRANCH   1  12
BRANCH   1  15
HETATM   15  C           1     -36.732  -0.740 -13.168  0.00  0.00     0.094 C 
BRANCH  15  16
HETATM   16  C           1     -36.488   0.246 -14.268  0.00  0.00     0.028 A 
HETATM   17  N           1     -35.448   1.139 -14.298  0.00  0.00    -0.354 N 
HETATM   18  C           1     -35.596   1.808 -15.418  0.00  0.00     0.180 A 
ATOM     19  HN          1     -34.716   1.258 -13.598  1.00  0.00     0.166 HD
HETATM   20  N           1     -36.693   1.380 -16.114  0.00  0.00    -0.360 N 
HETATM   21  H           1     -37.026   1.754 -17.037  0.00  0.00     0.166 HD
HETATM   22  C           1     -37.274   0.377 -15.388  0.00  0.00     0.114 A 
ENDBRANCH  15  16
ENDBRANCH   1  15
TORSDOF 6
ENDMDL
MODEL 5
REMARK VINA RESULT:      -6.1      8.198     10.378
REMARK  6 active torsions:
REMARK  status: ('A' for Active; 'I' for Inactive)
REMARK    1  A    between atoms: N_3  and  C_16 
REMARK       I    between atoms: N_3  and  C_4 
REMARK    2  A    between atoms: C_4  and  C_5 
REMARK    3  A    between atoms: C_5  and  N_7 
REMARK    4  A    between atoms: C_14  and  C_16 
REMARK    5  A    between atoms: C_16  and  C_18 
REMARK    6  A    between atoms: C_18  and  C_19 
ROOT
HETATM    1  C           1     -25.783  -6.880 -17.438  0.00  0.00     0.191 C 
ENDROOT
BRANCH   1   2
HETATM    2  N           1     -26.918  -5.993 -17.609  0.00  0.00    -0.344 N 
HETATM    3  C           1     -28.117  -6.294 -17.022  0.00  0.00     0.248 C 
HETATM    4  O           1     -28.362  -5.899 -15.908  0.00  0.00    -0.271 OA
HETATM    5  H           1     -26.822  -5.150 -18.162  0.00  0.00     0.163 HD
BRANCH   3   6
HETATM    6  C           1     -29.135  -7.122 -17.770  0.00  0.00     0.270 C 
HETATM    7  C           1     -30.493  -6.435 -17.708  0.00  0.00     0.050 C 
BRANCH   6   8
HETATM    8  N           1     -29.233  -8.480 -17.141  0.00  0.00    -0.067 N 
HETATM    9  H           1     -30.182  -8.604 -16.722  0.00  0.00     0.275 HD
HETATM   10  H           1     -29.077  -9.213 -17.869  0.00  0.00     0.275 HD
HETATM   11  H           1     -28.509  -8.571 -16.393  0.00  0.00     0.275 HD
ENDBRANCH   6   8
ENDBRANCH   3   6
ENDBRANCH   1   2
BRANCH   1  12
HETATM   12  C           1     -25.187  -6.675 -16.066  0.00  0.00     0.197 C 
HETATM   13  O           1     -25.079  -5.521 -15.598  0.00  0.00    -0.646 OA
HETATM   14  O           1     -24.802  -7.659 -15.399  0.00  0.00    -0.646 OA
ENDBRANCH   1  12
BRANCH   1  15
HETATM   15  C           1     -24.734  -6.571 -18.498  0.00  0.00     0.094 C 
BRANCH  15  16
HETATM   16  C           1     -25.052  -7.329 -19.750  0.00  0.00     0.028 A 
HETATM   17  N           1     -26.315  -7.527 -20.242  0.00  0.00    -0.354 N 
HETATM   18  C           1     -26.155  -8.229 -21.340  0.00  0.00     0.180 A 
ATOM     19  HN          1     -27.194  -7.199 -19.839  1.00  0.00     0.166 HD
HETATM   20  N           1     -24.835  -8.492 -21.577  0.00  0.00    -0.360 N 
HETATM   21  H           1     -24.446  -9.033 -22.387  0.00  0.00     0.166 HD
HETATM   22  C           1     -24.114  -7.919 -20.564  0.00  0.00     0.114 A 
ENDBRANCH  15  16
ENDBRANCH   1  15
TORSDOF 6
ENDMDL
MODEL 6
REMARK VINA RESULT:      -6.0     12.210     13.913
REMARK  6 active torsions:
REMARK  status: ('A' for Active; 'I' for Inactive)
REMARK    1  A    between atoms: N_3  and  C_16 
REMARK       I    between atoms: N_3  and  C_4 
REMARK    2  A    between atoms: C_4  and  C_5 
REMARK    3  A    between atoms: C_5  and  N_7 
REMARK    4  A    between atoms: C_14  and  C_16 
REMARK    5  A    between atoms: C_16  and  C_18 
REMARK    6  A    between atoms: C_18  and  C_19 
ROOT
HETATM    1  C           1     -36.253  -0.371 -12.482  0.00  0.00     0.191 C 
ENDROOT
BRANCH   1   2
HETATM    2  N           1     -35.717  -1.695 -12.728  0.00  0.00    -0.344 N 
HETATM    3  C           1     -35.224  -2.438 -11.689  0.00  0.00     0.248 C 
HETATM    4  O           1     -35.954  -3.178 -11.075  0.00  0.00    -0.271 OA
HETATM    5  H           1     -35.706  -2.071 -13.668  0.00  0.00     0.163 HD
BRANCH   3   6
HETATM    6  C           1     -33.766  -2.331 -11.310  0.00  0.00     0.270 C 
HETATM    7  C           1     -33.145  -3.722 -11.284  0.00  0.00     0.050 C 
BRANCH   6   8
HETATM    8  N           1     -33.647  -1.705  -9.952  0.00  0.00    -0.067 N 
HETATM    9  H           1     -34.601  -1.506  -9.575  0.00  0.00     0.275 HD
HETATM   10  H           1     -33.149  -2.362  -9.309  0.00  0.00     0.275 HD
HETATM   11  H           1     -33.109  -0.813 -10.026  0.00  0.00     0.275 HD
ENDBRANCH   6   8
ENDBRANCH   3   6
ENDBRANCH   1   2
BRANCH   1  12
HETATM   12  C           1     -36.905  -0.337 -11.122  0.00  0.00     0.197 C 
HETATM   13  O           1     -38.074  -0.759 -10.979  0.00  0.00    -0.646 OA
HETATM   14  O           1     -36.278   0.113 -10.139  0.00  0.00    -0.646 OA
ENDBRANCH   1  12
BRANCH   1  15
HETATM   15  C           1     -37.288  -0.037 -13.549  0.00  0.00     0.094 C 
BRANCH  15  16
HETATM   16  C           1     -36.719  -0.327 -14.905  0.00  0.00     0.028 A 
HETATM   17  N           1     -35.384  -0.476 -15.173  0.00  0.00    -0.354 N 
HETATM   18  C           1     -35.314  -0.717 -16.462  0.00  0.00     0.180 A 
ATOM     19  HN          1     -34.609  -0.414 -14.512  1.00  0.00     0.166 HD
HETATM   20  N           1     -36.554  -0.728 -17.036  0.00  0.00    -0.360 N 
HETATM   21  H           1     -36.766  -0.898 -18.050  0.00  0.00     0.166 HD
HETATM   22  C           1     -37.466  -0.480 -16.048  0.00  0.00     0.114 A 
ENDBRANCH  15  16
ENDBRANCH   1  15
TORSDOF 6
ENDMDL
MODEL 7
REMARK VINA RESULT:      -5.7      2.533      3.493
REMARK  6 active torsions:
REMARK  status: ('A' for Active; 'I' for Inactive)
REMARK    1  A    between atoms: N_3  and  C_16 
REMARK       I    between atoms: N_3  and  C_4 
REMARK    2  A    between atoms: C_4  and  C_5 
REMARK    3  A    between atoms: C_5  and  N_7 
REMARK    4  A    between atoms: C_14  and  C_16 
REMARK    5  A    between atoms: C_16  and  C_18 
REMARK    6  A    between atoms: C_18  and  C_19 
ROOT
HETATM    1  C           1     -21.971  -4.948  -7.835  0.00  0.00     0.191 C 
ENDROOT
BRANCH   1   2
HETATM    2  N           1     -22.281  -4.887  -6.419  0.00  0.00    -0.344 N 
HETATM    3  C           1     -21.515  -5.580  -5.521  0.00  0.00     0.248 C 
HETATM    4  O           1     -20.548  -5.057  -5.021  0.00  0.00    -0.271 OA
HETATM    5  H           1     -23.064  -4.333  -6.096  0.00  0.00     0.163 HD
BRANCH   3   6
HETATM    6  C           1     -21.881  -6.998  -5.153  0.00  0.00     0.270 C 
HETATM    7  C           1     -21.545  -7.245  -3.688  0.00  0.00     0.050 C 
BRANCH   6   8
HETATM    8  N           1     -21.104  -7.952  -6.012  0.00  0.00    -0.067 N 
HETATM    9  H           1     -21.307  -7.761  -7.018  0.00  0.00     0.275 HD
HETATM   10  H           1     -20.082  -7.826  -5.833  0.00  0.00     0.275 HD
HETATM   11  H           1     -21.381  -8.933  -5.780  0.00  0.00     0.275 HD
ENDBRANCH   6   8
ENDBRANCH   3   6
ENDBRANCH   1   2
BRANCH   1  12
HETATM   12  C           1     -20.474  -4.929  -8.023  0.00  0.00     0.197 C 
HETATM   13  O           1     -19.868  -3.838  -8.100  0.00  0.00    -0.646 OA
HETATM   14  O           1     -19.841  -6.004  -8.102  0.00  0.00    -0.646 OA
ENDBRANCH   1  12
BRANCH   1  15
HETATM   15  C           1     -22.586  -3.746  -8.540  0.00  0.00     0.094 C 
BRANCH  15  16
HETATM   16  C           1     -22.560  -3.968 -10.021  0.00  0.00     0.028 A 
HETATM   17  N           1     -21.666  -3.386 -10.880  0.00  0.00    -0.354 N 
HETATM   18  C           1     -21.983  -3.839 -12.071  0.00  0.00     0.180 A 
ATOM     19  HN          1     -20.913  -2.739 -10.645  1.00  0.00     0.166 HD
HETATM   20  N           1     -23.050  -4.692 -12.013  0.00  0.00    -0.360 N 
HETATM   21  H           1     -23.494  -5.186 -12.826  0.00  0.00     0.166 HD
HETATM   22  C           1     -23.431  -4.785 -10.702  0.00  0.00     0.114 A 
ENDBRANCH  15  16
ENDBRANCH   1  15
TORSDOF 6
ENDMDL
MODEL 8
REMARK VINA RESULT:      -5.6     11.344     13.213
REMARK  6 active torsions:
REMARK  status: ('A' for Active; 'I' for Inactive)
REMARK    1  A    between atoms: N_3  and  C_16 
REMARK       I    between atoms: N_3  and  C_4 
REMARK    2  A    between atoms: C_4  and  C_5 
REMARK    3  A    between atoms: C_5  and  N_7 
REMARK    4  A    between atoms: C_14  and  C_16 
REMARK    5  A    between atoms: C_16  and  C_18 
REMARK    6  A    between atoms: C_18  and  C_19 
ROOT
HETATM    1  C           1     -34.687  -1.213 -11.939  0.00  0.00     0.191 C 
ENDROOT
BRANCH   1   2
HETATM    2  N           1     -35.364  -2.376 -12.479  0.00  0.00    -0.344 N 
HETATM    3  C           1     -35.069  -3.624 -12.000  0.00  0.00     0.248 C 
HETATM    4  O           1     -35.687  -4.075 -11.067  0.00  0.00    -0.271 OA
HETATM    5  H           1     -36.055  -2.264 -13.211  0.00  0.00     0.163 HD
BRANCH   3   6
HETATM    6  C           1     -33.970  -4.437 -12.641  0.00  0.00     0.270 C 
HETATM    7  C           1     -32.662  -4.197 -11.898  0.00  0.00     0.050 C 
BRANCH   6   8
HETATM    8  N           1     -33.813  -4.023 -14.074  0.00  0.00    -0.067 N 
HETATM    9  H           1     -34.601  -4.412 -14.639  0.00  0.00     0.275 HD
HETATM   10  H           1     -33.823  -2.979 -14.138  0.00  0.00     0.275 HD
HETATM   11  H           1     -32.906  -4.387 -14.445  0.00  0.00     0.275 HD
ENDBRANCH   6   8
ENDBRANCH   3   6
ENDBRANCH   1   2
BRANCH   1  12
HETATM   12  C           1     -34.736  -1.258 -10.431  0.00  0.00     0.197 C 
HETATM   13  O           1     -35.785  -0.934  -9.831  0.00  0.00    -0.646 OA
HETATM   14  O           1     -33.730  -1.617  -9.783  0.00  0.00    -0.646 OA
ENDBRANCH   1  12
BRANCH   1  15
HETATM   15  C           1     -35.379   0.051 -12.432  0.00  0.00     0.094 C 
BRANCH  15  16
HETATM   16  C           1     -35.812  -0.139 -13.854  0.00  0.00     0.028 A 
HETATM   17  N           1     -34.968  -0.425 -14.894  0.00  0.00    -0.354 N 
HETATM   18  C           1     -35.738  -0.511 -15.953  0.00  0.00     0.180 A 
ATOM     19  HN          1     -33.955  -0.546 -14.853  1.00  0.00     0.166 HD
HETATM   20  N           1     -37.050  -0.290 -15.637  0.00  0.00    -0.360 N 
HETATM   21  H           1     -37.860  -0.303 -16.304  0.00  0.00     0.166 HD
HETATM   22  C           1     -37.112  -0.051 -14.291  0.00  0.00     0.114 A 
ENDBRANCH  15  16
ENDBRANCH   1  15
TORSDOF 6
ENDMDL
MODEL 9
REMARK VINA RESULT:      -5.5      1.988      3.653
REMARK  6 active torsions:
REMARK  status: ('A' for Active; 'I' for Inactive)
REMARK    1  A    between atoms: N_3  and  C_16 
REMARK       I    between atoms: N_3  and  C_4 
REMARK    2  A    between atoms: C_4  and  C_5 
REMARK    3  A    between atoms: C_5  and  N_7 
REMARK    4  A    between atoms: C_14  and  C_16 
REMARK    5  A    between atoms: C_16  and  C_18 
REMARK    6  A    between atoms: C_18  and  C_19 
ROOT
HETATM    1  C           1     -20.999  -4.626  -8.911  0.00  0.00     0.191 C 
ENDROOT
BRANCH   1   2
HETATM    2  N           1     -21.911  -3.741  -8.214  0.00  0.00    -0.344 N 
HETATM    3  C           1     -23.129  -4.205  -7.795  0.00  0.00     0.248 C 
HETATM    4  O           1     -23.245  -4.694  -6.697  0.00  0.00    -0.271 OA
HETATM    5  H           1     -21.648  -2.780  -8.037  0.00  0.00     0.163 HD
BRANCH   3   6
HETATM    6  C           1     -24.329  -4.105  -8.707  0.00  0.00     0.270 C 
HETATM    7  C           1     -24.303  -5.254  -9.706  0.00  0.00     0.050 C 
BRANCH   6   8
HETATM    8  N           1     -24.287  -2.800  -9.445  0.00  0.00    -0.067 N 
HETATM    9  H           1     -25.075  -2.761 -10.129  0.00  0.00     0.275 HD
HETATM   10  H           1     -24.379  -2.012  -8.764  0.00  0.00     0.275 HD
HETATM   11  H           1     -23.379  -2.717  -9.954  0.00  0.00     0.275 HD
ENDBRANCH   6   8
ENDBRANCH   3   6
ENDBRANCH   1   2
BRANCH   1  12
HETATM   12  C           1     -19.955  -5.134  -7.946  0.00  0.00     0.197 C 
HETATM   13  O           1     -20.072  -6.273  -7.443  0.00  0.00    -0.646 OA
HETATM   14  O           1     -18.976  -4.417  -7.650  0.00  0.00    -0.646 OA
ENDBRANCH   1  12
BRANCH   1  15
HETATM   15  C           1     -20.318  -3.865 -10.041  0.00  0.00     0.094 C 
BRANCH  15  16
HETATM   16  C           1     -21.287  -3.667 -11.166  0.00  0.00     0.028 A 
HETATM   17  N           1     -21.602  -2.453 -11.717  0.00  0.00    -0.354 N 
HETATM   18  C           1     -22.476  -2.717 -12.661  0.00  0.00     0.180 A 
ATOM     19  HN          1     -21.236  -1.538 -11.451  1.00  0.00     0.166 HD
HETATM   20  N           1     -22.737  -4.057 -12.740  0.00  0.00    -0.360 N 
HETATM   21  H           1     -23.397  -4.522 -13.410  0.00  0.00     0.166 HD
HETATM   22  C           1     -21.980  -4.679 -11.786  0.00  0.00     0.114 A 
ENDBRANCH  15  16
ENDBRANCH   1  15
TORSDOF 6
ENDMDL
