MODEL 1
REMARK VINA RESULT:      -6.5      0.000      0.000
REMARK  7 active torsions:
REMARK  status: ('A' for Active; 'I' for Inactive)
REMARK    1  A    between atoms: C_2  and  C_4 
REMARK    2  A    between atoms: C_4  and  C_11 
REMARK    3  A    between atoms: C_4  and  N_21 
REMARK    4  A    between atoms: N_9  and  C_19 
REMARK       I    between atoms: N_16  and  C_17 
REMARK    5  A    between atoms: C_17  and  C_18 
REMARK    6  A    between atoms: C_18  and  C_19 
REMARK    7  A    between atoms: C_19  and  C_20 
REMARK       I    between atoms: C_20  and  N_21 
ROOT
HETATM    1  C           1     -21.150  -5.762  -6.768  0.00  0.00     0.283 C 
ENDROOT
BRANCH   1   2
HETATM    2  N           1     -19.862  -6.282  -7.330  0.00  0.00    -0.066 N 
HETATM    3  H           1     -19.913  -6.286  -8.375  0.00  0.00     0.275 HD
HETATM    4  H           1     -19.074  -5.667  -7.023  0.00  0.00     0.275 HD
HETATM    5  H           1     -19.699  -7.256  -6.987  0.00  0.00     0.275 HD
ENDBRANCH   1   2
BRANCH   1   6
HETATM    6  C           1     -20.919  -5.266  -5.346  0.00  0.00     0.145 C 
BRANCH   6   7
HETATM    7  C           1     -21.271  -6.359  -4.367  0.00  0.00     0.217 C 
HETATM    8  O           1     -21.022  -7.511  -4.634  0.00  0.00    -0.274 OA
HETATM    9  N           1     -21.871  -6.046  -3.178  0.00  0.00    -0.370 N 
HETATM   10  H           1     -22.079  -5.081  -2.954  0.00  0.00     0.159 HD
HETATM   11  H           1     -22.107  -6.780  -2.521  0.00  0.00     0.159 HD
ENDBRANCH   6   7
ENDBRANCH   1   6
BRANCH   1  12
HETATM   12  C           1     -21.649  -4.624  -7.623  0.00  0.00     0.249 C 
HETATM   13  O           1     -21.611  -3.491  -7.205  0.00  0.00    -0.271 OA
HETATM   14  N           1     -22.146  -4.874  -8.874  0.00  0.00    -0.344 N 
HETATM   15  H           1     -22.178  -5.823  -9.225  0.00  0.00     0.163 HD
BRANCH  14  16
HETATM   16  C           1     -22.626  -3.780  -9.696  0.00  0.00     0.189 C 
BRANCH  16  17
HETATM   17  C           1     -22.057  -3.918 -11.103  0.00  0.00     0.010 C 
HETATM   18  C           1     -22.451  -2.701 -11.930  0.00  0.00     0.012 C 
HETATM   19  C           1     -20.540  -4.013 -11.029  0.00  0.00     0.012 C 
ENDBRANCH  16  17
BRANCH  16  20
HETATM   20  C           1     -24.133  -3.819  -9.756  0.00  0.00     0.197 C 
HETATM   21  O           1     -24.719  -4.878 -10.072  0.00  0.00    -0.646 OA
HETATM   22  O           1     -24.796  -2.794  -9.490  0.00  0.00    -0.646 OA
ENDBRANCH  16  20
ENDBRANCH  14  16
ENDBRANCH   1  12
TORSDOF 7
ENDMDL
MODEL 2
REMARK VINA RESULT:      -6.3     13.524     14.729
REMARK  7 active torsions:
REMARK  status: ('A' for Active; 'I' for Inactive)
REMARK    1  A    between atoms: C_2  and  C_4 
REMARK    2  A    between atoms: C_4  and  C_11 
REMARK    3  A    between atoms: C_4  and  N_21 
REMARK    4  A    between atoms: N_9  and  C_19 
REMARK       I    between atoms: N_16  and  C_17 
REMARK    5  A    between atoms: C_17  and  C_18 
REMARK    6  A    between atoms: C_18  and  C_19 
REMARK    7  A    between atoms: C_19  and  C_20 
REMARK       I    between atoms: C_20  and  N_21 
ROOT
HETATM    1  C           1     -34.393  -2.678 -11.771  0.00  0.00     0.283 C 
ENDROOT
BRANCH   1   2
HETATM    2  N           1     -33.923  -1.876 -10.595  0.00  0.00    -0.066 N 
HETATM    3  H           1     -34.440  -0.968 -10.563  0.00  0.00     0.275 HD
HETATM    4  H           1     -34.103  -2.411  -9.715  0.00  0.00     0.275 HD
HETATM    5  H           1     -32.899  -1.689 -10.688  0.00  0.00     0.275 HD
ENDBRANCH   1   2
BRANCH   1   6
HETATM    6  C           1     -35.192  -3.879 -11.279  0.00  0.00     0.145 C 
BRANCH   6   7
HETATM    7  C           1     -34.752  -5.116 -12.023  0.00  0.00     0.217 C 
HETATM    8  O           1     -35.173  -5.334 -13.135  0.00  0.00    -0.274 OA
HETATM    9  N           1     -33.875  -5.990 -11.440  0.00  0.00    -0.370 N 
HETATM   10  H           1     -33.521  -5.807 -10.509  0.00  0.00     0.159 HD
HETATM   11  H           1     -33.579  -6.820 -11.940  0.00  0.00     0.159 HD
ENDBRANCH   6   7
ENDBRANCH   1   6
BRANCH   1  12
HETATM   12  C           1     -35.267  -1.818 -12.650  0.00  0.00     0.249 C 
HETATM   13  O           1     -36.386  -1.532 -12.295  0.00  0.00    -0.271 OA
HETATM   14  N           1     -34.793  -1.360 -13.850  0.00  0.00    -0.344 N 
HETATM   15  H           1     -33.856  -1.599 -14.147  0.00  0.00     0.163 HD
BRANCH  14  16
HETATM   16  C           1     -35.633  -0.532 -14.694  0.00  0.00     0.189 C 
BRANCH  16  17
HETATM   17  C           1     -34.955   0.813 -14.920  0.00  0.00     0.010 C 
HETATM   18  C           1     -35.912   1.747 -15.648  0.00  0.00     0.012 C 
HETATM   19  C           1     -34.574   1.420 -13.577  0.00  0.00     0.012 C 
ENDBRANCH  16  17
BRANCH  16  20
HETATM   20  C           1     -35.844  -1.219 -16.020  0.00  0.00     0.197 C 
HETATM   21  O           1     -36.997  -1.322 -16.494  0.00  0.00    -0.646 OA
HETATM   22  O           1     -34.868  -1.686 -16.645  0.00  0.00    -0.646 OA
ENDBRANCH  16  20
ENDBRANCH  14  16
ENDBRANCH   1  12
TORSDOF 7
ENDMDL
MODEL 3
REMARK VINA RESULT:      -6.2     12.354     13.794
REMARK  7 active torsions:
REMARK  status: ('A' for Active; 'I' for Inactive)
REMARK    1  A    between atoms: C_2  and  C_4 
REMARK    2  A    between atoms: C_4  and  C_11 
REMARK    3  A    between atoms: C_4  and  N_21 
REMARK    4  A    between atoms: N_9  and  C_19 
REMARK       I    between atoms: N_16  and  C_17 
REMARK    5  A    between atoms: C_17  and  C_18 
REMARK    6  A    between atoms: C_18  and  C_19 
REMARK    7  A    between atoms: C_19  and  C_20 
REMARK       I    between atoms: C_20  and  N_21 
ROOT
HETATM    1  C           1     -33.784  -4.111 -11.838  0.00  0.00     0.283 C 
ENDROOT
BRANCH   1   2
HETATM    2  N           1     -32.367  -4.317 -12.282  0.00  0.00    -0.066 N 
HETATM    3  H           1     -31.730  -3.723 -11.703  0.00  0.00     0.275 HD
HETATM    4  H           1     -32.108  -5.323 -12.165  0.00  0.00     0.275 HD
HETATM    5  H           1     -32.274  -4.047 -13.288  0.00  0.00     0.275 HD
ENDBRANCH   1   2
BRANCH   1   6
HETATM    6  C           1     -34.019  -4.856 -10.530  0.00  0.00     0.145 C 
BRANCH   6   7
HETATM    7  C           1     -34.571  -6.230 -10.825  0.00  0.00     0.217 C 
HETATM    8  O           1     -34.687  -7.038  -9.934  0.00  0.00    -0.274 OA
HETATM    9  N           1     -34.940  -6.560 -12.100  0.00  0.00    -0.370 N 
HETATM   10  H           1     -34.844  -5.883 -12.847  0.00  0.00     0.159 HD
HETATM   11  H           1     -35.311  -7.481 -12.298  0.00  0.00     0.159 HD
ENDBRANCH   6   7
ENDBRANCH   1   6
BRANCH   1  12
HETATM   12  C           1     -34.038  -2.639 -11.631  0.00  0.00     0.249 C 
HETATM   13  O           1     -33.406  -2.027 -10.802  0.00  0.00    -0.271 OA
HETATM   14  N           1     -34.983  -1.994 -12.382  0.00  0.00    -0.344 N 
HETATM   15  H           1     -35.513  -2.506 -13.077  0.00  0.00     0.163 HD
BRANCH  14  16
HETATM   16  C           1     -35.226  -0.578 -12.184  0.00  0.00     0.189 C 
BRANCH  16  17
HETATM   17  C           1     -35.593   0.064 -13.516  0.00  0.00     0.010 C 
HETATM   18  C           1     -34.635   1.212 -13.805  0.00  0.00     0.012 C 
HETATM   19  C           1     -35.492  -0.975 -14.624  0.00  0.00     0.012 C 
ENDBRANCH  16  17
BRANCH  16  20
HETATM   20  C           1     -36.361  -0.396 -11.207  0.00  0.00     0.197 C 
HETATM   21  O           1     -37.330  -1.187 -11.218  0.00  0.00    -0.646 OA
HETATM   22  O           1     -36.335   0.547 -10.387  0.00  0.00    -0.646 OA
ENDBRANCH  16  20
ENDBRANCH  14  16
ENDBRANCH   1  12
TORSDOF 7
ENDMDL
MODEL 4
REMARK VINA RESULT:      -6.1      3.026      6.486
REMARK  7 active torsions:
REMARK  status: ('A' for Active; 'I' for Inactive)
REMARK    1  A    between atoms: C_2  and  C_4 
REMARK    2  A    between atoms: C_4  and  C_11 
REMARK    3  A    between atoms: C_4  and  N_21 
REMARK    4  A    between atoms: N_9  and  C_19 
REMARK       I    between atoms: N_16  and  C_17 
REMARK    5  A    between atoms: C_17  and  C_18 
REMARK    6  A    between atoms: C_18  and  C_19 
REMARK    7  A    between atoms: C_19  and  C_20 
REMARK       I    between atoms: C_20  and  N_21 
ROOT
HETATM    1  C           1     -23.875  -3.874 -12.085  0.00  0.00     0.283 C 
ENDROOT
BRANCH   1   2
HETATM    2  N           1     -25.119  -3.120 -11.723  0.00  0.00    -0.066 N 
HETATM    3  H           1     -24.864  -2.273 -11.166  0.00  0.00     0.275 HD
HETATM    4  H           1     -25.614  -2.826 -12.596  0.00  0.00     0.275 HD
HETATM    5  H           1     -25.747  -3.733 -11.156  0.00  0.00     0.275 HD
ENDBRANCH   1   2
BRANCH   1   6
HETATM    6  C           1     -22.832  -2.904 -12.624  0.00  0.00     0.145 C 
BRANCH   6   7
HETATM    7  C           1     -23.178  -2.532 -14.045  0.00  0.00     0.217 C 
HETATM    8  O           1     -24.171  -1.883 -14.275  0.00  0.00    -0.274 OA
HETATM    9  N           1     -22.367  -2.929 -15.074  0.00  0.00    -0.370 N 
HETATM   10  H           1     -21.534  -3.473 -14.882  0.00  0.00     0.159 HD
HETATM   11  H           1     -22.598  -2.679 -16.027  0.00  0.00     0.159 HD
ENDBRANCH   6   7
ENDBRANCH   1   6
BRANCH   1  12
HETATM   12  C           1     -23.333  -4.566 -10.859  0.00  0.00     0.249 C 
HETATM   13  O           1     -23.806  -5.618 -10.500  0.00  0.00    -0.271 OA
HETATM   14  N           1     -22.304  -4.002 -10.152  0.00  0.00    -0.344 N 
HETATM   15  H           1     -21.908  -3.121 -10.453  0.00  0.00     0.163 HD
BRANCH  14  16
HETATM   16  C           1     -21.783  -4.668  -8.974  0.00  0.00     0.189 C 
BRANCH  16  17
HETATM   17  C           1     -20.263  -4.571  -8.970  0.00  0.00     0.010 C 
HETATM   18  C           1     -19.693  -5.591  -7.992  0.00  0.00     0.012 C 
HETATM   19  C           1     -19.732  -4.855 -10.368  0.00  0.00     0.012 C 
ENDBRANCH  16  17
BRANCH  16  20
HETATM   20  C           1     -22.334  -4.003  -7.737  0.00  0.00     0.197 C 
HETATM   21  O           1     -21.695  -3.079  -7.186  0.00  0.00    -0.646 OA
HETATM   22  O           1     -23.428  -4.376  -7.262  0.00  0.00    -0.646 OA
ENDBRANCH  16  20
ENDBRANCH  14  16
ENDBRANCH   1  12
TORSDOF 7
ENDMDL
MODEL 5
REMARK VINA RESULT:      -5.7      2.153      6.105
REMARK  7 active torsions:
REMARK  status: ('A' for Active; 'I' for Inactive)
REMARK    1  A    between atoms: C_2  and  C_4 
REMARK    2  A    between atoms: C_4  and  C_11 
REMARK    3  A    between atoms: C_4  and  N_21 
REMARK    4  A    between atoms: N_9  and  C_19 
REMARK       I    between atoms: N_16  and  C_17 
REMARK    5  A    between atoms: C_17  and  C_18 
REMARK    6  A    between atoms: C_18  and  C_19 
REMARK    7  A    between atoms: C_19  and  C_20 
REMARK       I    between atoms: C_20  and  N_21 
ROOT
HETATM    1  C           1     -23.406  -4.147  -9.906  0.00  0.00     0.283 C 
ENDROOT
BRANCH   1   2
HETATM    2  N           1     -24.217  -3.421  -8.875  0.00  0.00    -0.066 N 
HETATM    3  H           1     -24.095  -3.884  -7.946  0.00  0.00     0.275 HD
HETATM    4  H           1     -23.895  -2.428  -8.814  0.00  0.00     0.275 HD
HETATM    5  H           1     -25.227  -3.445  -9.146  0.00  0.00     0.275 HD
ENDBRANCH   1   2
BRANCH   1   6
HETATM    6  C           1     -23.056  -3.191 -11.040  0.00  0.00     0.145 C 
BRANCH   6   7
HETATM    7  C           1     -24.074  -3.325 -12.145  0.00  0.00     0.217 C 
HETATM    8  O           1     -25.225  -3.014 -11.947  0.00  0.00    -0.274 OA
HETATM    9  N           1     -23.696  -3.798 -13.372  0.00  0.00    -0.370 N 
HETATM   10  H           1     -22.731  -4.058 -13.539  0.00  0.00     0.159 HD
HETATM   11  H           1     -24.379  -3.888 -14.114  0.00  0.00     0.159 HD
ENDBRANCH   6   7
ENDBRANCH   1   6
BRANCH   1  12
HETATM   12  C           1     -22.138  -4.666  -9.275  0.00  0.00     0.249 C 
HETATM   13  O           1     -21.117  -4.712  -9.919  0.00  0.00    -0.271 OA
HETATM   14  N           1     -22.143  -5.084  -7.971  0.00  0.00    -0.344 N 
HETATM   15  H           1     -22.999  -5.045  -7.431  0.00  0.00     0.163 HD
BRANCH  14  16
HETATM   16  C           1     -20.925  -5.582  -7.364  0.00  0.00     0.189 C 
BRANCH  16  17
HETATM   17  C           1     -20.144  -4.419  -6.766  0.00  0.00     0.010 C 
HETATM   18  C           1     -20.029  -4.607  -5.259  0.00  0.00     0.012 C 
HETATM   19  C           1     -18.752  -4.372  -7.381  0.00  0.00     0.012 C 
ENDBRANCH  16  17
BRANCH  16  20
HETATM   20  C           1     -21.272  -6.568  -6.276  0.00  0.00     0.197 C 
HETATM   21  O           1     -22.279  -6.379  -5.559  0.00  0.00    -0.646 OA
HETATM   22  O           1     -20.554  -7.574  -6.092  0.00  0.00    -0.646 OA
ENDBRANCH  16  20
ENDBRANCH  14  16
ENDBRANCH   1  12
TORSDOF 7
ENDMDL
MODEL 6
REMARK VINA RESULT:      -5.2     17.970     20.034
REMARK  7 active torsions:
REMARK  status: ('A' for Active; 'I' for Inactive)
REMARK    1  A    between atoms: C_2  and  C_4 
REMARK    2  A    between atoms: C_4  and  C_11 
REMARK    3  A    between atoms: C_4  and  N_21 
REMARK    4  A    between atoms: N_9  and  C_19 
REMARK       I    between atoms: N_16  and  C_17 
REMARK    5  A    between atoms: C_17  and  C_18 
REMARK    6  A    between atoms: C_18  and  C_19 
REMARK    7  A    between atoms: C_19  and  C_20 
REMARK       I    between atoms: C_20  and  N_21 
ROOT
HETATM    1  C           1     -12.064   9.111 -19.826  0.00  0.00     0.283 C 
ENDROOT
BRANCH   1   2
HETATM    2  N           1     -13.006   9.430 -18.704  0.00  0.00    -0.066 N 
HETATM    3  H           1     -12.842   8.768 -17.912  0.00  0.00     0.275 HD
HETATM    4  H           1     -12.841  10.409 -18.379  0.00  0.00     0.275 HD
HETATM    5  H           1     -13.992   9.334 -19.039  0.00  0.00     0.275 HD
ENDBRANCH   1   2
BRANCH   1   6
HETATM    6  C           1     -10.673   8.849 -19.261  0.00  0.00     0.145 C 
BRANCH   6   7
HETATM    7  C           1      -9.673   8.800 -20.390  0.00  0.00     0.217 C 
HETATM    8  O           1      -9.403   9.807 -21.002  0.00  0.00    -0.274 OA
HETATM    9  N           1      -9.070   7.617 -20.720  0.00  0.00    -0.370 N 
HETATM   10  H           1      -9.295   6.773 -20.207  0.00  0.00     0.159 HD
HETATM   11  H           1      -8.398   7.584 -21.477  0.00  0.00     0.159 HD
ENDBRANCH   6   7
ENDBRANCH   1   6
BRANCH   1  12
HETATM   12  C           1     -12.550   7.883 -20.556  0.00  0.00     0.249 C 
HETATM   13  O           1     -12.932   7.971 -21.699  0.00  0.00    -0.271 OA
HETATM   14  N           1     -12.557   6.668 -19.925  0.00  0.00    -0.344 N 
HETATM   15  H           1     -12.236   6.594 -18.967  0.00  0.00     0.163 HD
BRANCH  14  16
HETATM   16  C           1     -13.023   5.488 -20.627  0.00  0.00     0.189 C 
BRANCH  16  17
HETATM   17  C           1     -12.335   4.255 -20.057  0.00  0.00     0.010 C 
HETATM   18  C           1     -12.466   3.101 -21.042  0.00  0.00     0.012 C 
HETATM   19  C           1     -10.862   4.559 -19.822  0.00  0.00     0.012 C 
ENDBRANCH  16  17
BRANCH  16  20
HETATM   20  C           1     -14.516   5.358 -20.454  0.00  0.00     0.197 C 
HETATM   21  O           1     -15.007   5.272 -19.307  0.00  0.00    -0.646 OA
HETATM   22  O           1     -15.263   5.336 -21.456  0.00  0.00    -0.646 OA
ENDBRANCH  16  20
ENDBRANCH  14  16
ENDBRANCH   1  12
TORSDOF 7
ENDMDL
MODEL 7
REMARK VINA RESULT:      -5.2      4.211      8.359
REMARK  7 active torsions:
REMARK  status: ('A' for Active; 'I' for Inactive)
REMARK    1  A    between atoms: C_2  and  C_4 
REMARK    2  A    between atoms: C_4  and  C_11 
REMARK    3  A    between atoms: C_4  and  N_21 
REMARK    4  A    between atoms: N_9  and  C_19 
REMARK       I    between atoms: N_16  and  C_17 
REMARK    5  A    between atoms: C_17  and  C_18 
REMARK    6  A    between atoms: C_18  and  C_19 
REMARK    7  A    between atoms: C_19  and  C_20 
REMARK       I    between atoms: C_20  and  N_21 
ROOT
HETATM    1  C           1     -20.240  -8.110  -4.688  0.00  0.00     0.283 C 
ENDROOT
BRANCH   1   2
HETATM    2  N           1     -20.818  -9.110  -5.644  0.00  0.00    -0.066 N 
HETATM    3  H           1     -21.214  -9.916  -5.108  0.00  0.00     0.275 HD
HETATM    4  H           1     -21.576  -8.658  -6.204  0.00  0.00     0.275 HD
HETATM    5  H           1     -20.067  -9.454  -6.285  0.00  0.00     0.275 HD
ENDBRANCH   1   2
BRANCH   1   6
HETATM    6  C           1     -21.016  -6.803  -4.791  0.00  0.00     0.145 C 
BRANCH   6   7
HETATM    7  C           1     -20.530  -6.022  -5.988  0.00  0.00     0.217 C 
HETATM    8  O           1     -20.638  -6.489  -7.098  0.00  0.00    -0.274 OA
HETATM    9  N           1     -19.969  -4.785  -5.817  0.00  0.00    -0.370 N 
HETATM   10  H           1     -19.880  -4.394  -4.888  0.00  0.00     0.159 HD
HETATM   11  H           1     -19.644  -4.261  -6.620  0.00  0.00     0.159 HD
ENDBRANCH   6   7
ENDBRANCH   1   6
BRANCH   1  12
HETATM   12  C           1     -20.338  -8.644  -3.281  0.00  0.00     0.249 C 
HETATM   13  O           1     -19.358  -9.092  -2.735  0.00  0.00    -0.271 OA
HETATM   14  N           1     -21.537  -8.621  -2.621  0.00  0.00    -0.344 N 
HETATM   15  H           1     -22.359  -8.246  -3.079  0.00  0.00     0.163 HD
BRANCH  14  16
HETATM   16  C           1     -21.632  -9.134  -1.268  0.00  0.00     0.189 C 
BRANCH  16  17
HETATM   17  C           1     -22.418  -8.153  -0.409  0.00  0.00     0.010 C 
HETATM   18  C           1     -21.823  -8.117   0.993  0.00  0.00     0.012 C 
HETATM   19  C           1     -22.346  -6.764  -1.029  0.00  0.00     0.012 C 
ENDBRANCH  16  17
BRANCH  16  20
HETATM   20  C           1     -22.337 -10.468  -1.285  0.00  0.00     0.197 C 
HETATM   21  O           1     -23.541 -10.542  -0.956  0.00  0.00    -0.646 OA
HETATM   22  O           1     -21.718 -11.498  -1.627  0.00  0.00    -0.646 OA
ENDBRANCH  16  20
ENDBRANCH  14  16
ENDBRANCH   1  12
TORSDOF 7
ENDMDL
MODEL 8
REMARK VINA RESULT:      -4.9     17.959     19.902
REMARK  7 active torsions:
REMARK  status: ('A' for Active; 'I' for Inactive)
REMARK    1  A    between atoms: C_2  and  C_4 
REMARK    2  A    between atoms: C_4  and  C_11 
REMARK    3  A    between atoms: C_4  and  N_21 
REMARK    4  A    between atoms: N_9  and  C_19 
REMARK       I    between atoms: N_16  and  C_17 
REMARK    5  A    between atoms: C_17  and  C_18 
REMARK    6  A    between atoms: C_18  and  C_19 
REMARK    7  A    between atoms: C_19  and  C_20 
REMARK       I    between atoms: C_20  and  N_21 
ROOT
HETATM    1  C           1     -10.763   8.043 -20.176  0.00  0.00     0.283 C 
ENDROOT
BRANCH   1   2
HETATM    2  N           1      -9.309   7.872 -20.501  0.00  0.00    -0.066 N 
HETATM    3  H           1      -8.819   7.435 -19.688  0.00  0.00     0.275 HD
HETATM    4  H           1      -9.210   7.255 -21.339  0.00  0.00     0.275 HD
HETATM    5  H           1      -8.884   8.806 -20.703  0.00  0.00     0.275 HD
ENDBRANCH   1   2
BRANCH   1   6
HETATM    6  C           1     -11.210   9.444 -20.576  0.00  0.00     0.145 C 
BRANCH   6   7
HETATM    7  C           1     -12.585   9.712 -20.017  0.00  0.00     0.217 C 
HETATM    8  O           1     -13.485  10.038 -20.755  0.00  0.00    -0.274 OA
HETATM    9  N           1     -12.815   9.586 -18.673  0.00  0.00    -0.370 N 
HETATM   10  H           1     -12.062   9.312 -18.054  0.00  0.00     0.159 HD
HETATM   11  H           1     -13.739   9.765 -18.298  0.00  0.00     0.159 HD
ENDBRANCH   6   7
ENDBRANCH   1   6
BRANCH   1  12
HETATM   12  C           1     -11.571   7.021 -20.935  0.00  0.00     0.249 C 
HETATM   13  O           1     -11.659   7.091 -22.139  0.00  0.00    -0.271 OA
HETATM   14  N           1     -12.207   6.012 -20.262  0.00  0.00    -0.344 N 
HETATM   15  H           1     -12.134   5.953 -19.254  0.00  0.00     0.163 HD
BRANCH  14  16
HETATM   16  C           1     -12.984   5.029 -20.992  0.00  0.00     0.189 C 
BRANCH  16  17
HETATM   17  C           1     -12.634   3.634 -20.491  0.00  0.00     0.010 C 
HETATM   18  C           1     -13.306   2.594 -21.377  0.00  0.00     0.012 C 
HETATM   19  C           1     -11.124   3.443 -20.537  0.00  0.00     0.012 C 
ENDBRANCH  16  17
BRANCH  16  20
HETATM   20  C           1     -14.454   5.288 -20.774  0.00  0.00     0.197 C 
HETATM   21  O           1     -15.196   5.536 -21.750  0.00  0.00    -0.646 OA
HETATM   22  O           1     -14.930   5.257 -19.619  0.00  0.00    -0.646 OA
ENDBRANCH  16  20
ENDBRANCH  14  16
ENDBRANCH   1  12
TORSDOF 7
ENDMDL
MODEL 9
REMARK VINA RESULT:      -4.9      4.338      8.883
REMARK  7 active torsions:
REMARK  status: ('A' for Active; 'I' for Inactive)
REMARK    1  A    between atoms: C_2  and  C_4 
REMARK    2  A    between atoms: C_4  and  C_11 
REMARK    3  A    between atoms: C_4  and  N_21 
REMARK    4  A    between atoms: N_9  and  C_19 
REMARK       I    between atoms: N_16  and  C_17 
REMARK    5  A    between atoms: C_17  and  C_18 
REMARK    6  A    between atoms: C_18  and  C_19 
REMARK    7  A    between atoms: C_19  and  C_20 
REMARK       I    between atoms: C_20  and  N_21 
ROOT
HETATM    1  C           1     -21.651  -7.609  -4.177  0.00  0.00     0.283 C 
ENDROOT
BRANCH   1   2
HETATM    2  N           1     -22.423  -6.326  -4.259  0.00  0.00    -0.066 N 
HETATM    3  H           1     -23.313  -6.487  -4.784  0.00  0.00     0.275 HD
HETATM    4  H           1     -22.644  -5.991  -3.294  0.00  0.00     0.275 HD
HETATM    5  H           1     -21.851  -5.606  -4.757  0.00  0.00     0.275 HD
ENDBRANCH   1   2
BRANCH   1   6
HETATM    6  C           1     -20.390  -7.496  -5.023  0.00  0.00     0.145 C 
BRANCH   6   7
HETATM    7  C           1     -20.474  -6.265  -5.892  0.00  0.00     0.217 C 
HETATM    8  O           1     -20.159  -5.187  -5.445  0.00  0.00    -0.274 OA
HETATM    9  N           1     -20.907  -6.369  -7.186  0.00  0.00    -0.370 N 
HETATM   10  H           1     -21.170  -7.272  -7.561  0.00  0.00     0.159 HD
HETATM   11  H           1     -20.963  -5.543  -7.769  0.00  0.00     0.159 HD
ENDBRANCH   6   7
ENDBRANCH   1   6
BRANCH   1  12
HETATM   12  C           1     -21.273  -7.877  -2.741  0.00  0.00     0.249 C 
HETATM   13  O           1     -20.708  -7.026  -2.096  0.00  0.00    -0.271 OA
HETATM   14  N           1     -21.569  -9.084  -2.168  0.00  0.00    -0.344 N 
HETATM   15  H           1     -22.042  -9.798  -2.709  0.00  0.00     0.163 HD
BRANCH  14  16
HETATM   16  C           1     -21.206  -9.342  -0.788  0.00  0.00     0.189 C 
BRANCH  16  17
HETATM   17  C           1     -22.466  -9.595   0.028  0.00  0.00     0.010 C 
HETATM   18  C           1     -23.139  -8.267   0.348  0.00  0.00     0.012 C 
HETATM   19  C           1     -23.421 -10.470  -0.772  0.00  0.00     0.012 C 
ENDBRANCH  16  17
BRANCH  16  20
HETATM   20  C           1     -20.310 -10.554  -0.723  0.00  0.00     0.197 C 
HETATM   21  O           1     -19.852 -11.051  -1.775  0.00  0.00    -0.646 OA
HETATM   22  O           1     -20.026 -11.062   0.383  0.00  0.00    -0.646 OA
ENDBRANCH  16  20
ENDBRANCH  14  16
ENDBRANCH   1  12
TORSDOF 7
ENDMDL
