MODEL 1
REMARK VINA RESULT:      -6.7      0.000      0.000
REMARK  9 active torsions:
REMARK  status: ('A' for Active; 'I' for Inactive)
REMARK    1  A    between atoms: N_1  and  C_20 
REMARK       I    between atoms: N_1  and  C_19 
REMARK    2  A    between atoms: N_7  and  C_18 
REMARK    3  A    between atoms: C_10  and  C_11 
REMARK       I    between atoms: C_10  and  N_16 
REMARK    4  A    between atoms: C_11  and  C_17 
REMARK       I    between atoms: C_12  and  N_15 
REMARK    5  A    between atoms: C_12  and  C_14 
REMARK    6  A    between atoms: C_14  and  C_20 
REMARK    7  A    between atoms: C_17  and  C_18 
REMARK    8  A    between atoms: C_18  and  C_19 
REMARK    9  A    between atoms: C_20  and  C_21 
ROOT
HETATM    1  N           1     -35.261  -1.864 -12.358  0.00  0.00    -0.344 N 
HETATM    2  O           1     -33.898  -2.327 -10.651  0.00  0.00    -0.271 OA
HETATM    3  C           1     -34.545  -2.738 -11.584  0.00  0.00     0.249 C 
HETATM    4  H           1     -35.803  -2.207 -13.140  0.00  0.00     0.163 HD
ENDROOT
BRANCH   3   5
HETATM    5  C           1     -34.564  -4.214 -11.899  0.00  0.00     0.275 C 
BRANCH   5   6
HETATM    6  N           1     -33.470  -4.530 -12.875  0.00  0.00    -0.066 N 
HETATM    7  H           1     -32.949  -3.654 -13.111  0.00  0.00     0.275 HD
HETATM    8  H           1     -32.813  -5.222 -12.450  0.00  0.00     0.275 HD
HETATM    9  H           1     -33.885  -4.931 -13.746  0.00  0.00     0.275 HD
ENDBRANCH   5   6
BRANCH   5  10
HETATM   10  C           1     -34.346  -5.009 -10.618  0.00  0.00     0.052 C 
BRANCH  10  11
HETATM   11  C           1     -33.599  -6.297 -10.940  0.00  0.00     0.105 C 
BRANCH  11  12
HETATM   12  C           1     -34.253  -7.452 -10.222  0.00  0.00     0.215 C 
HETATM   13  O           1     -35.280  -7.278  -9.608  0.00  0.00    -0.274 OA
HETATM   14  N           1     -33.685  -8.696 -10.266  0.00  0.00    -0.370 N 
HETATM   15  H           1     -34.123  -9.470  -9.784  0.00  0.00     0.159 HD
HETATM   16  H           1     -32.825  -8.841 -10.780  0.00  0.00     0.159 HD
ENDBRANCH  11  12
ENDBRANCH  10  11
ENDBRANCH   5  10
ENDBRANCH   3   5
BRANCH   1  17
HETATM   17  C           1     -35.243  -0.446 -12.056  0.00  0.00     0.194 C 
BRANCH  17  18
HETATM   18  C           1     -35.177   0.348 -13.354  0.00  0.00     0.138 C 
BRANCH  18  19
HETATM   19  C           1     -35.866  -0.423 -14.452  0.00  0.00     0.217 C 
HETATM   20  O           1     -35.254  -1.249 -15.086  0.00  0.00    -0.274 OA
HETATM   21  N           1     -37.185  -0.187 -14.731  0.00  0.00    -0.370 N 
HETATM   22  H           1     -37.647  -0.705 -15.468  0.00  0.00     0.159 HD
HETATM   23  H           1     -37.698   0.505 -14.200  0.00  0.00     0.159 HD
ENDBRANCH  18  19
ENDBRANCH  17  18
BRANCH  17  24
HETATM   24  C           1     -36.498  -0.076 -11.303  0.00  0.00     0.197 C 
HETATM   25  O           1     -36.439   0.723 -10.344  0.00  0.00    -0.646 OA
HETATM   26  O           1     -37.597  -0.570 -11.639  0.00  0.00    -0.646 OA
ENDBRANCH  17  24
ENDBRANCH   1  17
TORSDOF 9
ENDMDL
MODEL 2
REMARK VINA RESULT:      -6.5      9.800     11.948
REMARK  9 active torsions:
REMARK  status: ('A' for Active; 'I' for Inactive)
REMARK    1  A    between atoms: N_1  and  C_20 
REMARK       I    between atoms: N_1  and  C_19 
REMARK    2  A    between atoms: N_7  and  C_18 
REMARK    3  A    between atoms: C_10  and  C_11 
REMARK       I    between atoms: C_10  and  N_16 
REMARK    4  A    between atoms: C_11  and  C_17 
REMARK       I    between atoms: C_12  and  N_15 
REMARK    5  A    between atoms: C_12  and  C_14 
REMARK    6  A    between atoms: C_14  and  C_20 
REMARK    7  A    between atoms: C_17  and  C_18 
REMARK    8  A    between atoms: C_18  and  C_19 
REMARK    9  A    between atoms: C_20  and  C_21 
ROOT
HETATM    1  N           1     -27.437  -7.232 -19.121  0.00  0.00    -0.344 N 
HETATM    2  O           1     -28.653  -5.362 -19.017  0.00  0.00    -0.271 OA
HETATM    3  C           1     -28.338  -6.407 -18.501  0.00  0.00     0.249 C 
HETATM    4  H           1     -27.172  -8.107 -18.689  0.00  0.00     0.163 HD
ENDROOT
BRANCH   3   5
HETATM    5  C           1     -28.935  -6.804 -17.173  0.00  0.00     0.275 C 
BRANCH   5   6
HETATM    6  N           1     -27.834  -7.144 -16.213  0.00  0.00    -0.066 N 
HETATM    7  H           1     -27.162  -7.802 -16.671  0.00  0.00     0.275 HD
HETATM    8  H           1     -27.332  -6.271 -15.935  0.00  0.00     0.275 HD
HETATM    9  H           1     -28.240  -7.598 -15.364  0.00  0.00     0.275 HD
ENDBRANCH   5   6
BRANCH   5  10
HETATM   10  C           1     -29.754  -5.647 -16.618  0.00  0.00     0.052 C 
BRANCH  10  11
HETATM   11  C           1     -31.198  -5.773 -17.087  0.00  0.00     0.105 C 
BRANCH  11  12
HETATM   12  C           1     -31.897  -4.446 -16.928  0.00  0.00     0.215 C 
HETATM   13  O           1     -31.380  -3.436 -17.342  0.00  0.00    -0.274 OA
HETATM   14  N           1     -33.119  -4.386 -16.313  0.00  0.00    -0.370 N 
HETATM   15  H           1     -33.588  -3.496 -16.205  0.00  0.00     0.159 HD
HETATM   16  H           1     -33.552  -5.232 -15.965  0.00  0.00     0.159 HD
ENDBRANCH  11  12
ENDBRANCH  10  11
ENDBRANCH   5  10
ENDBRANCH   3   5
BRANCH   1  17
HETATM   17  C           1     -26.863  -6.850 -20.397  0.00  0.00     0.194 C 
BRANCH  17  18
HETATM   18  C           1     -25.529  -6.154 -20.165  0.00  0.00     0.138 C 
BRANCH  18  19
HETATM   19  C           1     -24.795  -6.834 -19.036  0.00  0.00     0.217 C 
HETATM   20  O           1     -25.061  -6.559 -17.890  0.00  0.00    -0.274 OA
HETATM   21  N           1     -23.828  -7.763 -19.309  0.00  0.00    -0.370 N 
HETATM   22  H           1     -23.335  -8.219 -18.551  0.00  0.00     0.159 HD
HETATM   23  H           1     -23.604  -7.993 -20.269  0.00  0.00     0.159 HD
ENDBRANCH  18  19
ENDBRANCH  17  18
BRANCH  17  24
HETATM   24  C           1     -26.647  -8.084 -21.239  0.00  0.00     0.197 C 
HETATM   25  O           1     -27.592  -8.877 -21.439  0.00  0.00    -0.646 OA
HETATM   26  O           1     -25.523  -8.312 -21.737  0.00  0.00    -0.646 OA
ENDBRANCH  17  24
ENDBRANCH   1  17
TORSDOF 9
ENDMDL
MODEL 3
REMARK VINA RESULT:      -6.4     12.763     14.332
REMARK  9 active torsions:
REMARK  status: ('A' for Active; 'I' for Inactive)
REMARK    1  A    between atoms: N_1  and  C_20 
REMARK       I    between atoms: N_1  and  C_19 
REMARK    2  A    between atoms: N_7  and  C_18 
REMARK    3  A    between atoms: C_10  and  C_11 
REMARK       I    between atoms: C_10  and  N_16 
REMARK    4  A    between atoms: C_11  and  C_17 
REMARK       I    between atoms: C_12  and  N_15 
REMARK    5  A    between atoms: C_12  and  C_14 
REMARK    6  A    between atoms: C_14  and  C_20 
REMARK    7  A    between atoms: C_17  and  C_18 
REMARK    8  A    between atoms: C_18  and  C_19 
REMARK    9  A    between atoms: C_20  and  C_21 
ROOT
HETATM    1  N           1     -22.329  -5.023  -8.832  0.00  0.00    -0.344 N 
HETATM    2  O           1     -21.427  -3.658  -7.313  0.00  0.00    -0.271 OA
HETATM    3  C           1     -21.655  -4.791  -7.663  0.00  0.00     0.249 C 
HETATM    4  H           1     -22.520  -5.973  -9.126  0.00  0.00     0.163 HD
ENDROOT
BRANCH   3   5
HETATM    5  C           1     -21.198  -5.951  -6.812  0.00  0.00     0.275 C 
BRANCH   5   6
HETATM    6  N           1     -19.776  -6.288  -7.150  0.00  0.00    -0.066 N 
HETATM    7  H           1     -19.430  -5.635  -7.890  0.00  0.00     0.275 HD
HETATM    8  H           1     -19.183  -6.192  -6.295  0.00  0.00     0.275 HD
HETATM    9  H           1     -19.725  -7.270  -7.503  0.00  0.00     0.275 HD
ENDBRANCH   5   6
BRANCH   5  10
HETATM   10  C           1     -21.294  -5.570  -5.341  0.00  0.00     0.052 C 
BRANCH  10  11
HETATM   11  C           1     -22.137  -6.600  -4.601  0.00  0.00     0.105 C 
BRANCH  11  12
HETATM   12  C           1     -21.719  -6.649  -3.153  0.00  0.00     0.215 C 
HETATM   13  O           1     -20.833  -7.393  -2.804  0.00  0.00    -0.274 OA
HETATM   14  N           1     -22.343  -5.849  -2.233  0.00  0.00    -0.370 N 
HETATM   15  H           1     -22.063  -5.882  -1.261  0.00  0.00     0.159 HD
HETATM   16  H           1     -23.085  -5.226  -2.525  0.00  0.00     0.159 HD
ENDBRANCH  11  12
ENDBRANCH  10  11
ENDBRANCH   5  10
ENDBRANCH   3   5
BRANCH   1  17
HETATM   17  C           1     -22.768  -3.910  -9.650  0.00  0.00     0.194 C 
BRANCH  17  18
HETATM   18  C           1     -22.244  -4.085 -11.070  0.00  0.00     0.138 C 
BRANCH  18  19
HETATM   19  C           1     -20.747  -3.899 -11.081  0.00  0.00     0.217 C 
HETATM   20  O           1     -20.024  -4.803 -10.735  0.00  0.00    -0.274 OA
HETATM   21  N           1     -20.208  -2.707 -11.483  0.00  0.00    -0.370 N 
HETATM   22  H           1     -19.204  -2.582 -11.490  0.00  0.00     0.159 HD
HETATM   23  H           1     -20.814  -1.950 -11.772  0.00  0.00     0.159 HD
ENDBRANCH  18  19
ENDBRANCH  17  18
BRANCH  17  24
HETATM   24  C           1     -24.276  -3.866  -9.672  0.00  0.00     0.197 C 
HETATM   25  O           1     -24.929  -4.918  -9.845  0.00  0.00    -0.646 OA
HETATM   26  O           1     -24.872  -2.778  -9.517  0.00  0.00    -0.646 OA
ENDBRANCH  17  24
ENDBRANCH   1  17
TORSDOF 9
ENDMDL
MODEL 4
REMARK VINA RESULT:      -6.2     12.431     14.008
REMARK  9 active torsions:
REMARK  status: ('A' for Active; 'I' for Inactive)
REMARK    1  A    between atoms: N_1  and  C_20 
REMARK       I    between atoms: N_1  and  C_19 
REMARK    2  A    between atoms: N_7  and  C_18 
REMARK    3  A    between atoms: C_10  and  C_11 
REMARK       I    between atoms: C_10  and  N_16 
REMARK    4  A    between atoms: C_11  and  C_17 
REMARK       I    between atoms: C_12  and  N_15 
REMARK    5  A    between atoms: C_12  and  C_14 
REMARK    6  A    between atoms: C_14  and  C_20 
REMARK    7  A    between atoms: C_17  and  C_18 
REMARK    8  A    between atoms: C_18  and  C_19 
REMARK    9  A    between atoms: C_20  and  C_21 
ROOT
HETATM    1  N           1     -21.860  -3.988  -9.629  0.00  0.00    -0.344 N 
HETATM    2  O           1     -19.902  -5.044  -9.826  0.00  0.00    -0.271 OA
HETATM    3  C           1     -20.623  -4.340  -9.159  0.00  0.00     0.249 C 
HETATM    4  H           1     -22.464  -3.399  -9.069  0.00  0.00     0.163 HD
ENDROOT
BRANCH   3   5
HETATM    5  C           1     -20.160  -3.851  -7.808  0.00  0.00     0.275 C 
BRANCH   5   6
HETATM    6  N           1     -21.315  -3.228  -7.082  0.00  0.00    -0.066 N 
HETATM    7  H           1     -21.481  -3.741  -6.185  0.00  0.00     0.275 HD
HETATM    8  H           1     -21.098  -2.227  -6.875  0.00  0.00     0.275 HD
HETATM    9  H           1     -22.172  -3.284  -7.677  0.00  0.00     0.275 HD
ENDBRANCH   5   6
BRANCH   5  10
HETATM   10  C           1     -19.624  -5.024  -6.999  0.00  0.00     0.052 C 
BRANCH  10  11
HETATM   11  C           1     -20.376  -5.117  -5.677  0.00  0.00     0.105 C 
BRANCH  11  12
HETATM   12  C           1     -21.335  -6.280  -5.724  0.00  0.00     0.215 C 
HETATM   13  O           1     -21.057  -7.268  -6.361  0.00  0.00    -0.274 OA
HETATM   14  N           1     -22.521  -6.217  -5.043  0.00  0.00    -0.370 N 
HETATM   15  H           1     -23.165  -6.998  -5.074  0.00  0.00     0.159 HD
HETATM   16  H           1     -22.755  -5.390  -4.509  0.00  0.00     0.159 HD
ENDBRANCH  11  12
ENDBRANCH  10  11
ENDBRANCH   5  10
ENDBRANCH   3   5
BRANCH   1  17
HETATM   17  C           1     -22.305  -4.458 -10.926  0.00  0.00     0.194 C 
BRANCH  17  18
HETATM   18  C           1     -23.754  -4.915 -10.830  0.00  0.00     0.138 C 
BRANCH  18  19
HETATM   19  C           1     -24.546  -3.915 -10.024  0.00  0.00     0.217 C 
HETATM   20  O           1     -25.273  -3.129 -10.583  0.00  0.00    -0.274 OA
HETATM   21  N           1     -24.440  -3.899  -8.660  0.00  0.00    -0.370 N 
HETATM   22  H           1     -24.972  -3.228  -8.119  0.00  0.00     0.159 HD
HETATM   23  H           1     -23.831  -4.557  -8.191  0.00  0.00     0.159 HD
ENDBRANCH  18  19
ENDBRANCH  17  18
BRANCH  17  24
HETATM   24  C           1     -22.195  -3.337 -11.931  0.00  0.00     0.197 C 
HETATM   25  O           1     -22.807  -3.411 -13.018  0.00  0.00    -0.646 OA
HETATM   26  O           1     -21.493  -2.335 -11.675  0.00  0.00    -0.646 OA
ENDBRANCH  17  24
ENDBRANCH   1  17
TORSDOF 9
ENDMDL
MODEL 5
REMARK VINA RESULT:      -6.1     12.306     14.801
REMARK  9 active torsions:
REMARK  status: ('A' for Active; 'I' for Inactive)
REMARK    1  A    between atoms: N_1  and  C_20 
REMARK       I    between atoms: N_1  and  C_19 
REMARK    2  A    between atoms: N_7  and  C_18 
REMARK    3  A    between atoms: C_10  and  C_11 
REMARK       I    between atoms: C_10  and  N_16 
REMARK    4  A    between atoms: C_11  and  C_17 
REMARK       I    between atoms: C_12  and  N_15 
REMARK    5  A    between atoms: C_12  and  C_14 
REMARK    6  A    between atoms: C_14  and  C_20 
REMARK    7  A    between atoms: C_17  and  C_18 
REMARK    8  A    between atoms: C_18  and  C_19 
REMARK    9  A    between atoms: C_20  and  C_21 
ROOT
HETATM    1  N           1     -21.768  -4.923  -8.631  0.00  0.00    -0.344 N 
HETATM    2  O           1     -23.607  -4.172  -7.609  0.00  0.00    -0.271 OA
HETATM    3  C           1     -23.077  -4.518  -8.638  0.00  0.00     0.249 C 
HETATM    4  H           1     -21.324  -5.213  -9.492  0.00  0.00     0.163 HD
ENDROOT
BRANCH   3   5
HETATM    5  C           1     -23.855  -4.504  -9.930  0.00  0.00     0.275 C 
BRANCH   5   6
HETATM    6  N           1     -25.264  -4.068  -9.659  0.00  0.00    -0.066 N 
HETATM    7  H           1     -25.689  -4.690  -8.934  0.00  0.00     0.275 HD
HETATM    8  H           1     -25.263  -3.081  -9.314  0.00  0.00     0.275 HD
HETATM    9  H           1     -25.824  -4.129 -10.539  0.00  0.00     0.275 HD
ENDBRANCH   5   6
BRANCH   5  10
HETATM   10  C           1     -23.203  -3.534 -10.906  0.00  0.00     0.052 C 
BRANCH  10  11
HETATM   11  C           1     -24.213  -3.126 -11.971  0.00  0.00     0.105 C 
BRANCH  11  12
HETATM   12  C           1     -23.488  -2.778 -13.247  0.00  0.00     0.215 C 
HETATM   13  O           1     -24.013  -2.057 -14.063  0.00  0.00    -0.274 OA
HETATM   14  N           1     -22.237  -3.278 -13.481  0.00  0.00    -0.370 N 
HETATM   15  H           1     -21.750  -3.045 -14.338  0.00  0.00     0.159 HD
HETATM   16  H           1     -21.797  -3.882 -12.798  0.00  0.00     0.159 HD
ENDBRANCH  11  12
ENDBRANCH  10  11
ENDBRANCH   5  10
ENDBRANCH   3   5
BRANCH   1  17
HETATM   17  C           1     -21.020  -4.936  -7.389  0.00  0.00     0.194 C 
BRANCH  17  18
HETATM   18  C           1     -20.875  -6.371  -6.900  0.00  0.00     0.138 C 
BRANCH  18  19
HETATM   19  C           1     -21.458  -6.492  -5.513  0.00  0.00     0.217 C 
HETATM   20  O           1     -20.809  -6.995  -4.627  0.00  0.00    -0.274 OA
HETATM   21  N           1     -22.722  -6.033  -5.259  0.00  0.00    -0.370 N 
HETATM   22  H           1     -23.113  -6.115  -4.329  0.00  0.00     0.159 HD
HETATM   23  H           1     -23.266  -5.613  -6.002  0.00  0.00     0.159 HD
ENDBRANCH  18  19
ENDBRANCH  17  18
BRANCH  17  24
HETATM   24  C           1     -19.652  -4.342  -7.621  0.00  0.00     0.197 C 
HETATM   25  O           1     -18.693  -4.679  -6.893  0.00  0.00    -0.646 OA
HETATM   26  O           1     -19.478  -3.514  -8.541  0.00  0.00    -0.646 OA
ENDBRANCH  17  24
ENDBRANCH   1  17
TORSDOF 9
ENDMDL
MODEL 6
REMARK VINA RESULT:      -6.1     10.652     12.322
REMARK  9 active torsions:
REMARK  status: ('A' for Active; 'I' for Inactive)
REMARK    1  A    between atoms: N_1  and  C_20 
REMARK       I    between atoms: N_1  and  C_19 
REMARK    2  A    between atoms: N_7  and  C_18 
REMARK    3  A    between atoms: C_10  and  C_11 
REMARK       I    between atoms: C_10  and  N_16 
REMARK    4  A    between atoms: C_11  and  C_17 
REMARK       I    between atoms: C_12  and  N_15 
REMARK    5  A    between atoms: C_12  and  C_14 
REMARK    6  A    between atoms: C_14  and  C_20 
REMARK    7  A    between atoms: C_17  and  C_18 
REMARK    8  A    between atoms: C_18  and  C_19 
REMARK    9  A    between atoms: C_20  and  C_21 
ROOT
HETATM    1  N           1     -26.481  -6.600 -18.124  0.00  0.00    -0.344 N 
HETATM    2  O           1     -28.178  -5.417 -18.965  0.00  0.00    -0.271 OA
HETATM    3  C           1     -27.217  -6.118 -19.173  0.00  0.00     0.249 C 
HETATM    4  H           1     -25.677  -7.189 -18.299  0.00  0.00     0.163 HD
ENDROOT
BRANCH   3   5
HETATM    5  C           1     -26.828  -6.464 -20.590  0.00  0.00     0.275 C 
BRANCH   5   6
HETATM    6  N           1     -25.730  -5.549 -21.043  0.00  0.00    -0.066 N 
HETATM    7  H           1     -26.136  -4.770 -21.610  0.00  0.00     0.275 HD
HETATM    8  H           1     -25.240  -5.153 -20.209  0.00  0.00     0.275 HD
HETATM    9  H           1     -25.048  -6.084 -21.626  0.00  0.00     0.275 HD
ENDBRANCH   5   6
BRANCH   5  10
HETATM   10  C           1     -26.343  -7.906 -20.646  0.00  0.00     0.052 C 
BRANCH  10  11
HETATM   11  C           1     -25.083  -7.986 -21.499  0.00  0.00     0.105 C 
BRANCH  11  12
HETATM   12  C           1     -23.875  -8.110 -20.603  0.00  0.00     0.215 C 
HETATM   13  O           1     -23.836  -7.510 -19.556  0.00  0.00    -0.274 OA
HETATM   14  N           1     -22.825  -8.903 -20.977  0.00  0.00    -0.370 N 
HETATM   15  H           1     -22.014  -8.986 -20.377  0.00  0.00     0.159 HD
HETATM   16  H           1     -22.857  -9.406 -21.855  0.00  0.00     0.159 HD
ENDBRANCH  11  12
ENDBRANCH  10  11
ENDBRANCH   5  10
ENDBRANCH   3   5
BRANCH   1  17
HETATM   17  C           1     -26.855  -6.269 -16.763  0.00  0.00     0.194 C 
BRANCH  17  18
HETATM   18  C           1     -27.995  -7.173 -16.315  0.00  0.00     0.138 C 
BRANCH  18  19
HETATM   19  C           1     -29.191  -6.331 -15.943  0.00  0.00     0.217 C 
HETATM   20  O           1     -29.147  -5.616 -14.970  0.00  0.00    -0.274 OA
HETATM   21  N           1     -30.324  -6.377 -16.708  0.00  0.00    -0.370 N 
HETATM   22  H           1     -31.127  -5.812 -16.458  0.00  0.00     0.159 HD
HETATM   23  H           1     -30.361  -6.976 -17.523  0.00  0.00     0.159 HD
ENDBRANCH  18  19
ENDBRANCH  17  18
BRANCH  17  24
HETATM   24  C           1     -25.667  -6.468 -15.853  0.00  0.00     0.197 C 
HETATM   25  O           1     -25.045  -5.477 -15.412  0.00  0.00    -0.646 OA
HETATM   26  O           1     -25.305  -7.623 -15.542  0.00  0.00    -0.646 OA
ENDBRANCH  17  24
ENDBRANCH   1  17
TORSDOF 9
ENDMDL
MODEL 7
REMARK VINA RESULT:      -6.0      2.324      5.894
REMARK  9 active torsions:
REMARK  status: ('A' for Active; 'I' for Inactive)
REMARK    1  A    between atoms: N_1  and  C_20 
REMARK       I    between atoms: N_1  and  C_19 
REMARK    2  A    between atoms: N_7  and  C_18 
REMARK    3  A    between atoms: C_10  and  C_11 
REMARK       I    between atoms: C_10  and  N_16 
REMARK    4  A    between atoms: C_11  and  C_17 
REMARK       I    between atoms: C_12  and  N_15 
REMARK    5  A    between atoms: C_12  and  C_14 
REMARK    6  A    between atoms: C_14  and  C_20 
REMARK    7  A    between atoms: C_17  and  C_18 
REMARK    8  A    between atoms: C_18  and  C_19 
REMARK    9  A    between atoms: C_20  and  C_21 
ROOT
HETATM    1  N           1     -35.203  -1.910 -12.255  0.00  0.00    -0.344 N 
HETATM    2  O           1     -37.083  -1.171 -11.304  0.00  0.00    -0.271 OA
HETATM    3  C           1     -36.198  -0.982 -12.104  0.00  0.00     0.249 C 
HETATM    4  H           1     -34.462  -1.752 -12.926  0.00  0.00     0.163 HD
ENDROOT
BRANCH   3   5
HETATM    5  C           1     -36.190   0.277 -12.937  0.00  0.00     0.275 C 
BRANCH   5   6
HETATM    6  N           1     -34.773   0.691 -13.200  0.00  0.00    -0.066 N 
HETATM    7  H           1     -34.133   0.174 -12.555  0.00  0.00     0.275 HD
HETATM    8  H           1     -34.523   0.470 -14.190  0.00  0.00     0.275 HD
HETATM    9  H           1     -34.674   1.719 -13.037  0.00  0.00     0.275 HD
ENDBRANCH   5   6
BRANCH   5  10
HETATM   10  C           1     -36.896   0.014 -14.261  0.00  0.00     0.052 C 
BRANCH  10  11
HETATM   11  C           1     -35.961   0.358 -15.413  0.00  0.00     0.105 C 
BRANCH  11  12
HETATM   12  C           1     -35.983  -0.756 -16.430  0.00  0.00     0.215 C 
HETATM   13  O           1     -36.939  -0.892 -17.157  0.00  0.00    -0.274 OA
HETATM   14  N           1     -34.921  -1.614 -16.529  0.00  0.00    -0.370 N 
HETATM   15  H           1     -34.936  -2.362 -17.211  0.00  0.00     0.159 HD
HETATM   16  H           1     -34.120  -1.500 -15.920  0.00  0.00     0.159 HD
ENDBRANCH  11  12
ENDBRANCH  10  11
ENDBRANCH   5  10
ENDBRANCH   3   5
BRANCH   1  17
HETATM   17  C           1     -35.210  -3.119 -11.455  0.00  0.00     0.194 C 
BRANCH  17  18
HETATM   18  C           1     -35.054  -4.330 -12.365  0.00  0.00     0.138 C 
BRANCH  18  19
HETATM   19  C           1     -34.022  -4.035 -13.425  0.00  0.00     0.217 C 
HETATM   20  O           1     -34.358  -3.539 -14.474  0.00  0.00    -0.274 OA
HETATM   21  N           1     -32.705  -4.328 -13.198  0.00  0.00    -0.370 N 
HETATM   22  H           1     -32.012  -4.130 -13.910  0.00  0.00     0.159 HD
HETATM   23  H           1     -32.423  -4.743 -12.319  0.00  0.00     0.159 HD
ENDBRANCH  18  19
ENDBRANCH  17  18
BRANCH  17  24
HETATM   24  C           1     -34.067  -3.077 -10.472  0.00  0.00     0.197 C 
HETATM   25  O           1     -33.534  -4.141 -10.088  0.00  0.00    -0.646 OA
HETATM   26  O           1     -33.652  -1.979 -10.041  0.00  0.00    -0.646 OA
ENDBRANCH  17  24
ENDBRANCH   1  17
TORSDOF 9
ENDMDL
MODEL 8
REMARK VINA RESULT:      -6.0     12.540     14.792
REMARK  9 active torsions:
REMARK  status: ('A' for Active; 'I' for Inactive)
REMARK    1  A    between atoms: N_1  and  C_20 
REMARK       I    between atoms: N_1  and  C_19 
REMARK    2  A    between atoms: N_7  and  C_18 
REMARK    3  A    between atoms: C_10  and  C_11 
REMARK       I    between atoms: C_10  and  N_16 
REMARK    4  A    between atoms: C_11  and  C_17 
REMARK       I    between atoms: C_12  and  N_15 
REMARK    5  A    between atoms: C_12  and  C_14 
REMARK    6  A    between atoms: C_14  and  C_20 
REMARK    7  A    between atoms: C_17  and  C_18 
REMARK    8  A    between atoms: C_18  and  C_19 
REMARK    9  A    between atoms: C_20  and  C_21 
ROOT
HETATM    1  N           1     -21.258  -4.472  -9.251  0.00  0.00    -0.344 N 
HETATM    2  O           1     -20.463  -2.964 -10.693  0.00  0.00    -0.271 OA
HETATM    3  C           1     -21.181  -3.916 -10.500  0.00  0.00     0.249 C 
HETATM    4  H           1     -21.860  -5.269  -9.088  0.00  0.00     0.163 HD
ENDROOT
BRANCH   3   5
HETATM    5  C           1     -21.993  -4.491 -11.634  0.00  0.00     0.275 C 
BRANCH   5   6
HETATM    6  N           1     -23.401  -4.725 -11.170  0.00  0.00    -0.066 N 
HETATM    7  H           1     -23.622  -4.072 -10.384  0.00  0.00     0.275 HD
HETATM    8  H           1     -24.061  -4.554 -11.962  0.00  0.00     0.275 HD
HETATM    9  H           1     -23.500  -5.711 -10.841  0.00  0.00     0.275 HD
ENDBRANCH   5   6
BRANCH   5  10
HETATM   10  C           1     -21.999  -3.514 -12.802  0.00  0.00     0.052 C 
BRANCH  10  11
HETATM   11  C           1     -23.259  -2.659 -12.743  0.00  0.00     0.105 C 
BRANCH  11  12
HETATM   12  C           1     -23.640  -2.228 -14.138  0.00  0.00     0.215 C 
HETATM   13  O           1     -23.502  -2.991 -15.065  0.00  0.00    -0.274 OA
HETATM   14  N           1     -24.143  -0.974 -14.354  0.00  0.00    -0.370 N 
HETATM   15  H           1     -24.399  -0.684 -15.289  0.00  0.00     0.159 HD
HETATM   16  H           1     -24.258  -0.335 -13.577  0.00  0.00     0.159 HD
ENDBRANCH  11  12
ENDBRANCH  10  11
ENDBRANCH   5  10
ENDBRANCH   3   5
BRANCH   1  17
HETATM   17  C           1     -20.478  -3.919  -8.161  0.00  0.00     0.194 C 
BRANCH  17  18
HETATM   18  C           1     -21.410  -3.490  -7.036  0.00  0.00     0.138 C 
BRANCH  18  19
HETATM   19  C           1     -22.576  -4.444  -6.956  0.00  0.00     0.217 C 
HETATM   20  O           1     -23.533  -4.291  -7.678  0.00  0.00    -0.274 OA
HETATM   21  N           1     -22.550  -5.484  -6.067  0.00  0.00    -0.370 N 
HETATM   22  H           1     -23.333  -6.124  -6.013  0.00  0.00     0.159 HD
HETATM   23  H           1     -21.749  -5.613  -5.462  0.00  0.00     0.159 HD
ENDBRANCH  18  19
ENDBRANCH  17  18
BRANCH  17  24
HETATM   24  C           1     -19.519  -4.965  -7.648  0.00  0.00     0.197 C 
HETATM   25  O           1     -18.405  -4.624  -7.196  0.00  0.00    -0.646 OA
HETATM   26  O           1     -19.839  -6.174  -7.677  0.00  0.00    -0.646 OA
ENDBRANCH  17  24
ENDBRANCH   1  17
TORSDOF 9
ENDMDL
MODEL 9
REMARK VINA RESULT:      -6.0     13.894     16.604
REMARK  9 active torsions:
REMARK  status: ('A' for Active; 'I' for Inactive)
REMARK    1  A    between atoms: N_1  and  C_20 
REMARK       I    between atoms: N_1  and  C_19 
REMARK    2  A    between atoms: N_7  and  C_18 
REMARK    3  A    between atoms: C_10  and  C_11 
REMARK       I    between atoms: C_10  and  N_16 
REMARK    4  A    between atoms: C_11  and  C_17 
REMARK       I    between atoms: C_12  and  N_15 
REMARK    5  A    between atoms: C_12  and  C_14 
REMARK    6  A    between atoms: C_14  and  C_20 
REMARK    7  A    between atoms: C_17  and  C_18 
REMARK    8  A    between atoms: C_18  and  C_19 
REMARK    9  A    between atoms: C_20  and  C_21 
ROOT
HETATM    1  N           1     -20.869  -6.685  -4.843  0.00  0.00    -0.344 N 
HETATM    2  O           1     -22.590  -5.562  -5.718  0.00  0.00    -0.271 OA
HETATM    3  C           1     -21.398  -5.756  -5.699  0.00  0.00     0.249 C 
HETATM    4  H           1     -19.871  -6.848  -4.827  0.00  0.00     0.163 HD
ENDROOT
BRANCH   3   5
HETATM    5  C           1     -20.491  -4.974  -6.617  0.00  0.00     0.275 C 
BRANCH   5   6
HETATM    6  N           1     -20.012  -5.867  -7.723  0.00  0.00    -0.066 N 
HETATM    7  H           1     -19.153  -6.377  -7.413  0.00  0.00     0.275 HD
HETATM    8  H           1     -20.759  -6.557  -7.962  0.00  0.00     0.275 HD
HETATM    9  H           1     -19.787  -5.290  -8.565  0.00  0.00     0.275 HD
ENDBRANCH   5   6
BRANCH   5  10
HETATM   10  C           1     -21.258  -3.799  -7.210  0.00  0.00     0.052 C 
BRANCH  10  11
HETATM   11  C           1     -21.459  -4.024  -8.703  0.00  0.00     0.105 C 
BRANCH  11  12
HETATM   12  C           1     -22.932  -3.984  -9.025  0.00  0.00     0.215 C 
HETATM   13  O           1     -23.298  -3.898 -10.173  0.00  0.00    -0.274 OA
HETATM   14  N           1     -23.855  -4.045  -8.016  0.00  0.00    -0.370 N 
HETATM   15  H           1     -24.844  -4.018  -8.232  0.00  0.00     0.159 HD
HETATM   16  H           1     -23.549  -4.117  -7.054  0.00  0.00     0.159 HD
ENDBRANCH  11  12
ENDBRANCH  10  11
ENDBRANCH   5  10
ENDBRANCH   3   5
BRANCH   1  17
HETATM   17  C           1     -21.740  -7.436  -3.960  0.00  0.00     0.194 C 
BRANCH  17  18
HETATM   18  C           1     -21.334  -8.904  -3.975  0.00  0.00     0.138 C 
BRANCH  18  19
HETATM   19  C           1     -19.923  -9.031  -4.495  0.00  0.00     0.217 C 
HETATM   20  O           1     -19.722  -9.097  -5.685  0.00  0.00    -0.274 OA
HETATM   21  N           1     -18.872  -9.072  -3.621  0.00  0.00    -0.370 N 
HETATM   22  H           1     -17.926  -9.158  -3.970  0.00  0.00     0.159 HD
HETATM   23  H           1     -19.041  -9.017  -2.624  0.00  0.00     0.159 HD
ENDBRANCH  18  19
ENDBRANCH  17  18
BRANCH  17  24
HETATM   24  C           1     -21.621  -6.895  -2.556  0.00  0.00     0.197 C 
HETATM   25  O           1     -22.292  -5.899  -2.211  0.00  0.00    -0.646 OA
HETATM   26  O           1     -20.850  -7.444  -1.739  0.00  0.00    -0.646 OA
ENDBRANCH  17  24
ENDBRANCH   1  17
TORSDOF 9
ENDMDL
