MODEL 1
REMARK VINA RESULT:      -5.5      0.000      0.000
REMARK  10 active torsions:
REMARK  status: ('A' for Active; 'I' for Inactive)
REMARK    1  A    between atoms: C_1  and  C_2 
REMARK    2  A    between atoms: C_2  and  C_3 
REMARK    3  A    between atoms: C_2  and  N_8 
REMARK    4  A    between atoms: C_3  and  C_4 
REMARK    5  A    between atoms: C_4  and  C_11 
REMARK    6  A    between atoms: C_5  and  C_6 
REMARK    7  A    between atoms: C_5  and  Se_23 
REMARK    8  A    between atoms: C_6  and  C_7 
REMARK    9  A    between atoms: C_6  and  N_22 
REMARK       I    between atoms: C_7  and  N_8 
REMARK   10  A    between atoms: C_11  and  N_12 
ROOT
HETATM    1  C           1     -21.601  -4.551  -7.604  0.00  0.00     0.249 C 
HETATM    2  N           1     -22.148  -4.804  -8.833  0.00  0.00    -0.345 N 
HETATM    3  H           1     -22.209  -5.755  -9.174  0.00  0.00     0.163 HD
HETATM    4  O           1     -21.528  -3.416  -7.197  0.00  0.00    -0.271 OA
ENDROOT
BRANCH   2   5
HETATM    5  C           1     -22.640  -3.710  -9.646  0.00  0.00     0.185 C 
BRANCH   5   6
HETATM    6  C           1     -24.141  -3.809  -9.766  0.00  0.00     0.196 C 
HETATM    7  O           1     -24.858  -2.831  -9.462  0.00  0.00    -0.646 OA
HETATM    8  O           1     -24.667  -4.868 -10.171  0.00  0.00    -0.646 OA
ENDBRANCH   5   6
BRANCH   5   9
HETATM    9  C           1     -22.013  -3.786 -11.033  0.00  0.00     0.038 C 
BRANCH   9  10
HETATM   10  C           1     -22.480  -2.601 -11.867  0.00  0.00     0.030 C 
BRANCH  10  11
HETATM   11  C           1     -22.810  -3.072 -13.278  0.00  0.00     0.230 C 
BRANCH  11  12
HETATM   12  N           1     -23.882  -4.119 -13.217  0.00  0.00    -0.079 N 
HETATM   13  H           1     -24.000  -4.553 -14.161  0.00  0.00     0.274 HD
HETATM   14  H           1     -23.612  -4.855 -12.528  0.00  0.00     0.274 HD
HETATM   15  H           1     -24.783  -3.678 -12.922  0.00  0.00     0.274 HD
ENDBRANCH  11  12
ENDBRANCH  10  11
ENDBRANCH   9  10
ENDBRANCH   5   9
ENDBRANCH   2   5
BRANCH   1  16
HETATM   16  C           1     -21.089  -5.691  -6.758  0.00  0.00     0.274 C 
BRANCH  16  17
HETATM   17  C           1     -20.689  -5.165  -5.385  0.00  0.00     0.045 C 
BRANCH  17  18
HETATM   18 Se           1     -21.412  -6.335  -4.004  0.00  0.00     0.000 Se
HETATM   19  H           1     -21.605  -5.253  -3.026  0.00  0.00     0.000 HD
ENDBRANCH  17  18
ENDBRANCH  16  17
BRANCH  16  20
HETATM   20  N           1     -19.894  -6.309  -7.422  0.00  0.00    -0.067 N 
HETATM   21  H           1     -20.196  -7.134  -7.987  0.00  0.00     0.275 HD
HETATM   22  H           1     -19.441  -5.605  -8.047  0.00  0.00     0.275 HD
HETATM   23  H           1     -19.212  -6.618  -6.692  0.00  0.00     0.275 HD
ENDBRANCH  16  20
ENDBRANCH   1  16
TORSDOF 10
ENDMDL
MODEL 2
REMARK VINA RESULT:      -5.5     12.080     13.831
REMARK  10 active torsions:
REMARK  status: ('A' for Active; 'I' for Inactive)
REMARK    1  A    between atoms: C_1  and  C_2 
REMARK    2  A    between atoms: C_2  and  C_3 
REMARK    3  A    between atoms: C_2  and  N_8 
REMARK    4  A    between atoms: C_3  and  C_4 
REMARK    5  A    between atoms: C_4  and  C_11 
REMARK    6  A    between atoms: C_5  and  C_6 
REMARK    7  A    between atoms: C_5  and  Se_23 
REMARK    8  A    between atoms: C_6  and  C_7 
REMARK    9  A    between atoms: C_6  and  N_22 
REMARK       I    between atoms: C_7  and  N_8 
REMARK   10  A    between atoms: C_11  and  N_12 
ROOT
HETATM    1  C           1     -34.288  -2.581 -12.113  0.00  0.00     0.249 C 
HETATM    2  N           1     -35.047  -1.679 -12.808  0.00  0.00    -0.345 N 
HETATM    3  H           1     -35.558  -1.974 -13.630  0.00  0.00     0.163 HD
HETATM    4  O           1     -33.678  -2.228 -11.132  0.00  0.00    -0.271 OA
ENDROOT
BRANCH   2   5
HETATM    5  C           1     -35.119  -0.299 -12.366  0.00  0.00     0.185 C 
BRANCH   5   6
HETATM    6  C           1     -36.390  -0.088 -11.582  0.00  0.00     0.196 C 
HETATM    7  O           1     -36.358   0.522 -10.492  0.00  0.00    -0.646 OA
HETATM    8  O           1     -37.476  -0.523 -12.024  0.00  0.00    -0.646 OA
ENDBRANCH   5   6
BRANCH   5   9
HETATM    9  C           1     -35.110   0.623 -13.579  0.00  0.00     0.038 C 
BRANCH   9  10
HETATM   10  C           1     -35.378  -0.191 -14.838  0.00  0.00     0.030 C 
BRANCH  10  11
HETATM   11  C           1     -36.470   0.484 -15.657  0.00  0.00     0.230 C 
BRANCH  11  12
HETATM   12  N           1     -37.738   0.533 -14.857  0.00  0.00    -0.079 N 
HETATM   13  H           1     -38.529   0.821 -15.475  0.00  0.00     0.274 HD
HETATM   14  H           1     -37.934  -0.412 -14.458  0.00  0.00     0.274 HD
HETATM   15  H           1     -37.632   1.225 -14.080  0.00  0.00     0.274 HD
ENDBRANCH  11  12
ENDBRANCH  10  11
ENDBRANCH   9  10
ENDBRANCH   5   9
ENDBRANCH   2   5
BRANCH   1  16
HETATM   16  C           1     -34.214  -4.016 -12.573  0.00  0.00     0.274 C 
BRANCH  16  17
HETATM   17  C           1     -33.261  -4.791 -11.671  0.00  0.00     0.045 C 
BRANCH  17  18
HETATM   18 Se           1     -34.250  -6.164 -10.706  0.00  0.00     0.000 Se
HETATM   19  H           1     -33.972  -7.221 -11.692  0.00  0.00     0.000 HD
ENDBRANCH  17  18
ENDBRANCH  16  17
BRANCH  16  20
HETATM   20  N           1     -33.713  -4.064 -13.986  0.00  0.00    -0.067 N 
HETATM   21  H           1     -32.734  -3.701 -14.022  0.00  0.00     0.275 HD
HETATM   22  H           1     -33.732  -5.051 -14.329  0.00  0.00     0.275 HD
HETATM   23  H           1     -34.326  -3.472 -14.592  0.00  0.00     0.275 HD
ENDBRANCH  16  20
ENDBRANCH   1  16
TORSDOF 10
ENDMDL
MODEL 3
REMARK VINA RESULT:      -5.4     12.545     14.591
REMARK  10 active torsions:
REMARK  status: ('A' for Active; 'I' for Inactive)
REMARK    1  A    between atoms: C_1  and  C_2 
REMARK    2  A    between atoms: C_2  and  C_3 
REMARK    3  A    between atoms: C_2  and  N_8 
REMARK    4  A    between atoms: C_3  and  C_4 
REMARK    5  A    between atoms: C_4  and  C_11 
REMARK    6  A    between atoms: C_5  and  C_6 
REMARK    7  A    between atoms: C_5  and  Se_23 
REMARK    8  A    between atoms: C_6  and  C_7 
REMARK    9  A    between atoms: C_6  and  N_22 
REMARK       I    between atoms: C_7  and  N_8 
REMARK   10  A    between atoms: C_11  and  N_12 
ROOT
HETATM    1  C           1     -35.855  -0.538 -13.333  0.00  0.00     0.249 C 
HETATM    2  N           1     -34.794  -0.879 -12.539  0.00  0.00    -0.345 N 
HETATM    3  H           1     -33.923  -0.367 -12.610  0.00  0.00     0.163 HD
HETATM    4  O           1     -36.894  -1.148 -13.249  0.00  0.00    -0.271 OA
ENDROOT
BRANCH   2   5
HETATM    5  C           1     -34.917  -1.973 -11.596  0.00  0.00     0.185 C 
BRANCH   5   6
HETATM    6  C           1     -35.896  -1.595 -10.513  0.00  0.00     0.196 C 
HETATM    7  O           1     -36.891  -2.318 -10.290  0.00  0.00    -0.646 OA
HETATM    8  O           1     -35.712  -0.560  -9.837  0.00  0.00    -0.646 OA
ENDBRANCH   5   6
BRANCH   5   9
HETATM    9  C           1     -33.556  -2.262 -10.975  0.00  0.00     0.038 C 
BRANCH   9  10
HETATM   10  C           1     -33.060  -3.622 -11.446  0.00  0.00     0.030 C 
BRANCH  10  11
HETATM   11  C           1     -33.829  -4.721 -10.725  0.00  0.00     0.230 C 
BRANCH  11  12
HETATM   12  N           1     -33.482  -6.051 -11.325  0.00  0.00    -0.079 N 
HETATM   13  H           1     -34.355  -6.528 -11.645  0.00  0.00     0.274 HD
HETATM   14  H           1     -32.845  -5.909 -12.141  0.00  0.00     0.274 HD
HETATM   15  H           1     -33.004  -6.643 -10.608  0.00  0.00     0.274 HD
ENDBRANCH  11  12
ENDBRANCH  10  11
ENDBRANCH   9  10
ENDBRANCH   5   9
ENDBRANCH   2   5
BRANCH   1  16
HETATM   16  C           1     -35.727   0.602 -14.314  0.00  0.00     0.274 C 
BRANCH  16  17
HETATM   17  C           1     -36.656   0.361 -15.498  0.00  0.00     0.045 C 
BRANCH  17  18
HETATM   18 Se           1     -35.904  -1.023 -16.645  0.00  0.00     0.000 Se
HETATM   19  H           1     -37.213  -1.548 -17.065  0.00  0.00     0.000 HD
ENDBRANCH  17  18
ENDBRANCH  16  17
BRANCH  16  20
HETATM   20  N           1     -34.311   0.685 -14.802  0.00  0.00    -0.067 N 
HETATM   21  H           1     -34.263   0.365 -15.795  0.00  0.00     0.275 HD
HETATM   22  H           1     -33.978   1.674 -14.738  0.00  0.00     0.275 HD
HETATM   23  H           1     -33.703   0.074 -14.210  0.00  0.00     0.275 HD
ENDBRANCH  16  20
ENDBRANCH   1  16
TORSDOF 10
ENDMDL
MODEL 4
REMARK VINA RESULT:      -5.1     12.061     13.422
REMARK  10 active torsions:
REMARK  status: ('A' for Active; 'I' for Inactive)
REMARK    1  A    between atoms: C_1  and  C_2 
REMARK    2  A    between atoms: C_2  and  C_3 
REMARK    3  A    between atoms: C_2  and  N_8 
REMARK    4  A    between atoms: C_3  and  C_4 
REMARK    5  A    between atoms: C_4  and  C_11 
REMARK    6  A    between atoms: C_5  and  C_6 
REMARK    7  A    between atoms: C_5  and  Se_23 
REMARK    8  A    between atoms: C_6  and  C_7 
REMARK    9  A    between atoms: C_6  and  N_22 
REMARK       I    between atoms: C_7  and  N_8 
REMARK   10  A    between atoms: C_11  and  N_12 
ROOT
HETATM    1  C           1     -33.835  -4.492 -15.447  0.00  0.00     0.249 C 
HETATM    2  N           1     -33.322  -4.067 -14.252  0.00  0.00    -0.345 N 
HETATM    3  H           1     -32.355  -3.778 -14.191  0.00  0.00     0.163 HD
HETATM    4  O           1     -34.991  -4.838 -15.520  0.00  0.00    -0.271 OA
ENDROOT
BRANCH   2   5
HETATM    5  C           1     -34.165  -4.031 -13.073  0.00  0.00     0.185 C 
BRANCH   5   6
HETATM    6  C           1     -34.516  -2.600 -12.749  0.00  0.00     0.196 C 
HETATM    7  O           1     -35.094  -1.891 -13.601  0.00  0.00    -0.646 OA
HETATM    8  O           1     -34.229  -2.124 -11.629  0.00  0.00    -0.646 OA
ENDBRANCH   5   6
BRANCH   5   9
HETATM    9  C           1     -33.420  -4.651 -11.897  0.00  0.00     0.038 C 
BRANCH   9  10
HETATM   10  C           1     -34.421  -5.241 -10.915  0.00  0.00     0.030 C 
BRANCH  10  11
HETATM   11  C           1     -34.082  -6.704 -10.660  0.00  0.00     0.230 C 
BRANCH  11  12
HETATM   12  N           1     -35.021  -7.264  -9.633  0.00  0.00    -0.079 N 
HETATM   13  H           1     -35.676  -7.938 -10.091  0.00  0.00     0.274 HD
HETATM   14  H           1     -34.474  -7.759  -8.894  0.00  0.00     0.274 HD
HETATM   15  H           1     -35.568  -6.485  -9.200  0.00  0.00     0.274 HD
ENDBRANCH  11  12
ENDBRANCH  10  11
ENDBRANCH   9  10
ENDBRANCH   5   9
ENDBRANCH   2   5
BRANCH   1  16
HETATM   16  C           1     -32.958  -4.529 -16.674  0.00  0.00     0.274 C 
BRANCH  16  17
HETATM   17  C           1     -31.507  -4.732 -16.256  0.00  0.00     0.045 C 
BRANCH  17  18
HETATM   18 Se           1     -30.766  -6.267 -17.201  0.00  0.00     0.000 Se
HETATM   19  H           1     -32.078  -6.800 -17.600  0.00  0.00     0.000 HD
ENDBRANCH  17  18
ENDBRANCH  16  17
BRANCH  16  20
HETATM   20  N           1     -33.086  -3.233 -17.419  0.00  0.00    -0.067 N 
HETATM   21  H           1     -32.499  -2.504 -16.956  0.00  0.00     0.275 HD
HETATM   22  H           1     -32.764  -3.366 -18.405  0.00  0.00     0.275 HD
HETATM   23  H           1     -34.086  -2.928 -17.417  0.00  0.00     0.275 HD
ENDBRANCH  16  20
ENDBRANCH   1  16
TORSDOF 10
ENDMDL
MODEL 5
REMARK VINA RESULT:      -4.9      3.218      6.167
REMARK  10 active torsions:
REMARK  status: ('A' for Active; 'I' for Inactive)
REMARK    1  A    between atoms: C_1  and  C_2 
REMARK    2  A    between atoms: C_2  and  C_3 
REMARK    3  A    between atoms: C_2  and  N_8 
REMARK    4  A    between atoms: C_3  and  C_4 
REMARK    5  A    between atoms: C_4  and  C_11 
REMARK    6  A    between atoms: C_5  and  C_6 
REMARK    7  A    between atoms: C_5  and  Se_23 
REMARK    8  A    between atoms: C_6  and  C_7 
REMARK    9  A    between atoms: C_6  and  N_22 
REMARK       I    between atoms: C_7  and  N_8 
REMARK   10  A    between atoms: C_11  and  N_12 
ROOT
HETATM    1  C           1     -22.454  -4.158  -8.090  0.00  0.00     0.249 C 
HETATM    2  N           1     -22.049  -5.067  -7.151  0.00  0.00    -0.345 N 
HETATM    3  H           1     -22.571  -5.923  -7.017  0.00  0.00     0.163 HD
HETATM    4  O           1     -21.830  -3.136  -8.251  0.00  0.00    -0.271 OA
ENDROOT
BRANCH   2   5
HETATM    5  C           1     -20.871  -4.803  -6.347  0.00  0.00     0.185 C 
BRANCH   5   6
HETATM    6  C           1     -19.646  -5.301  -7.074  0.00  0.00     0.196 C 
HETATM    7  O           1     -19.486  -6.527  -7.261  0.00  0.00    -0.646 OA
HETATM    8  O           1     -18.792  -4.488  -7.490  0.00  0.00    -0.646 OA
ENDBRANCH   5   6
BRANCH   5   9
HETATM    9  C           1     -20.998  -5.523  -5.011  0.00  0.00     0.038 C 
BRANCH   9  10
HETATM   10  C           1     -22.214  -6.438  -5.040  0.00  0.00     0.030 C 
BRANCH  10  11
HETATM   11  C           1     -21.793  -7.854  -4.670  0.00  0.00     0.230 C 
BRANCH  11  12
HETATM   12  N           1     -21.084  -8.485  -5.832  0.00  0.00    -0.079 N 
HETATM   13  H           1     -21.286  -7.941  -6.701  0.00  0.00     0.274 HD
HETATM   14  H           1     -20.055  -8.485  -5.654  0.00  0.00     0.274 HD
HETATM   15  H           1     -21.418  -9.469  -5.951  0.00  0.00     0.274 HD
ENDBRANCH  11  12
ENDBRANCH  10  11
ENDBRANCH   9  10
ENDBRANCH   5   9
ENDBRANCH   2   5
BRANCH   1  16
HETATM   16  C           1     -23.680  -4.433  -8.927  0.00  0.00     0.274 C 
BRANCH  16  17
HETATM   17  C           1     -23.258  -4.766 -10.353  0.00  0.00     0.045 C 
BRANCH  17  18
HETATM   18 Se           1     -23.857  -3.352 -11.554  0.00  0.00     0.000 Se
HETATM   19  H           1     -23.807  -4.196 -12.758  0.00  0.00     0.000 HD
ENDBRANCH  17  18
ENDBRANCH  16  17
BRANCH  16  20
HETATM   20  N           1     -24.561  -3.219  -8.937  0.00  0.00    -0.067 N 
HETATM   21  H           1     -25.201  -3.259  -9.762  0.00  0.00     0.275 HD
HETATM   22  H           1     -25.125  -3.191  -8.058  0.00  0.00     0.275 HD
HETATM   23  H           1     -23.968  -2.360  -8.998  0.00  0.00     0.275 HD
ENDBRANCH  16  20
ENDBRANCH   1  16
TORSDOF 10
ENDMDL
MODEL 6
REMARK VINA RESULT:      -4.7      2.722      3.427
REMARK  10 active torsions:
REMARK  status: ('A' for Active; 'I' for Inactive)
REMARK    1  A    between atoms: C_1  and  C_2 
REMARK    2  A    between atoms: C_2  and  C_3 
REMARK    3  A    between atoms: C_2  and  N_8 
REMARK    4  A    between atoms: C_3  and  C_4 
REMARK    5  A    between atoms: C_4  and  C_11 
REMARK    6  A    between atoms: C_5  and  C_6 
REMARK    7  A    between atoms: C_5  and  Se_23 
REMARK    8  A    between atoms: C_6  and  C_7 
REMARK    9  A    between atoms: C_6  and  N_22 
REMARK       I    between atoms: C_7  and  N_8 
REMARK   10  A    between atoms: C_11  and  N_12 
ROOT
HETATM    1  C           1     -21.203  -6.213  -6.120  0.00  0.00     0.249 C 
HETATM    2  N           1     -21.484  -5.029  -6.745  0.00  0.00    -0.345 N 
HETATM    3  H           1     -21.612  -4.186  -6.200  0.00  0.00     0.163 HD
HETATM    4  O           1     -21.051  -7.220  -6.771  0.00  0.00    -0.271 OA
ENDROOT
BRANCH   2   5
HETATM    5  C           1     -21.600  -4.982  -8.190  0.00  0.00     0.185 C 
BRANCH   5   6
HETATM    6  C           1     -20.308  -4.472  -8.780  0.00  0.00     0.196 C 
HETATM    7  O           1     -19.561  -3.733  -8.104  0.00  0.00    -0.646 OA
HETATM    8  O           1     -19.985  -4.790  -9.945  0.00  0.00    -0.646 OA
ENDBRANCH   5   6
BRANCH   5   9
HETATM    9  C           1     -22.740  -4.048  -8.577  0.00  0.00     0.038 C 
BRANCH   9  10
HETATM   10  C           1     -23.355  -4.515  -9.889  0.00  0.00     0.030 C 
BRANCH  10  11
HETATM   11  C           1     -24.321  -3.455 -10.403  0.00  0.00     0.230 C 
BRANCH  11  12
HETATM   12  N           1     -25.621  -3.563  -9.664  0.00  0.00    -0.079 N 
HETATM   13  H           1     -25.994  -4.535  -9.753  0.00  0.00     0.274 HD
HETATM   14  H           1     -25.467  -3.341  -8.655  0.00  0.00     0.274 HD
HETATM   15  H           1     -26.309  -2.887 -10.069  0.00  0.00     0.274 HD
ENDBRANCH  11  12
ENDBRANCH  10  11
ENDBRANCH   9  10
ENDBRANCH   5   9
ENDBRANCH   2   5
BRANCH   1  16
HETATM   16  C           1     -21.083  -6.262  -4.616  0.00  0.00     0.274 C 
BRANCH  16  17
HETATM   17  C           1     -20.451  -7.585  -4.199  0.00  0.00     0.045 C 
BRANCH  17  18
HETATM   18 Se           1     -21.164  -8.128  -2.468  0.00  0.00     0.000 Se
HETATM   19  H           1     -20.884  -6.837  -1.819  0.00  0.00     0.000 HD
ENDBRANCH  17  18
ENDBRANCH  16  17
BRANCH  16  20
HETATM   20  N           1     -22.446  -6.145  -4.001  0.00  0.00    -0.067 N 
HETATM   21  H           1     -23.095  -6.825  -4.456  0.00  0.00     0.275 HD
HETATM   22  H           1     -22.385  -6.351  -2.978  0.00  0.00     0.275 HD
HETATM   23  H           1     -22.807  -5.174  -4.140  0.00  0.00     0.275 HD
ENDBRANCH  16  20
ENDBRANCH   1  16
TORSDOF 10
ENDMDL
MODEL 7
REMARK VINA RESULT:      -4.6      3.936      7.394
REMARK  10 active torsions:
REMARK  status: ('A' for Active; 'I' for Inactive)
REMARK    1  A    between atoms: C_1  and  C_2 
REMARK    2  A    between atoms: C_2  and  C_3 
REMARK    3  A    between atoms: C_2  and  N_8 
REMARK    4  A    between atoms: C_3  and  C_4 
REMARK    5  A    between atoms: C_4  and  C_11 
REMARK    6  A    between atoms: C_5  and  C_6 
REMARK    7  A    between atoms: C_5  and  Se_23 
REMARK    8  A    between atoms: C_6  and  C_7 
REMARK    9  A    between atoms: C_6  and  N_22 
REMARK       I    between atoms: C_7  and  N_8 
REMARK   10  A    between atoms: C_11  and  N_12 
ROOT
HETATM    1  C           1     -20.972  -5.171  -6.661  0.00  0.00     0.249 C 
HETATM    2  N           1     -21.181  -6.441  -6.198  0.00  0.00    -0.345 N 
HETATM    3  H           1     -21.637  -7.126  -6.788  0.00  0.00     0.163 HD
HETATM    4  O           1     -20.428  -4.353  -5.957  0.00  0.00    -0.271 OA
ENDROOT
BRANCH   2   5
HETATM    5  C           1     -20.750  -6.806  -4.863  0.00  0.00     0.185 C 
BRANCH   5   6
HETATM    6  C           1     -20.082  -8.159  -4.903  0.00  0.00     0.196 C 
HETATM    7  O           1     -20.338  -9.008  -4.022  0.00  0.00    -0.646 OA
HETATM    8  O           1     -19.274  -8.429  -5.817  0.00  0.00    -0.646 OA
ENDBRANCH   5   6
BRANCH   5   9
HETATM    9  C           1     -21.959  -6.864  -3.938  0.00  0.00     0.038 C 
BRANCH   9  10
HETATM   10  C           1     -21.658  -6.094  -2.659  0.00  0.00     0.030 C 
BRANCH  10  11
HETATM   11  C           1     -22.036  -6.943  -1.453  0.00  0.00     0.230 C 
BRANCH  11  12
HETATM   12  N           1     -20.968  -7.967  -1.208  0.00  0.00    -0.079 N 
HETATM   13  H           1     -20.094  -7.687  -1.708  0.00  0.00     0.274 HD
HETATM   14  H           1     -20.777  -8.032  -0.183  0.00  0.00     0.274 HD
HETATM   15  H           1     -21.289  -8.897  -1.562  0.00  0.00     0.274 HD
ENDBRANCH  11  12
ENDBRANCH  10  11
ENDBRANCH   9  10
ENDBRANCH   5   9
ENDBRANCH   2   5
BRANCH   1  16
HETATM   16  C           1     -21.421  -4.791  -8.051  0.00  0.00     0.274 C 
BRANCH  16  17
HETATM   17  C           1     -20.203  -4.471  -8.909  0.00  0.00     0.045 C 
BRANCH  17  18
HETATM   18 Se           1     -20.762  -4.197 -10.756  0.00  0.00     0.000 Se
HETATM   19  H           1     -21.439  -5.499 -10.865  0.00  0.00     0.000 HD
ENDBRANCH  17  18
ENDBRANCH  16  17
BRANCH  16  20
HETATM   20  N           1     -22.310  -3.585  -7.978  0.00  0.00    -0.067 N 
HETATM   21  H           1     -23.280  -3.880  -7.727  0.00  0.00     0.275 HD
HETATM   22  H           1     -21.945  -2.928  -7.251  0.00  0.00     0.275 HD
HETATM   23  H           1     -22.321  -3.105  -8.906  0.00  0.00     0.275 HD
ENDBRANCH  16  20
ENDBRANCH   1  16
TORSDOF 10
ENDMDL
MODEL 8
REMARK VINA RESULT:      -4.5      3.274      6.043
REMARK  10 active torsions:
REMARK  status: ('A' for Active; 'I' for Inactive)
REMARK    1  A    between atoms: C_1  and  C_2 
REMARK    2  A    between atoms: C_2  and  C_3 
REMARK    3  A    between atoms: C_2  and  N_8 
REMARK    4  A    between atoms: C_3  and  C_4 
REMARK    5  A    between atoms: C_4  and  C_11 
REMARK    6  A    between atoms: C_5  and  C_6 
REMARK    7  A    between atoms: C_5  and  Se_23 
REMARK    8  A    between atoms: C_6  and  C_7 
REMARK    9  A    between atoms: C_6  and  N_22 
REMARK       I    between atoms: C_7  and  N_8 
REMARK   10  A    between atoms: C_11  and  N_12 
ROOT
HETATM    1  C           1     -22.579  -3.918 -10.637  0.00  0.00     0.249 C 
HETATM    2  N           1     -21.526  -4.075  -9.777  0.00  0.00    -0.345 N 
HETATM    3  H           1     -20.645  -3.614  -9.966  0.00  0.00     0.163 HD
HETATM    4  O           1     -23.631  -4.467 -10.412  0.00  0.00    -0.271 OA
ENDROOT
BRANCH   2   5
HETATM    5  C           1     -21.673  -4.902  -8.595  0.00  0.00     0.185 C 
BRANCH   5   6
HETATM    6  C           1     -22.319  -4.095  -7.496  0.00  0.00     0.196 C 
HETATM    7  O           1     -21.742  -3.083  -7.042  0.00  0.00    -0.646 OA
HETATM    8  O           1     -23.430  -4.439  -7.039  0.00  0.00    -0.646 OA
ENDBRANCH   5   6
BRANCH   5   9
HETATM    9  C           1     -20.301  -5.380  -8.137  0.00  0.00     0.038 C 
BRANCH   9  10
HETATM   10  C           1     -20.465  -6.390  -7.010  0.00  0.00     0.030 C 
BRANCH  10  11
HETATM   11  C           1     -20.022  -5.762  -5.696  0.00  0.00     0.230 C 
BRANCH  11  12
HETATM   12  N           1     -21.091  -5.960  -4.661  0.00  0.00    -0.079 N 
HETATM   13  H           1     -21.968  -5.482  -4.970  0.00  0.00     0.274 HD
HETATM   14  H           1     -21.275  -6.981  -4.542  0.00  0.00     0.274 HD
HETATM   15  H           1     -20.774  -5.553  -3.752  0.00  0.00     0.274 HD
ENDBRANCH  11  12
ENDBRANCH  10  11
ENDBRANCH   9  10
ENDBRANCH   5   9
ENDBRANCH   2   5
BRANCH   1  16
HETATM   16  C           1     -22.425  -3.057 -11.867  0.00  0.00     0.274 C 
BRANCH  16  17
HETATM   17  C           1     -23.795  -2.802 -12.484  0.00  0.00     0.045 C 
BRANCH  17  18
HETATM   18 Se           1     -23.577  -2.180 -14.318  0.00  0.00     0.000 Se
HETATM   19  H           1     -24.979  -1.756 -14.463  0.00  0.00     0.000 HD
ENDBRANCH  17  18
ENDBRANCH  16  17
BRANCH  16  20
HETATM   20  N           1     -21.552  -3.760 -12.864  0.00  0.00    -0.067 N 
HETATM   21  H           1     -20.759  -4.224 -12.368  0.00  0.00     0.275 HD
HETATM   22  H           1     -22.115  -4.479 -13.372  0.00  0.00     0.275 HD
HETATM   23  H           1     -21.176  -3.065 -13.548  0.00  0.00     0.275 HD
ENDBRANCH  16  20
ENDBRANCH   1  16
TORSDOF 10
ENDMDL
MODEL 9
REMARK VINA RESULT:      -4.4      4.053      7.376
REMARK  10 active torsions:
REMARK  status: ('A' for Active; 'I' for Inactive)
REMARK    1  A    between atoms: C_1  and  C_2 
REMARK    2  A    between atoms: C_2  and  C_3 
REMARK    3  A    between atoms: C_2  and  N_8 
REMARK    4  A    between atoms: C_3  and  C_4 
REMARK    5  A    between atoms: C_4  and  C_11 
REMARK    6  A    between atoms: C_5  and  C_6 
REMARK    7  A    between atoms: C_5  and  Se_23 
REMARK    8  A    between atoms: C_6  and  C_7 
REMARK    9  A    between atoms: C_6  and  N_22 
REMARK       I    between atoms: C_7  and  N_8 
REMARK   10  A    between atoms: C_11  and  N_12 
ROOT
HETATM    1  C           1     -21.405  -5.505  -5.705  0.00  0.00     0.249 C 
HETATM    2  N           1     -20.787  -6.381  -4.856  0.00  0.00    -0.345 N 
HETATM    3  H           1     -19.779  -6.373  -4.765  0.00  0.00     0.163 HD
HETATM    4  O           1     -22.608  -5.514  -5.813  0.00  0.00    -0.271 OA
ENDROOT
BRANCH   2   5
HETATM    5  C           1     -21.576  -7.323  -4.086  0.00  0.00     0.185 C 
BRANCH   5   6
HETATM    6  C           1     -21.646  -6.864  -2.650  0.00  0.00     0.196 C 
HETATM    7  O           1     -20.919  -7.401  -1.787  0.00  0.00    -0.646 OA
HETATM    8  O           1     -22.429  -5.945  -2.326  0.00  0.00    -0.646 OA
ENDBRANCH   5   6
BRANCH   5   9
HETATM    9  C           1     -20.926  -8.700  -4.148  0.00  0.00     0.038 C 
BRANCH   9  10
HETATM   10  C           1     -19.624  -8.611  -4.932  0.00  0.00     0.030 C 
BRANCH  10  11
HETATM   11  C           1     -18.535  -9.380  -4.195  0.00  0.00     0.230 C 
BRANCH  11  12
HETATM   12  N           1     -18.721  -9.216  -2.715  0.00  0.00    -0.079 N 
HETATM   13  H           1     -19.164 -10.076  -2.322  0.00  0.00     0.274 HD
HETATM   14  H           1     -17.792  -9.066  -2.262  0.00  0.00     0.274 HD
HETATM   15  H           1     -19.336  -8.391  -2.531  0.00  0.00     0.274 HD
ENDBRANCH  11  12
ENDBRANCH  10  11
ENDBRANCH   9  10
ENDBRANCH   5   9
ENDBRANCH   2   5
BRANCH   1  16
HETATM   16  C           1     -20.583  -4.525  -6.507  0.00  0.00     0.274 C 
BRANCH  16  17
HETATM   17  C           1     -21.507  -3.664  -7.360  0.00  0.00     0.045 C 
BRANCH  17  18
HETATM   18 Se           1     -21.432  -4.268  -9.211  0.00  0.00     0.000 Se
HETATM   19  H           1     -22.791  -3.808  -9.537  0.00  0.00     0.000 HD
ENDBRANCH  17  18
ENDBRANCH  16  17
BRANCH  16  20
HETATM   20  N           1     -19.638  -5.276  -7.397  0.00  0.00    -0.067 N 
HETATM   21  H           1     -18.681  -5.268  -6.977  0.00  0.00     0.275 HD
HETATM   22  H           1     -19.967  -6.262  -7.500  0.00  0.00     0.275 HD
HETATM   23  H           1     -19.608  -4.819  -8.337  0.00  0.00     0.275 HD
ENDBRANCH  16  20
ENDBRANCH   1  16
TORSDOF 10
ENDMDL
