MODEL 1
REMARK VINA RESULT:      -5.9      0.000      0.000
REMARK  7 active torsions:
REMARK  status: ('A' for Active; 'I' for Inactive)
REMARK    1  A    between atoms: C_1  and  C_9 
REMARK    2  A    between atoms: C_1  and  S_7 
REMARK    3  A    between atoms: N_3  and  C_10 
REMARK    4  A    between atoms: C_9  and  C_10 
REMARK    5  A    between atoms: C_10  and  C_11 
REMARK       I    between atoms: C_11  and  N_12 
REMARK    6  A    between atoms: N_12  and  C_17 
REMARK    7  A    between atoms: C_13  and  C_17 
ROOT
HETATM    1  C           1     -20.845  -4.238 -10.931  0.00  0.00     0.275 C 
ENDROOT
BRANCH   1   2
HETATM    2  N           1     -19.942  -3.129 -11.382  0.00  0.00    -0.066 N 
HETATM    3  H           1     -19.864  -2.413 -10.625  0.00  0.00     0.275 HD
HETATM    4  H           1     -18.994  -3.515 -11.594  0.00  0.00     0.275 HD
HETATM    5  H           1     -20.338  -2.685 -12.242  0.00  0.00     0.275 HD
ENDBRANCH   1   2
BRANCH   1   6
HETATM    6  C           1     -21.187  -4.047  -9.459  0.00  0.00     0.053 C 
BRANCH   6   7
HETATM    7  C           1     -20.251  -4.893  -8.606  0.00  0.00     0.076 C 
BRANCH   7   8
HETATM    8  S           1     -20.707  -4.724  -6.857  0.00  0.00    -0.173 SA
HETATM    9  C           1     -22.486  -4.495  -7.138  0.00  0.00     0.089 C 
ENDBRANCH   7   8
ENDBRANCH   6   7
ENDBRANCH   1   6
BRANCH   1  10
HETATM   10  C           1     -22.113  -4.218 -11.749  0.00  0.00     0.249 C 
HETATM   11  O           1     -23.014  -4.977 -11.486  0.00  0.00    -0.271 OA
HETATM   12  N           1     -22.243  -3.337 -12.789  0.00  0.00    -0.345 N 
HETATM   13  H           1     -21.487  -2.700 -13.010  0.00  0.00     0.163 HD
BRANCH  12  14
HETATM   14  C           1     -23.461  -3.316 -13.575  0.00  0.00     0.181 C 
HETATM   15  C           1     -24.621  -2.856 -12.702  0.00  0.00     0.043 C 
BRANCH  14  16
HETATM   16  C           1     -23.294  -2.365 -14.734  0.00  0.00     0.196 C 
HETATM   17  O           1     -24.045  -1.371 -14.841  0.00  0.00    -0.646 OA
HETATM   18  O           1     -22.405  -2.571 -15.589  0.00  0.00    -0.646 OA
ENDBRANCH  14  16
ENDBRANCH  12  14
ENDBRANCH   1  10
TORSDOF 7
ENDMDL
MODEL 2
REMARK VINA RESULT:      -5.7      3.188      4.484
REMARK  7 active torsions:
REMARK  status: ('A' for Active; 'I' for Inactive)
REMARK    1  A    between atoms: C_1  and  C_9 
REMARK    2  A    between atoms: C_1  and  S_7 
REMARK    3  A    between atoms: N_3  and  C_10 
REMARK    4  A    between atoms: C_9  and  C_10 
REMARK    5  A    between atoms: C_10  and  C_11 
REMARK       I    between atoms: C_11  and  N_12 
REMARK    6  A    between atoms: N_12  and  C_17 
REMARK    7  A    between atoms: C_13  and  C_17 
ROOT
HETATM    1  C           1     -21.251  -5.803  -7.096  0.00  0.00     0.275 C 
ENDROOT
BRANCH   1   2
HETATM    2  N           1     -19.857  -6.167  -7.513  0.00  0.00    -0.066 N 
HETATM    3  H           1     -19.284  -6.382  -6.666  0.00  0.00     0.275 HD
HETATM    4  H           1     -19.887  -7.008  -8.134  0.00  0.00     0.275 HD
HETATM    5  H           1     -19.427  -5.367  -8.030  0.00  0.00     0.275 HD
ENDBRANCH   1   2
BRANCH   1   6
HETATM    6  C           1     -21.262  -5.461  -5.612  0.00  0.00     0.053 C 
BRANCH   6   7
HETATM    7  C           1     -22.184  -6.423  -4.874  0.00  0.00     0.076 C 
BRANCH   7   8
HETATM    8  S           1     -21.284  -7.188  -3.496  0.00  0.00    -0.173 SA
HETATM    9  C           1     -22.098  -6.242  -2.178  0.00  0.00     0.089 C 
ENDBRANCH   7   8
ENDBRANCH   6   7
ENDBRANCH   1   6
BRANCH   1  10
HETATM   10  C           1     -21.718  -4.609  -7.892  0.00  0.00     0.249 C 
HETATM   11  O           1     -21.707  -3.509  -7.393  0.00  0.00    -0.271 OA
HETATM   12  N           1     -22.153  -4.773  -9.180  0.00  0.00    -0.345 N 
HETATM   13  H           1     -22.161  -5.695  -9.597  0.00  0.00     0.163 HD
BRANCH  12  14
HETATM   14  C           1     -22.602  -3.626  -9.945  0.00  0.00     0.181 C 
HETATM   15  C           1     -21.762  -3.500 -11.209  0.00  0.00     0.043 C 
BRANCH  14  16
HETATM   16  C           1     -24.052  -3.809 -10.319  0.00  0.00     0.196 C 
HETATM   17  O           1     -24.623  -2.962 -11.039  0.00  0.00    -0.646 OA
HETATM   18  O           1     -24.682  -4.808  -9.909  0.00  0.00    -0.646 OA
ENDBRANCH  14  16
ENDBRANCH  12  14
ENDBRANCH   1  10
TORSDOF 7
ENDMDL
MODEL 3
REMARK VINA RESULT:      -5.6      3.620      6.669
REMARK  7 active torsions:
REMARK  status: ('A' for Active; 'I' for Inactive)
REMARK    1  A    between atoms: C_1  and  C_9 
REMARK    2  A    between atoms: C_1  and  S_7 
REMARK    3  A    between atoms: N_3  and  C_10 
REMARK    4  A    between atoms: C_9  and  C_10 
REMARK    5  A    between atoms: C_10  and  C_11 
REMARK       I    between atoms: C_11  and  N_12 
REMARK    6  A    between atoms: N_12  and  C_17 
REMARK    7  A    between atoms: C_13  and  C_17 
ROOT
HETATM    1  C           1     -23.813  -3.843 -10.386  0.00  0.00     0.275 C 
ENDROOT
BRANCH   1   2
HETATM    2  N           1     -24.621  -3.244  -9.274  0.00  0.00    -0.066 N 
HETATM    3  H           1     -24.886  -2.264  -9.524  0.00  0.00     0.275 HD
HETATM    4  H           1     -25.487  -3.811  -9.127  0.00  0.00     0.275 HD
HETATM    5  H           1     -24.055  -3.238  -8.395  0.00  0.00     0.275 HD
ENDBRANCH   1   2
BRANCH   1   6
HETATM    6  C           1     -23.520  -2.775 -11.432  0.00  0.00     0.053 C 
BRANCH   6   7
HETATM    7  C           1     -24.221  -3.135 -12.736  0.00  0.00     0.076 C 
BRANCH   7   8
HETATM    8  S           1     -23.096  -2.840 -14.129  0.00  0.00    -0.173 SA
HETATM    9  C           1     -23.908  -1.330 -14.725  0.00  0.00     0.089 C 
ENDBRANCH   7   8
ENDBRANCH   6   7
ENDBRANCH   1   6
BRANCH   1  10
HETATM   10  C           1     -22.514  -4.375  -9.833  0.00  0.00     0.249 C 
HETATM   11  O           1     -21.591  -4.607 -10.576  0.00  0.00    -0.271 OA
HETATM   12  N           1     -22.381  -4.595  -8.488  0.00  0.00    -0.345 N 
HETATM   13  H           1     -23.156  -4.401  -7.865  0.00  0.00     0.163 HD
BRANCH  12  14
HETATM   14  C           1     -21.134  -5.106  -7.956  0.00  0.00     0.181 C 
HETATM   15  C           1     -20.215  -3.942  -7.609  0.00  0.00     0.043 C 
BRANCH  14  16
HETATM   16  C           1     -21.412  -5.916  -6.713  0.00  0.00     0.196 C 
HETATM   17  O           1     -20.908  -7.052  -6.581  0.00  0.00    -0.646 OA
HETATM   18  O           1     -22.147  -5.450  -5.816  0.00  0.00    -0.646 OA
ENDBRANCH  14  16
ENDBRANCH  12  14
ENDBRANCH   1  10
TORSDOF 7
ENDMDL
MODEL 4
REMARK VINA RESULT:      -5.5      4.105      7.220
REMARK  7 active torsions:
REMARK  status: ('A' for Active; 'I' for Inactive)
REMARK    1  A    between atoms: C_1  and  C_9 
REMARK    2  A    between atoms: C_1  and  S_7 
REMARK    3  A    between atoms: N_3  and  C_10 
REMARK    4  A    between atoms: C_9  and  C_10 
REMARK    5  A    between atoms: C_10  and  C_11 
REMARK       I    between atoms: C_11  and  N_12 
REMARK    6  A    between atoms: N_12  and  C_17 
REMARK    7  A    between atoms: C_13  and  C_17 
ROOT
HETATM    1  C           1     -22.793  -4.462  -9.351  0.00  0.00     0.275 C 
ENDROOT
BRANCH   1   2
HETATM    2  N           1     -23.809  -3.808  -8.462  0.00  0.00    -0.066 N 
HETATM    3  H           1     -23.539  -2.812  -8.298  0.00  0.00     0.275 HD
HETATM    4  H           1     -24.747  -3.842  -8.922  0.00  0.00     0.275 HD
HETATM    5  H           1     -23.850  -4.314  -7.548  0.00  0.00     0.275 HD
ENDBRANCH   1   2
BRANCH   1   6
HETATM    6  C           1     -22.320  -3.463 -10.399  0.00  0.00     0.053 C 
BRANCH   6   7
HETATM    7  C           1     -22.641  -3.996 -11.790  0.00  0.00     0.076 C 
BRANCH   7   8
HETATM    8  S           1     -23.988  -3.020 -12.515  0.00  0.00    -0.173 SA
HETATM    9  C           1     -23.194  -2.751 -14.125  0.00  0.00     0.089 C 
ENDBRANCH   7   8
ENDBRANCH   6   7
ENDBRANCH   1   6
BRANCH   1  10
HETATM   10  C           1     -21.617  -4.915  -8.520  0.00  0.00     0.249 C 
HETATM   11  O           1     -20.503  -4.882  -8.983  0.00  0.00    -0.271 OA
HETATM   12  N           1     -21.815  -5.363  -7.241  0.00  0.00    -0.345 N 
HETATM   13  H           1     -22.750  -5.391  -6.854  0.00  0.00     0.163 HD
BRANCH  12  14
HETATM   14  C           1     -20.686  -5.799  -6.443  0.00  0.00     0.181 C 
HETATM   15  C           1     -20.210  -4.648  -5.566  0.00  0.00     0.043 C 
BRANCH  14  16
HETATM   16  C           1     -21.104  -6.957  -5.572  0.00  0.00     0.196 C 
HETATM   17  O           1     -21.202  -8.104  -6.060  0.00  0.00    -0.646 OA
HETATM   18  O           1     -21.353  -6.770  -4.361  0.00  0.00    -0.646 OA
ENDBRANCH  14  16
ENDBRANCH  12  14
ENDBRANCH   1  10
TORSDOF 7
ENDMDL
MODEL 5
REMARK VINA RESULT:      -5.4      3.997      6.675
REMARK  7 active torsions:
REMARK  status: ('A' for Active; 'I' for Inactive)
REMARK    1  A    between atoms: C_1  and  C_9 
REMARK    2  A    between atoms: C_1  and  S_7 
REMARK    3  A    between atoms: N_3  and  C_10 
REMARK    4  A    between atoms: C_9  and  C_10 
REMARK    5  A    between atoms: C_10  and  C_11 
REMARK       I    between atoms: C_11  and  N_12 
REMARK    6  A    between atoms: N_12  and  C_17 
REMARK    7  A    between atoms: C_13  and  C_17 
ROOT
HETATM    1  C           1     -23.691  -4.451  -8.961  0.00  0.00     0.275 C 
ENDROOT
BRANCH   1   2
HETATM    2  N           1     -24.544  -3.218  -8.990  0.00  0.00    -0.066 N 
HETATM    3  H           1     -25.544  -3.482  -8.834  0.00  0.00     0.275 HD
HETATM    4  H           1     -24.236  -2.563  -8.237  0.00  0.00     0.275 HD
HETATM    5  H           1     -24.449  -2.750  -9.920  0.00  0.00     0.275 HD
ENDBRANCH   1   2
BRANCH   1   6
HETATM    6  C           1     -23.248  -4.794 -10.378  0.00  0.00     0.053 C 
BRANCH   6   7
HETATM    7  C           1     -23.831  -3.779 -11.353  0.00  0.00     0.076 C 
BRANCH   7   8
HETATM    8  S           1     -22.483  -2.868 -12.156  0.00  0.00    -0.173 SA
HETATM    9  C           1     -23.308  -2.664 -13.760  0.00  0.00     0.089 C 
ENDBRANCH   7   8
ENDBRANCH   6   7
ENDBRANCH   1   6
BRANCH   1  10
HETATM   10  C           1     -22.477  -4.201  -8.101  0.00  0.00     0.249 C 
HETATM   11  O           1     -21.813  -3.207  -8.267  0.00  0.00    -0.271 OA
HETATM   12  N           1     -22.128  -5.102  -7.130  0.00  0.00    -0.345 N 
HETATM   13  H           1     -22.685  -5.936  -6.991  0.00  0.00     0.163 HD
BRANCH  12  14
HETATM   14  C           1     -20.962  -4.863  -6.303  0.00  0.00     0.181 C 
HETATM   15  C           1     -21.124  -5.590  -4.975  0.00  0.00     0.043 C 
BRANCH  14  16
HETATM   16  C           1     -19.732  -5.375  -7.011  0.00  0.00     0.196 C 
HETATM   17  O           1     -19.578  -6.603  -7.189  0.00  0.00    -0.646 OA
HETATM   18  O           1     -18.865  -4.571  -7.419  0.00  0.00    -0.646 OA
ENDBRANCH  14  16
ENDBRANCH  12  14
ENDBRANCH   1  10
TORSDOF 7
ENDMDL
MODEL 6
REMARK VINA RESULT:      -5.4      2.675      3.337
REMARK  7 active torsions:
REMARK  status: ('A' for Active; 'I' for Inactive)
REMARK    1  A    between atoms: C_1  and  C_9 
REMARK    2  A    between atoms: C_1  and  S_7 
REMARK    3  A    between atoms: N_3  and  C_10 
REMARK    4  A    between atoms: C_9  and  C_10 
REMARK    5  A    between atoms: C_10  and  C_11 
REMARK       I    between atoms: C_11  and  N_12 
REMARK    6  A    between atoms: N_12  and  C_17 
REMARK    7  A    between atoms: C_13  and  C_17 
ROOT
HETATM    1  C           1     -20.434  -3.850  -7.875  0.00  0.00     0.275 C 
ENDROOT
BRANCH   1   2
HETATM    2  N           1     -21.528  -3.179  -7.099  0.00  0.00    -0.066 N 
HETATM    3  H           1     -21.116  -2.451  -6.473  0.00  0.00     0.275 HD
HETATM    4  H           1     -22.199  -2.728  -7.762  0.00  0.00     0.275 HD
HETATM    5  H           1     -22.033  -3.890  -6.522  0.00  0.00     0.275 HD
ENDBRANCH   1   2
BRANCH   1   6
HETATM    6  C           1     -19.997  -5.114  -7.146  0.00  0.00     0.053 C 
BRANCH   6   7
HETATM    7  C           1     -20.232  -4.946  -5.650  0.00  0.00     0.076 C 
BRANCH   7   8
HETATM    8  S           1     -21.335  -6.261  -5.059  0.00  0.00    -0.173 SA
HETATM    9  C           1     -20.141  -7.617  -5.239  0.00  0.00     0.089 C 
ENDBRANCH   7   8
ENDBRANCH   6   7
ENDBRANCH   1   6
BRANCH   1  10
HETATM   10  C           1     -20.941  -4.211  -9.250  0.00  0.00     0.249 C 
HETATM   11  O           1     -20.193  -4.704 -10.059  0.00  0.00    -0.271 OA
HETATM   12  N           1     -22.250  -3.981  -9.579  0.00  0.00    -0.345 N 
HETATM   13  H           1     -22.877  -3.568  -8.899  0.00  0.00     0.163 HD
BRANCH  12  14
HETATM   14  C           1     -22.738  -4.328 -10.899  0.00  0.00     0.181 C 
HETATM   15  C           1     -23.828  -5.384 -10.776  0.00  0.00     0.043 C 
BRANCH  14  16
HETATM   16  C           1     -23.302  -3.097 -11.565  0.00  0.00     0.196 C 
HETATM   17  O           1     -24.534  -2.889 -11.555  0.00  0.00    -0.646 OA
HETATM   18  O           1     -22.536  -2.284 -12.127  0.00  0.00    -0.646 OA
ENDBRANCH  14  16
ENDBRANCH  12  14
ENDBRANCH   1  10
TORSDOF 7
ENDMDL
MODEL 7
REMARK VINA RESULT:      -5.1      5.392      8.614
REMARK  7 active torsions:
REMARK  status: ('A' for Active; 'I' for Inactive)
REMARK    1  A    between atoms: C_1  and  C_9 
REMARK    2  A    between atoms: C_1  and  S_7 
REMARK    3  A    between atoms: N_3  and  C_10 
REMARK    4  A    between atoms: C_9  and  C_10 
REMARK    5  A    between atoms: C_10  and  C_11 
REMARK       I    between atoms: C_11  and  N_12 
REMARK    6  A    between atoms: N_12  and  C_17 
REMARK    7  A    between atoms: C_13  and  C_17 
ROOT
HETATM    1  C           1     -20.529  -4.956  -6.629  0.00  0.00     0.275 C 
ENDROOT
BRANCH   1   2
HETATM    2  N           1     -20.041  -5.848  -7.732  0.00  0.00    -0.066 N 
HETATM    3  H           1     -19.031  -5.651  -7.918  0.00  0.00     0.275 HD
HETATM    4  H           1     -20.153  -6.847  -7.447  0.00  0.00     0.275 HD
HETATM    5  H           1     -20.596  -5.668  -8.599  0.00  0.00     0.275 HD
ENDBRANCH   1   2
BRANCH   1   6
HETATM    6  C           1     -21.311  -3.794  -7.227  0.00  0.00     0.053 C 
BRANCH   6   7
HETATM    7  C           1     -21.572  -4.061  -8.704  0.00  0.00     0.076 C 
BRANCH   7   8
HETATM    8  S           1     -23.359  -4.031  -9.018  0.00  0.00    -0.173 SA
HETATM    9  C           1     -23.247  -3.480 -10.744  0.00  0.00     0.089 C 
ENDBRANCH   7   8
ENDBRANCH   6   7
ENDBRANCH   1   6
BRANCH   1  10
HETATM   10  C           1     -21.425  -5.744  -5.706  0.00  0.00     0.249 C 
HETATM   11  O           1     -22.619  -5.567  -5.726  0.00  0.00    -0.271 OA
HETATM   12  N           1     -20.884  -6.661  -4.844  0.00  0.00    -0.345 N 
HETATM   13  H           1     -19.883  -6.809  -4.827  0.00  0.00     0.163 HD
BRANCH  12  14
HETATM   14  C           1     -21.744  -7.418  -3.956  0.00  0.00     0.181 C 
HETATM   15  C           1     -21.326  -8.882  -3.971  0.00  0.00     0.043 C 
BRANCH  14  16
HETATM   16  C           1     -21.624  -6.873  -2.555  0.00  0.00     0.196 C 
HETATM   17  O           1     -20.835  -7.404  -1.743  0.00  0.00    -0.646 OA
HETATM   18  O           1     -22.313  -5.890  -2.205  0.00  0.00    -0.646 OA
ENDBRANCH  14  16
ENDBRANCH  12  14
ENDBRANCH   1  10
TORSDOF 7
ENDMDL
MODEL 8
REMARK VINA RESULT:      -5.1      4.104      7.055
REMARK  7 active torsions:
REMARK  status: ('A' for Active; 'I' for Inactive)
REMARK    1  A    between atoms: C_1  and  C_9 
REMARK    2  A    between atoms: C_1  and  S_7 
REMARK    3  A    between atoms: N_3  and  C_10 
REMARK    4  A    between atoms: C_9  and  C_10 
REMARK    5  A    between atoms: C_10  and  C_11 
REMARK       I    between atoms: C_11  and  N_12 
REMARK    6  A    between atoms: N_12  and  C_17 
REMARK    7  A    between atoms: C_13  and  C_17 
ROOT
HETATM    1  C           1     -21.424  -4.137  -9.190  0.00  0.00     0.275 C 
ENDROOT
BRANCH   1   2
HETATM    2  N           1     -20.094  -4.742  -9.529  0.00  0.00    -0.066 N 
HETATM    3  H           1     -20.198  -5.777  -9.629  0.00  0.00     0.275 HD
HETATM    4  H           1     -19.748  -4.339 -10.429  0.00  0.00     0.275 HD
HETATM    5  H           1     -19.411  -4.533  -8.766  0.00  0.00     0.275 HD
ENDBRANCH   1   2
BRANCH   1   6
HETATM    6  C           1     -22.421  -4.451 -10.298  0.00  0.00     0.053 C 
BRANCH   6   7
HETATM    7  C           1     -21.760  -4.236 -11.653  0.00  0.00     0.076 C 
BRANCH   7   8
HETATM    8  S           1     -22.719  -3.030 -12.611  0.00  0.00    -0.173 SA
HETATM    9  C           1     -24.275  -3.245 -11.700  0.00  0.00     0.089 C 
ENDBRANCH   7   8
ENDBRANCH   6   7
ENDBRANCH   1   6
BRANCH   1  10
HETATM   10  C           1     -21.921  -4.714  -7.887  0.00  0.00     0.249 C 
HETATM   11  O           1     -23.000  -4.388  -7.454  0.00  0.00    -0.271 OA
HETATM   12  N           1     -21.149  -5.610  -7.196  0.00  0.00    -0.345 N 
HETATM   13  H           1     -20.244  -5.883  -7.560  0.00  0.00     0.163 HD
BRANCH  12  14
HETATM   14  C           1     -21.626  -6.165  -5.945  0.00  0.00     0.181 C 
HETATM   15  C           1     -21.297  -7.651  -5.891  0.00  0.00     0.043 C 
BRANCH  14  16
HETATM   16  C           1     -20.953  -5.458  -4.794  0.00  0.00     0.196 C 
HETATM   17  O           1     -21.292  -5.715  -3.618  0.00  0.00    -0.646 OA
HETATM   18  O           1     -20.057  -4.614  -5.016  0.00  0.00    -0.646 OA
ENDBRANCH  14  16
ENDBRANCH  12  14
ENDBRANCH   1  10
TORSDOF 7
ENDMDL
MODEL 9
REMARK VINA RESULT:      -5.1      4.943      7.995
REMARK  7 active torsions:
REMARK  status: ('A' for Active; 'I' for Inactive)
REMARK    1  A    between atoms: C_1  and  C_9 
REMARK    2  A    between atoms: C_1  and  S_7 
REMARK    3  A    between atoms: N_3  and  C_10 
REMARK    4  A    between atoms: C_9  and  C_10 
REMARK    5  A    between atoms: C_10  and  C_11 
REMARK       I    between atoms: C_11  and  N_12 
REMARK    6  A    between atoms: N_12  and  C_17 
REMARK    7  A    between atoms: C_13  and  C_17 
ROOT
HETATM    1  C           1     -22.104  -4.355  -7.267  0.00  0.00     0.275 C 
ENDROOT
BRANCH   1   2
HETATM    2  N           1     -21.661  -2.924  -7.209  0.00  0.00    -0.066 N 
HETATM    3  H           1     -21.536  -2.637  -6.212  0.00  0.00     0.275 HD
HETATM    4  H           1     -20.753  -2.820  -7.716  0.00  0.00     0.275 HD
HETATM    5  H           1     -22.383  -2.316  -7.659  0.00  0.00     0.275 HD
ENDBRANCH   1   2
BRANCH   1   6
HETATM    6  C           1     -21.845  -4.911  -8.661  0.00  0.00     0.053 C 
BRANCH   6   7
HETATM    7  C           1     -22.363  -3.928  -9.704  0.00  0.00     0.076 C 
BRANCH   7   8
HETATM    8  S           1     -23.841  -4.616 -10.502  0.00  0.00    -0.173 SA
HETATM    9  C           1     -24.134  -3.215 -11.618  0.00  0.00     0.089 C 
ENDBRANCH   7   8
ENDBRANCH   6   7
ENDBRANCH   1   6
BRANCH   1  10
HETATM   10  C           1     -21.331  -5.162  -6.252  0.00  0.00     0.249 C 
HETATM   11  O           1     -20.124  -5.156  -6.270  0.00  0.00    -0.271 OA
HETATM   12  N           1     -21.998  -5.899  -5.311  0.00  0.00    -0.345 N 
HETATM   13  H           1     -23.011  -5.904  -5.297  0.00  0.00     0.163 HD
BRANCH  12  14
HETATM   14  C           1     -21.256  -6.674  -4.336  0.00  0.00     0.181 C 
HETATM   15  C           1     -21.819  -6.413  -2.945  0.00  0.00     0.043 C 
BRANCH  14  16
HETATM   16  C           1     -21.380  -8.142  -4.663  0.00  0.00     0.196 C 
HETATM   17  O           1     -21.772  -8.946  -3.789  0.00  0.00    -0.646 OA
HETATM   18  O           1     -21.089  -8.554  -5.807  0.00  0.00    -0.646 OA
ENDBRANCH  14  16
ENDBRANCH  12  14
ENDBRANCH   1  10
TORSDOF 7
ENDMDL
