MODEL 1
REMARK VINA RESULT:      -6.0      0.000      0.000
REMARK  9 active torsions:
REMARK  status: ('A' for Active; 'I' for Inactive)
REMARK       I    between atoms: C_2  and  N_15 
REMARK    1  A    between atoms: C_2  and  C_8 
REMARK    2  A    between atoms: C_8  and  C_12 
REMARK    3  A    between atoms: C_8  and  N_10 
REMARK    4  A    between atoms: O_11  and  C_12 
REMARK    5  A    between atoms: C_13  and  C_21 
REMARK    6  A    between atoms: C_13  and  C_18 
REMARK    7  A    between atoms: N_15  and  C_19 
REMARK    8  A    between atoms: C_18  and  C_19 
REMARK    9  A    between atoms: C_19  and  C_20 
ROOT
HETATM    1  C           1     -21.566  -4.453  -8.100  0.00  0.00     0.251 C 
HETATM    2  H           1     -22.154  -5.766  -9.587  0.00  0.00     0.163 HD
HETATM    3  O           1     -21.584  -3.302  -7.730  0.00  0.00    -0.271 OA
HETATM    4  N           1     -22.169  -4.802  -9.278  0.00  0.00    -0.345 N 
ENDROOT
BRANCH   4   5
HETATM    5  C           1     -22.830  -3.793 -10.082  0.00  0.00     0.186 C 
BRANCH   5   6
HETATM    6  C           1     -22.566  -4.066 -11.556  0.00  0.00     0.046 C 
BRANCH   6   7
HETATM    7  C           1     -22.672  -2.765 -12.341  0.00  0.00     0.116 C 
BRANCH   7   8
HETATM    8  C           1     -23.749  -2.895 -13.390  0.00  0.00     0.172 C 
HETATM    9  O           1     -23.437  -3.017 -14.594  0.00  0.00    -0.648 OA
HETATM   10  O           1     -24.953  -2.882 -13.054  0.00  0.00    -0.648 OA
ENDBRANCH   7   8
ENDBRANCH   6   7
ENDBRANCH   5   6
BRANCH   5  11
HETATM   11  C           1     -24.316  -3.835  -9.820  0.00  0.00     0.196 C 
HETATM   12  O           1     -24.932  -2.782  -9.551  0.00  0.00    -0.646 OA
HETATM   13  O           1     -24.929  -4.923  -9.872  0.00  0.00    -0.646 OA
ENDBRANCH   5  11
ENDBRANCH   4   5
BRANCH   1  14
HETATM   14  C           1     -20.878  -5.503  -7.263  0.00  0.00     0.297 C 
BRANCH  14  15
HETATM   15  C           1     -21.677  -5.741  -5.988  0.00  0.00     0.206 C 
BRANCH  15  16
HETATM   16  O           1     -22.969  -5.218  -6.141  0.00  0.00    -0.398 OA
HETATM   17  H           1     -22.985  -4.766  -6.967  0.00  0.00     0.209 HD
ENDBRANCH  15  16
ENDBRANCH  14  15
BRANCH  14  18
HETATM   18  N           1     -19.498  -5.035  -6.908  0.00  0.00    -0.064 N 
HETATM   19  H           1     -19.280  -5.307  -5.923  0.00  0.00     0.275 HD
HETATM   20  H           1     -18.805  -5.476  -7.553  0.00  0.00     0.275 HD
HETATM   21  H           1     -19.449  -3.995  -7.002  0.00  0.00     0.275 HD
ENDBRANCH  14  18
ENDBRANCH   1  14
TORSDOF 9
ENDMDL
MODEL 2
REMARK VINA RESULT:      -5.5      7.790     10.660
REMARK  9 active torsions:
REMARK  status: ('A' for Active; 'I' for Inactive)
REMARK       I    between atoms: C_2  and  N_15 
REMARK    1  A    between atoms: C_2  and  C_8 
REMARK    2  A    between atoms: C_8  and  C_12 
REMARK    3  A    between atoms: C_8  and  N_10 
REMARK    4  A    between atoms: O_11  and  C_12 
REMARK    5  A    between atoms: C_13  and  C_21 
REMARK    6  A    between atoms: C_13  and  C_18 
REMARK    7  A    between atoms: N_15  and  C_19 
REMARK    8  A    between atoms: C_18  and  C_19 
REMARK    9  A    between atoms: C_19  and  C_20 
ROOT
HETATM    1  C           1     -27.050  -6.252 -19.012  0.00  0.00     0.251 C 
HETATM    2  H           1     -25.635  -7.427 -18.066  0.00  0.00     0.163 HD
HETATM    3  O           1     -27.931  -5.439 -18.852  0.00  0.00    -0.271 OA
HETATM    4  N           1     -26.372  -6.747 -17.932  0.00  0.00    -0.345 N 
ENDROOT
BRANCH   4   5
HETATM    5  C           1     -26.709  -6.297 -16.595  0.00  0.00     0.186 C 
BRANCH   5   6
HETATM    6  C           1     -27.829  -7.163 -16.035  0.00  0.00     0.046 C 
BRANCH   6   7
HETATM    7  C           1     -28.984  -6.276 -15.590  0.00  0.00     0.116 C 
BRANCH   7   8
HETATM    8  C           1     -30.065  -6.290 -16.643  0.00  0.00     0.172 C 
HETATM    9  O           1     -30.238  -7.308 -17.348  0.00  0.00    -0.648 OA
HETATM   10  O           1     -30.788  -5.285 -16.810  0.00  0.00    -0.648 OA
ENDBRANCH   7   8
ENDBRANCH   6   7
ENDBRANCH   5   6
BRANCH   5  11
HETATM   11  C           1     -25.494  -6.408 -15.706  0.00  0.00     0.196 C 
HETATM   12  O           1     -24.910  -5.375 -15.315  0.00  0.00    -0.646 OA
HETATM   13  O           1     -25.073  -7.533 -15.360  0.00  0.00    -0.646 OA
ENDBRANCH   5  11
ENDBRANCH   4   5
BRANCH   1  14
HETATM   14  C           1     -26.700  -6.720 -20.403  0.00  0.00     0.297 C 
BRANCH  14  15
HETATM   15  C           1     -27.432  -8.022 -20.701  0.00  0.00     0.206 C 
BRANCH  15  16
HETATM   16  O           1     -28.485  -8.185 -19.791  0.00  0.00    -0.398 OA
HETATM   17  H           1     -29.283  -8.008 -20.261  0.00  0.00     0.209 HD
ENDBRANCH  15  16
ENDBRANCH  14  15
BRANCH  14  18
HETATM   18  N           1     -25.220  -6.946 -20.496  0.00  0.00    -0.064 N 
HETATM   19  H           1     -24.827  -6.368 -21.272  0.00  0.00     0.275 HD
HETATM   20  H           1     -24.769  -6.672 -19.595  0.00  0.00     0.275 HD
HETATM   21  H           1     -25.034  -7.958 -20.686  0.00  0.00     0.275 HD
ENDBRANCH  14  18
ENDBRANCH   1  14
TORSDOF 9
ENDMDL
MODEL 3
REMARK VINA RESULT:      -5.2      2.212      6.426
REMARK  9 active torsions:
REMARK  status: ('A' for Active; 'I' for Inactive)
REMARK       I    between atoms: C_2  and  N_15 
REMARK    1  A    between atoms: C_2  and  C_8 
REMARK    2  A    between atoms: C_8  and  C_12 
REMARK    3  A    between atoms: C_8  and  N_10 
REMARK    4  A    between atoms: O_11  and  C_12 
REMARK    5  A    between atoms: C_13  and  C_21 
REMARK    6  A    between atoms: C_13  and  C_18 
REMARK    7  A    between atoms: N_15  and  C_19 
REMARK    8  A    between atoms: C_18  and  C_19 
REMARK    9  A    between atoms: C_19  and  C_20 
ROOT
HETATM    1  C           1     -23.043  -4.296  -9.068  0.00  0.00     0.251 C 
HETATM    2  H           1     -22.306  -6.223  -8.907  0.00  0.00     0.163 HD
HETATM    3  O           1     -22.915  -3.152  -8.699  0.00  0.00    -0.271 OA
HETATM    4  N           1     -22.199  -5.265  -8.598  0.00  0.00    -0.345 N 
ENDROOT
BRANCH   4   5
HETATM    5  C           1     -21.150  -4.920  -7.659  0.00  0.00     0.186 C 
BRANCH   5   6
HETATM    6  C           1     -20.929  -6.078  -6.696  0.00  0.00     0.046 C 
BRANCH   6   7
HETATM    7  C           1     -20.950  -5.560  -5.264  0.00  0.00     0.116 C 
BRANCH   7   8
HETATM    8  C           1     -21.790  -6.476  -4.409  0.00  0.00     0.172 C 
HETATM    9  O           1     -22.232  -6.074  -3.311  0.00  0.00    -0.648 OA
HETATM   10  O           1     -22.044  -7.636  -4.798  0.00  0.00    -0.648 OA
ENDBRANCH   7   8
ENDBRANCH   6   7
ENDBRANCH   5   6
BRANCH   5  11
HETATM   11  C           1     -19.872  -4.641  -8.413  0.00  0.00     0.196 C 
HETATM   12  O           1     -18.855  -4.257  -7.797  0.00  0.00    -0.646 OA
HETATM   13  O           1     -19.831  -4.796  -9.653  0.00  0.00    -0.646 OA
ENDBRANCH   5  11
ENDBRANCH   4   5
BRANCH   1  14
HETATM   14  C           1     -24.135  -4.656 -10.045  0.00  0.00     0.297 C 
BRANCH  14  15
HETATM   15  C           1     -23.613  -4.510 -11.468  0.00  0.00     0.206 C 
BRANCH  15  16
HETATM   16  O           1     -22.212  -4.451 -11.448  0.00  0.00    -0.398 OA
HETATM   17  H           1     -21.940  -4.682 -10.576  0.00  0.00     0.209 HD
ENDBRANCH  15  16
ENDBRANCH  14  15
BRANCH  14  18
HETATM   18  N           1     -25.306  -3.738  -9.846  0.00  0.00    -0.064 N 
HETATM   19  H           1     -25.588  -3.746  -8.840  0.00  0.00     0.275 HD
HETATM   20  H           1     -25.038  -2.768 -10.125  0.00  0.00     0.275 HD
HETATM   21  H           1     -26.106  -4.063 -10.436  0.00  0.00     0.275 HD
ENDBRANCH  14  18
ENDBRANCH   1  14
TORSDOF 9
ENDMDL
MODEL 4
REMARK VINA RESULT:      -5.2      1.770      2.527
REMARK  9 active torsions:
REMARK  status: ('A' for Active; 'I' for Inactive)
REMARK       I    between atoms: C_2  and  N_15 
REMARK    1  A    between atoms: C_2  and  C_8 
REMARK    2  A    between atoms: C_8  and  C_12 
REMARK    3  A    between atoms: C_8  and  N_10 
REMARK    4  A    between atoms: O_11  and  C_12 
REMARK    5  A    between atoms: C_13  and  C_21 
REMARK    6  A    between atoms: C_13  and  C_18 
REMARK    7  A    between atoms: N_15  and  C_19 
REMARK    8  A    between atoms: C_18  and  C_19 
REMARK    9  A    between atoms: C_19  and  C_20 
ROOT
HETATM    1  C           1     -21.885  -4.663  -7.721  0.00  0.00     0.251 C 
HETATM    2  H           1     -22.695  -5.647  -9.350  0.00  0.00     0.163 HD
HETATM    3  O           1     -21.781  -3.599  -7.156  0.00  0.00    -0.271 OA
HETATM    4  N           1     -22.608  -4.756  -8.878  0.00  0.00    -0.345 N 
ENDROOT
BRANCH   4   5
HETATM    5  C           1     -23.251  -3.579  -9.428  0.00  0.00     0.186 C 
BRANCH   5   6
HETATM    6  C           1     -22.583  -3.203 -10.743  0.00  0.00     0.046 C 
BRANCH   6   7
HETATM    7  C           1     -21.900  -4.428 -11.336  0.00  0.00     0.116 C 
BRANCH   7   8
HETATM    8  C           1     -20.406  -4.306 -11.163  0.00  0.00     0.172 C 
HETATM    9  O           1     -19.789  -5.134 -10.459  0.00  0.00    -0.648 OA
HETATM   10  O           1     -19.786  -3.377 -11.722  0.00  0.00    -0.648 OA
ENDBRANCH   7   8
ENDBRANCH   6   7
ENDBRANCH   5   6
BRANCH   5  11
HETATM   11  C           1     -24.712  -3.871  -9.671  0.00  0.00     0.196 C 
HETATM   12  O           1     -25.107  -5.053  -9.755  0.00  0.00    -0.646 OA
HETATM   13  O           1     -25.526  -2.929  -9.788  0.00  0.00    -0.646 OA
ENDBRANCH   5  11
ENDBRANCH   4   5
BRANCH   1  14
HETATM   14  C           1     -21.216  -5.888  -7.148  0.00  0.00     0.297 C 
BRANCH  14  15
HETATM   15  C           1     -21.316  -5.860  -5.629  0.00  0.00     0.206 C 
BRANCH  15  16
HETATM   16  O           1     -22.664  -5.916  -5.248  0.00  0.00    -0.398 OA
HETATM   17  H           1     -23.120  -6.387  -5.924  0.00  0.00     0.209 HD
ENDBRANCH  15  16
ENDBRANCH  14  15
BRANCH  14  18
HETATM   18  N           1     -19.771  -5.904  -7.553  0.00  0.00    -0.064 N 
HETATM   19  H           1     -19.700  -6.072  -8.582  0.00  0.00     0.275 HD
HETATM   20  H           1     -19.335  -4.985  -7.319  0.00  0.00     0.275 HD
HETATM   21  H           1     -19.274  -6.668  -7.040  0.00  0.00     0.275 HD
ENDBRANCH  14  18
ENDBRANCH   1  14
TORSDOF 9
ENDMDL
MODEL 5
REMARK VINA RESULT:      -5.1      2.333      3.581
REMARK  9 active torsions:
REMARK  status: ('A' for Active; 'I' for Inactive)
REMARK       I    between atoms: C_2  and  N_15 
REMARK    1  A    between atoms: C_2  and  C_8 
REMARK    2  A    between atoms: C_8  and  C_12 
REMARK    3  A    between atoms: C_8  and  N_10 
REMARK    4  A    between atoms: O_11  and  C_12 
REMARK    5  A    between atoms: C_13  and  C_21 
REMARK    6  A    between atoms: C_13  and  C_18 
REMARK    7  A    between atoms: N_15  and  C_19 
REMARK    8  A    between atoms: C_18  and  C_19 
REMARK    9  A    between atoms: C_19  and  C_20 
ROOT
HETATM    1  C           1     -21.204  -6.192  -6.185  0.00  0.00     0.251 C 
HETATM    2  H           1     -21.469  -4.139  -6.192  0.00  0.00     0.163 HD
HETATM    3  O           1     -21.149  -7.186  -6.871  0.00  0.00    -0.271 OA
HETATM    4  N           1     -21.423  -4.972  -6.766  0.00  0.00    -0.345 N 
ENDROOT
BRANCH   4   5
HETATM    5  C           1     -21.589  -4.871  -8.203  0.00  0.00     0.186 C 
BRANCH   5   6
HETATM    6  C           1     -22.660  -3.837  -8.519  0.00  0.00     0.046 C 
BRANCH   6   7
HETATM    7  C           1     -23.673  -4.433  -9.487  0.00  0.00     0.116 C 
BRANCH   7   8
HETATM    8  C           1     -23.861  -3.501 -10.658  0.00  0.00     0.172 C 
HETATM    9  O           1     -22.866  -3.077 -11.285  0.00  0.00    -0.648 OA
HETATM   10  O           1     -25.011  -3.152 -11.002  0.00  0.00    -0.648 OA
ENDBRANCH   7   8
ENDBRANCH   6   7
ENDBRANCH   5   6
BRANCH   5  11
HETATM   11  C           1     -20.282  -4.452  -8.832  0.00  0.00     0.196 C 
HETATM   12  O           1     -19.419  -3.865  -8.146  0.00  0.00    -0.646 OA
HETATM   13  O           1     -20.064  -4.694 -10.039  0.00  0.00    -0.646 OA
ENDBRANCH   5  11
ENDBRANCH   4   5
BRANCH   1  14
HETATM   14  C           1     -21.032  -6.296  -4.690  0.00  0.00     0.297 C 
BRANCH  14  15
HETATM   15  C           1     -20.485  -7.673  -4.336  0.00  0.00     0.206 C 
BRANCH  15  16
HETATM   16  O           1     -21.535  -8.601  -4.315  0.00  0.00    -0.398 OA
HETATM   17  H           1     -22.303  -8.140  -4.025  0.00  0.00     0.209 HD
ENDBRANCH  15  16
ENDBRANCH  14  15
BRANCH  14  18
HETATM   18  N           1     -22.358  -6.097  -4.019  0.00  0.00    -0.064 N 
HETATM   19  H           1     -22.250  -5.425  -3.226  0.00  0.00     0.275 HD
HETATM   20  H           1     -23.043  -5.715  -4.708  0.00  0.00     0.275 HD
HETATM   21  H           1     -22.704  -7.014  -3.654  0.00  0.00     0.275 HD
ENDBRANCH  14  18
ENDBRANCH   1  14
TORSDOF 9
ENDMDL
MODEL 6
REMARK VINA RESULT:      -5.1      8.958     11.193
REMARK  9 active torsions:
REMARK  status: ('A' for Active; 'I' for Inactive)
REMARK       I    between atoms: C_2  and  N_15 
REMARK    1  A    between atoms: C_2  and  C_8 
REMARK    2  A    between atoms: C_8  and  C_12 
REMARK    3  A    between atoms: C_8  and  N_10 
REMARK    4  A    between atoms: O_11  and  C_12 
REMARK    5  A    between atoms: C_13  and  C_21 
REMARK    6  A    between atoms: C_13  and  C_18 
REMARK    7  A    between atoms: N_15  and  C_19 
REMARK    8  A    between atoms: C_18  and  C_19 
REMARK    9  A    between atoms: C_19  and  C_20 
ROOT
HETATM    1  C           1     -27.229  -6.274 -18.969  0.00  0.00     0.251 C 
HETATM    2  H           1     -26.817  -7.604 -17.439  0.00  0.00     0.163 HD
HETATM    3  O           1     -28.018  -5.458 -19.388  0.00  0.00    -0.271 OA
HETATM    4  N           1     -27.477  -6.922 -17.789  0.00  0.00    -0.345 N 
ENDROOT
BRANCH   4   5
HETATM    5  C           1     -28.684  -6.630 -17.041  0.00  0.00     0.186 C 
BRANCH   5   6
HETATM    6  C           1     -29.699  -7.743 -17.262  0.00  0.00     0.046 C 
BRANCH   6   7
HETATM    7  C           1     -30.774  -7.265 -18.230  0.00  0.00     0.116 C 
BRANCH   7   8
HETATM    8  C           1     -31.808  -6.463 -17.478  0.00  0.00     0.172 C 
HETATM    9  O           1     -31.511  -5.343 -17.010  0.00  0.00    -0.648 OA
HETATM   10  O           1     -32.962  -6.919 -17.324  0.00  0.00    -0.648 OA
ENDBRANCH   7   8
ENDBRANCH   6   7
ENDBRANCH   5   6
BRANCH   5  11
HETATM   11  C           1     -28.354  -6.535 -15.571  0.00  0.00     0.196 C 
HETATM   12  O           1     -28.623  -5.493 -14.937  0.00  0.00    -0.646 OA
HETATM   13  O           1     -27.812  -7.499 -14.988  0.00  0.00    -0.646 OA
ENDBRANCH   5  11
ENDBRANCH   4   5
BRANCH   1  14
HETATM   14  C           1     -25.973  -6.577 -19.748  0.00  0.00     0.297 C 
BRANCH  14  15
HETATM   15  C           1     -26.263  -7.660 -20.779  0.00  0.00     0.206 C 
BRANCH  15  16
HETATM   16  O           1     -27.528  -8.213 -20.534  0.00  0.00    -0.398 OA
HETATM   17  H           1     -27.782  -8.673 -21.316  0.00  0.00     0.209 HD
ENDBRANCH  15  16
ENDBRANCH  14  15
BRANCH  14  18
HETATM   18  N           1     -24.906  -7.054 -18.808  0.00  0.00    -0.064 N 
HETATM   19  H           1     -25.224  -7.929 -18.335  0.00  0.00     0.275 HD
HETATM   20  H           1     -24.031  -7.247 -19.345  0.00  0.00     0.275 HD
HETATM   21  H           1     -24.719  -6.317 -18.090  0.00  0.00     0.275 HD
ENDBRANCH  14  18
ENDBRANCH   1  14
TORSDOF 9
ENDMDL
MODEL 7
REMARK VINA RESULT:      -4.9      3.781      7.853
REMARK  9 active torsions:
REMARK  status: ('A' for Active; 'I' for Inactive)
REMARK       I    between atoms: C_2  and  N_15 
REMARK    1  A    between atoms: C_2  and  C_8 
REMARK    2  A    between atoms: C_8  and  C_12 
REMARK    3  A    between atoms: C_8  and  N_10 
REMARK    4  A    between atoms: O_11  and  C_12 
REMARK    5  A    between atoms: C_13  and  C_21 
REMARK    6  A    between atoms: C_13  and  C_18 
REMARK    7  A    between atoms: N_15  and  C_19 
REMARK    8  A    between atoms: C_18  and  C_19 
REMARK    9  A    between atoms: C_19  and  C_20 
ROOT
HETATM    1  C           1     -20.669  -4.940  -6.357  0.00  0.00     0.251 C 
HETATM    2  H           1     -21.451  -6.761  -6.952  0.00  0.00     0.163 HD
HETATM    3  O           1     -20.162  -4.330  -5.445  0.00  0.00    -0.271 OA
HETATM    4  N           1     -21.027  -6.250  -6.188  0.00  0.00    -0.345 N 
ENDROOT
BRANCH   4   5
HETATM    5  C           1     -20.796  -6.907  -4.917  0.00  0.00     0.186 C 
BRANCH   5   6
HETATM    6  C           1     -22.033  -6.764  -4.040  0.00  0.00     0.046 C 
BRANCH   6   7
HETATM    7  C           1     -21.638  -6.165  -2.697  0.00  0.00     0.116 C 
BRANCH   7   8
HETATM    8  C           1     -21.954  -7.147  -1.595  0.00  0.00     0.172 C 
HETATM    9  O           1     -22.727  -6.818  -0.669  0.00  0.00    -0.648 OA
HETATM   10  O           1     -21.444  -8.287  -1.609  0.00  0.00    -0.648 OA
ENDBRANCH   7   8
ENDBRANCH   6   7
ENDBRANCH   5   6
BRANCH   5  11
HETATM   11  C           1     -20.512  -8.371  -5.151  0.00  0.00     0.196 C 
HETATM   12  O           1     -21.356  -9.231  -4.823  0.00  0.00    -0.646 OA
HETATM   13  O           1     -19.432  -8.722  -5.673  0.00  0.00    -0.646 OA
ENDBRANCH   5  11
ENDBRANCH   4   5
BRANCH   1  14
HETATM   14  C           1     -20.908  -4.256  -7.680  0.00  0.00     0.297 C 
BRANCH  14  15
HETATM   15  C           1     -22.396  -4.285  -8.006  0.00  0.00     0.206 C 
BRANCH  15  16
HETATM   16  O           1     -23.134  -4.348  -6.816  0.00  0.00    -0.398 OA
HETATM   17  H           1     -23.731  -3.619  -6.824  0.00  0.00     0.209 HD
ENDBRANCH  15  16
ENDBRANCH  14  15
BRANCH  14  18
HETATM   18  N           1     -20.147  -4.971  -8.757  0.00  0.00    -0.064 N 
HETATM   19  H           1     -20.758  -5.700  -9.190  0.00  0.00     0.275 HD
HETATM   20  H           1     -19.852  -4.286  -9.487  0.00  0.00     0.275 HD
HETATM   21  H           1     -19.302  -5.426  -8.342  0.00  0.00     0.275 HD
ENDBRANCH  14  18
ENDBRANCH   1  14
TORSDOF 9
ENDMDL
MODEL 8
REMARK VINA RESULT:      -4.8      2.330      6.346
REMARK  9 active torsions:
REMARK  status: ('A' for Active; 'I' for Inactive)
REMARK       I    between atoms: C_2  and  N_15 
REMARK    1  A    between atoms: C_2  and  C_8 
REMARK    2  A    between atoms: C_8  and  C_12 
REMARK    3  A    between atoms: C_8  and  N_10 
REMARK    4  A    between atoms: O_11  and  C_12 
REMARK    5  A    between atoms: C_13  and  C_21 
REMARK    6  A    between atoms: C_13  and  C_18 
REMARK    7  A    between atoms: N_15  and  C_19 
REMARK    8  A    between atoms: C_18  and  C_19 
REMARK    9  A    between atoms: C_19  and  C_20 
ROOT
HETATM    1  C           1     -22.892  -3.195 -11.704  0.00  0.00     0.251 C 
HETATM    2  H           1     -23.190  -5.054 -10.846  0.00  0.00     0.163 HD
HETATM    3  O           1     -22.355  -2.119 -11.576  0.00  0.00    -0.271 OA
HETATM    4  N           1     -22.741  -4.154 -10.739  0.00  0.00    -0.345 N 
ENDROOT
BRANCH   4   5
HETATM    5  C           1     -21.938  -3.880  -9.564  0.00  0.00     0.186 C 
BRANCH   5   6
HETATM    6  C           1     -22.432  -4.730  -8.402  0.00  0.00     0.046 C 
BRANCH   6   7
HETATM    7  C           1     -21.804  -4.235  -7.106  0.00  0.00     0.116 C 
BRANCH   7   8
HETATM    8  C           1     -21.159  -5.391  -6.383  0.00  0.00     0.172 C 
HETATM    9  O           1     -20.887  -6.442  -7.003  0.00  0.00    -0.648 OA
HETATM   10  O           1     -20.898  -5.300  -5.164  0.00  0.00    -0.648 OA
ENDBRANCH   7   8
ENDBRANCH   6   7
ENDBRANCH   5   6
BRANCH   5  11
HETATM   11  C           1     -20.494  -4.212  -9.853  0.00  0.00     0.196 C 
HETATM   12  O           1     -20.200  -4.910 -10.847  0.00  0.00    -0.646 OA
HETATM   13  O           1     -19.592  -3.788  -9.098  0.00  0.00    -0.646 OA
ENDBRANCH   5  11
ENDBRANCH   4   5
BRANCH   1  14
HETATM   14  C           1     -23.728  -3.480 -12.927  0.00  0.00     0.297 C 
BRANCH  14  15
HETATM   15  C           1     -23.260  -2.602 -14.080  0.00  0.00     0.206 C 
BRANCH  15  16
HETATM   16  O           1     -24.094  -1.480 -14.182  0.00  0.00    -0.398 OA
HETATM   17  H           1     -24.022  -1.010 -13.368  0.00  0.00     0.209 HD
ENDBRANCH  15  16
ENDBRANCH  14  15
BRANCH  14  18
HETATM   18  N           1     -25.168  -3.186 -12.628  0.00  0.00    -0.064 N 
HETATM   19  H           1     -25.406  -2.227 -12.969  0.00  0.00     0.275 HD
HETATM   20  H           1     -25.773  -3.887 -13.110  0.00  0.00     0.275 HD
HETATM   21  H           1     -25.327  -3.238 -11.596  0.00  0.00     0.275 HD
ENDBRANCH  14  18
ENDBRANCH   1  14
TORSDOF 9
ENDMDL
MODEL 9
REMARK VINA RESULT:      -4.8      2.132      2.780
REMARK  9 active torsions:
REMARK  status: ('A' for Active; 'I' for Inactive)
REMARK       I    between atoms: C_2  and  N_15 
REMARK    1  A    between atoms: C_2  and  C_8 
REMARK    2  A    between atoms: C_8  and  C_12 
REMARK    3  A    between atoms: C_8  and  N_10 
REMARK    4  A    between atoms: O_11  and  C_12 
REMARK    5  A    between atoms: C_13  and  C_21 
REMARK    6  A    between atoms: C_13  and  C_18 
REMARK    7  A    between atoms: N_15  and  C_19 
REMARK    8  A    between atoms: C_18  and  C_19 
REMARK    9  A    between atoms: C_19  and  C_20 
ROOT
HETATM    1  C           1     -21.499  -4.926  -7.841  0.00  0.00     0.251 C 
HETATM    2  H           1     -22.078  -3.019  -8.397  0.00  0.00     0.163 HD
HETATM    3  O           1     -21.225  -6.035  -8.238  0.00  0.00    -0.271 OA
HETATM    4  N           1     -21.849  -3.947  -8.730  0.00  0.00    -0.345 N 
ENDROOT
BRANCH   4   5
HETATM    5  C           1     -21.892  -4.238 -10.150  0.00  0.00     0.186 C 
BRANCH   5   6
HETATM    6  C           1     -22.972  -3.391 -10.809  0.00  0.00     0.046 C 
BRANCH   6   7
HETATM    7  C           1     -22.845  -3.494 -12.323  0.00  0.00     0.116 C 
BRANCH   7   8
HETATM    8  C           1     -24.220  -3.525 -12.944  0.00  0.00     0.172 C 
HETATM    9  O           1     -24.423  -4.193 -13.980  0.00  0.00    -0.648 OA
HETATM   10  O           1     -25.156  -2.883 -12.421  0.00  0.00    -0.648 OA
ENDBRANCH   7   8
ENDBRANCH   6   7
ENDBRANCH   5   6
BRANCH   5  11
HETATM   11  C           1     -20.553  -3.919 -10.769  0.00  0.00     0.196 C 
HETATM   12  O           1     -19.734  -4.836 -10.992  0.00  0.00    -0.646 OA
HETATM   13  O           1     -20.264  -2.738 -11.060  0.00  0.00    -0.646 OA
ENDBRANCH   5  11
ENDBRANCH   4   5
BRANCH   1  14
HETATM   14  C           1     -21.454  -4.623  -6.363  0.00  0.00     0.297 C 
BRANCH  14  15
HETATM   15  C           1     -20.016  -4.706  -5.870  0.00  0.00     0.206 C 
BRANCH  15  16
HETATM   16  O           1     -19.141  -4.618  -6.962  0.00  0.00    -0.398 OA
HETATM   17  H           1     -19.440  -3.901  -7.495  0.00  0.00     0.209 HD
ENDBRANCH  15  16
ENDBRANCH  14  15
BRANCH  14  18
HETATM   18  N           1     -22.295  -5.621  -5.623  0.00  0.00    -0.064 N 
HETATM   19  H           1     -22.097  -5.551  -4.599  0.00  0.00     0.275 HD
HETATM   20  H           1     -23.305  -5.422  -5.797  0.00  0.00     0.275 HD
HETATM   21  H           1     -22.066  -6.585  -5.957  0.00  0.00     0.275 HD
ENDBRANCH  14  18
ENDBRANCH   1  14
TORSDOF 9
ENDMDL
