MODEL 1
REMARK VINA RESULT:      -7.0      0.000      0.000
REMARK  8 active torsions:
REMARK  status: ('A' for Active; 'I' for Inactive)
REMARK    1  A    between atoms: C_1  and  C_3 
REMARK    2  A    between atoms: C_3  and  C_4 
REMARK    3  A    between atoms: C_4  and  C_16 
REMARK    4  A    between atoms: C_4  and  N_10 
REMARK    5  A    between atoms: C_12  and  C_21 
REMARK    6  A    between atoms: C_12  and  C_13 
REMARK    7  A    between atoms: C_13  and  C_14 
REMARK    8  A    between atoms: C_13  and  N_18 
REMARK       I    between atoms: C_16  and  N_18 
REMARK       I    between atoms: N_20  and  C_21 
ROOT
HETATM    1  O           1     -36.448  -1.357 -12.502  0.00  0.00    -0.271 OA
HETATM    2  H           1     -33.813  -0.926 -14.148  0.00  0.00     0.163 HD
HETATM    3  C           1     -35.267  -1.399 -12.754  0.00  0.00     0.249 C 
HETATM    4  N           1     -34.802  -0.892 -13.937  0.00  0.00    -0.344 N 
ENDROOT
BRANCH   4   5
HETATM    5  C           1     -35.726  -0.305 -14.888  0.00  0.00     0.194 C 
BRANCH   5   6
HETATM    6  C           1     -35.327   1.140 -15.157  0.00  0.00     0.138 C 
BRANCH   6   7
HETATM    7  C           1     -36.416   1.825 -15.946  0.00  0.00     0.217 C 
HETATM    8  O           1     -36.142   2.737 -16.689  0.00  0.00    -0.274 OA
HETATM    9  N           1     -37.716   1.411 -15.820  0.00  0.00    -0.370 N 
HETATM   10  H           1     -37.945   0.646 -15.198  0.00  0.00     0.159 HD
HETATM   11  H           1     -38.446   1.870 -16.349  0.00  0.00     0.159 HD
ENDBRANCH   6   7
ENDBRANCH   5   6
BRANCH   5  12
HETATM   12  C           1     -35.683  -1.087 -16.178  0.00  0.00     0.197 C 
HETATM   13  O           1     -36.708  -1.180 -16.887  0.00  0.00    -0.646 OA
HETATM   14  O           1     -34.623  -1.642 -16.538  0.00  0.00    -0.646 OA
ENDBRANCH   5  12
ENDBRANCH   4   5
BRANCH   3  15
HETATM   15  C           1     -34.307  -2.010 -11.764  0.00  0.00     0.278 C 
BRANCH  15  16
HETATM   16  C           1     -34.232  -3.514 -11.989  0.00  0.00     0.021 C 
HETATM   17  C           1     -32.780  -3.967 -11.923  0.00  0.00     0.012 C 
BRANCH  16  18
HETATM   18  C           1     -35.037  -4.228 -10.911  0.00  0.00     0.002 C 
HETATM   19  C           1     -34.311  -5.500 -10.493  0.00  0.00     0.005 C 
ENDBRANCH  16  18
ENDBRANCH  15  16
BRANCH  15  20
HETATM   20  N           1     -34.786  -1.736 -10.370  0.00  0.00    -0.066 N 
HETATM   21  H           1     -35.767  -2.082 -10.264  0.00  0.00     0.275 HD
HETATM   22  H           1     -34.757  -0.708 -10.186  0.00  0.00     0.275 HD
HETATM   23  H           1     -34.168  -2.229  -9.686  0.00  0.00     0.275 HD
ENDBRANCH  15  20
ENDBRANCH   3  15
TORSDOF 8
ENDMDL
MODEL 2
REMARK VINA RESULT:      -6.7     12.278     14.300
REMARK  8 active torsions:
REMARK  status: ('A' for Active; 'I' for Inactive)
REMARK    1  A    between atoms: C_1  and  C_3 
REMARK    2  A    between atoms: C_3  and  C_4 
REMARK    3  A    between atoms: C_4  and  C_16 
REMARK    4  A    between atoms: C_4  and  N_10 
REMARK    5  A    between atoms: C_12  and  C_21 
REMARK    6  A    between atoms: C_12  and  C_13 
REMARK    7  A    between atoms: C_13  and  C_14 
REMARK    8  A    between atoms: C_13  and  N_18 
REMARK       I    between atoms: C_16  and  N_18 
REMARK       I    between atoms: N_20  and  C_21 
ROOT
HETATM    1  O           1     -21.302  -3.570  -8.288  0.00  0.00    -0.271 OA
HETATM    2  H           1     -24.269  -4.577  -8.440  0.00  0.00     0.163 HD
HETATM    3  C           1     -22.333  -4.076  -7.911  0.00  0.00     0.249 C 
HETATM    4  N           1     -23.406  -4.153  -8.756  0.00  0.00    -0.344 N 
ENDROOT
BRANCH   4   5
HETATM    5  C           1     -23.307  -3.628 -10.104  0.00  0.00     0.194 C 
BRANCH   5   6
HETATM    6  C           1     -22.696  -4.684 -11.016  0.00  0.00     0.138 C 
BRANCH   6   7
HETATM    7  C           1     -21.603  -4.059 -11.847  0.00  0.00     0.217 C 
HETATM    8  O           1     -20.466  -4.046 -11.439  0.00  0.00    -0.274 OA
HETATM    9  N           1     -21.900  -3.506 -13.065  0.00  0.00    -0.370 N 
HETATM   10  H           1     -22.852  -3.517 -13.406  0.00  0.00     0.159 HD
HETATM   11  H           1     -21.167  -3.087 -13.622  0.00  0.00     0.159 HD
ENDBRANCH   6   7
ENDBRANCH   5   6
BRANCH   5  12
HETATM   12  C           1     -24.685  -3.267 -10.604  0.00  0.00     0.197 C 
HETATM   13  O           1     -25.628  -3.132  -9.796  0.00  0.00    -0.646 OA
HETATM   14  O           1     -24.882  -3.101 -11.827  0.00  0.00    -0.646 OA
ENDBRANCH   5  12
ENDBRANCH   4   5
BRANCH   3  15
HETATM   15  C           1     -22.435  -4.622  -6.508  0.00  0.00     0.278 C 
BRANCH  15  16
HETATM   16  C           1     -21.461  -5.780  -6.341  0.00  0.00     0.021 C 
HETATM   17  C           1     -20.125  -5.252  -5.835  0.00  0.00     0.012 C 
BRANCH  16  18
HETATM   18  C           1     -22.025  -6.776  -5.337  0.00  0.00     0.002 C 
HETATM   19  C           1     -21.159  -8.029  -5.321  0.00  0.00     0.005 C 
ENDBRANCH  16  18
ENDBRANCH  15  16
BRANCH  15  20
HETATM   20  N           1     -23.833  -5.106  -6.262  0.00  0.00    -0.066 N 
HETATM   21  H           1     -23.976  -5.253  -5.238  0.00  0.00     0.275 HD
HETATM   22  H           1     -23.983  -6.008  -6.769  0.00  0.00     0.275 HD
HETATM   23  H           1     -24.515  -4.395  -6.610  0.00  0.00     0.275 HD
ENDBRANCH  15  20
ENDBRANCH   3  15
TORSDOF 8
ENDMDL
MODEL 3
REMARK VINA RESULT:      -6.3     12.528     14.610
REMARK  8 active torsions:
REMARK  status: ('A' for Active; 'I' for Inactive)
REMARK    1  A    between atoms: C_1  and  C_3 
REMARK    2  A    between atoms: C_3  and  C_4 
REMARK    3  A    between atoms: C_4  and  C_16 
REMARK    4  A    between atoms: C_4  and  N_10 
REMARK    5  A    between atoms: C_12  and  C_21 
REMARK    6  A    between atoms: C_12  and  C_13 
REMARK    7  A    between atoms: C_13  and  C_14 
REMARK    8  A    between atoms: C_13  and  N_18 
REMARK       I    between atoms: C_16  and  N_18 
REMARK       I    between atoms: N_20  and  C_21 
ROOT
HETATM    1  O           1     -19.872  -4.889  -9.804  0.00  0.00    -0.271 OA
HETATM    2  H           1     -22.630  -3.468  -9.338  0.00  0.00     0.163 HD
HETATM    3  C           1     -20.734  -4.287  -9.208  0.00  0.00     0.249 C 
HETATM    4  N           1     -21.908  -3.972  -9.837  0.00  0.00    -0.344 N 
ENDROOT
BRANCH   4   5
HETATM    5  C           1     -22.119  -4.362 -11.217  0.00  0.00     0.194 C 
BRANCH   5   6
HETATM    6  C           1     -23.538  -4.887 -11.385  0.00  0.00     0.138 C 
BRANCH   6   7
HETATM    7  C           1     -24.478  -4.083 -10.520  0.00  0.00     0.217 C 
HETATM    8  O           1     -24.676  -2.916 -10.764  0.00  0.00    -0.274 OA
HETATM    9  N           1     -25.106  -4.676  -9.457  0.00  0.00    -0.370 N 
HETATM   10  H           1     -24.940  -5.653  -9.252  0.00  0.00     0.159 HD
HETATM   11  H           1     -25.736  -4.137  -8.877  0.00  0.00     0.159 HD
ENDBRANCH   6   7
ENDBRANCH   5   6
BRANCH   5  12
HETATM   12  C           1     -21.915  -3.164 -12.113  0.00  0.00     0.197 C 
HETATM   13  O           1     -21.282  -2.172 -11.695  0.00  0.00    -0.646 OA
HETATM   14  O           1     -22.379  -3.166 -13.274  0.00  0.00    -0.646 OA
ENDBRANCH   5  12
ENDBRANCH   4   5
BRANCH   3  15
HETATM   15  C           1     -20.514  -3.882  -7.772  0.00  0.00     0.278 C 
BRANCH  15  16
HETATM   16  C           1     -20.112  -5.102  -6.955  0.00  0.00     0.021 C 
HETATM   17  C           1     -19.879  -4.691  -5.507  0.00  0.00     0.012 C 
BRANCH  16  18
HETATM   18  C           1     -21.225  -6.141  -7.015  0.00  0.00     0.002 C 
HETATM   19  C           1     -21.560  -6.609  -5.605  0.00  0.00     0.005 C 
ENDBRANCH  16  18
ENDBRANCH  15  16
BRANCH  15  20
HETATM   20  N           1     -21.782  -3.305  -7.217  0.00  0.00    -0.066 N 
HETATM   21  H           1     -21.659  -2.279  -7.060  0.00  0.00     0.275 HD
HETATM   22  H           1     -22.010  -3.772  -6.310  0.00  0.00     0.275 HD
HETATM   23  H           1     -22.563  -3.462  -7.894  0.00  0.00     0.275 HD
ENDBRANCH  15  20
ENDBRANCH   3  15
TORSDOF 8
ENDMDL
MODEL 4
REMARK VINA RESULT:      -6.2      9.783     11.551
REMARK  8 active torsions:
REMARK  status: ('A' for Active; 'I' for Inactive)
REMARK    1  A    between atoms: C_1  and  C_3 
REMARK    2  A    between atoms: C_3  and  C_4 
REMARK    3  A    between atoms: C_4  and  C_16 
REMARK    4  A    between atoms: C_4  and  N_10 
REMARK    5  A    between atoms: C_12  and  C_21 
REMARK    6  A    between atoms: C_12  and  C_13 
REMARK    7  A    between atoms: C_13  and  C_14 
REMARK    8  A    between atoms: C_13  and  N_18 
REMARK       I    between atoms: C_16  and  N_18 
REMARK       I    between atoms: N_20  and  C_21 
ROOT
HETATM    1  O           1     -25.892  -5.776 -16.793  0.00  0.00    -0.271 OA
HETATM    2  H           1     -27.523  -7.134 -19.102  0.00  0.00     0.163 HD
HETATM    3  C           1     -26.088  -6.321 -17.853  0.00  0.00     0.249 C 
HETATM    4  N           1     -27.359  -6.678 -18.214  0.00  0.00    -0.344 N 
ENDROOT
BRANCH   4   5
HETATM    5  C           1     -28.470  -6.403 -17.324  0.00  0.00     0.194 C 
BRANCH   5   6
HETATM    6  C           1     -29.735  -6.188 -18.144  0.00  0.00     0.138 C 
BRANCH   6   7
HETATM    7  C           1     -30.866  -5.786 -17.230  0.00  0.00     0.217 C 
HETATM    8  O           1     -30.800  -4.755 -16.604  0.00  0.00    -0.274 OA
HETATM    9  N           1     -31.968  -6.591 -17.109  0.00  0.00    -0.370 N 
HETATM   10  H           1     -32.023  -7.455 -17.633  0.00  0.00     0.159 HD
HETATM   11  H           1     -32.726  -6.321 -16.495  0.00  0.00     0.159 HD
ENDBRANCH   6   7
ENDBRANCH   5   6
BRANCH   5  12
HETATM   12  C           1     -28.667  -7.572 -16.391  0.00  0.00     0.197 C 
HETATM   13  O           1     -28.153  -7.556 -15.252  0.00  0.00    -0.646 OA
HETATM   14  O           1     -29.346  -8.556 -16.755  0.00  0.00    -0.646 OA
ENDBRANCH   5  12
ENDBRANCH   4   5
BRANCH   3  15
HETATM   15  C           1     -24.931  -6.607 -18.778  0.00  0.00     0.278 C 
BRANCH  15  16
HETATM   16  C           1     -25.462  -7.089 -20.122  0.00  0.00     0.021 C 
HETATM   17  C           1     -25.583  -5.907 -21.074  0.00  0.00     0.012 C 
BRANCH  16  18
HETATM   18  C           1     -24.502  -8.116 -20.707  0.00  0.00     0.002 C 
HETATM   19  C           1     -24.176  -7.745 -22.148  0.00  0.00     0.005 C 
ENDBRANCH  16  18
ENDBRANCH  15  16
BRANCH  15  20
HETATM   20  N           1     -24.061  -7.670 -18.175  0.00  0.00    -0.066 N 
HETATM   21  H           1     -24.658  -8.453 -17.827  0.00  0.00     0.275 HD
HETATM   22  H           1     -23.517  -7.264 -17.380  0.00  0.00     0.275 HD
HETATM   23  H           1     -23.400  -8.031 -18.899  0.00  0.00     0.275 HD
ENDBRANCH  15  20
ENDBRANCH   3  15
TORSDOF 8
ENDMDL
MODEL 5
REMARK VINA RESULT:      -6.2      1.778      3.059
REMARK  8 active torsions:
REMARK  status: ('A' for Active; 'I' for Inactive)
REMARK    1  A    between atoms: C_1  and  C_3 
REMARK    2  A    between atoms: C_3  and  C_4 
REMARK    3  A    between atoms: C_4  and  C_16 
REMARK    4  A    between atoms: C_4  and  N_10 
REMARK    5  A    between atoms: C_12  and  C_21 
REMARK    6  A    between atoms: C_12  and  C_13 
REMARK    7  A    between atoms: C_13  and  C_14 
REMARK    8  A    between atoms: C_13  and  N_18 
REMARK       I    between atoms: C_16  and  N_18 
REMARK       I    between atoms: N_20  and  C_21 
ROOT
HETATM    1  O           1     -34.580   0.677 -13.175  0.00  0.00    -0.271 OA
HETATM    2  H           1     -35.760  -2.081 -14.093  0.00  0.00     0.163 HD
HETATM    3  C           1     -34.995  -0.453 -13.070  0.00  0.00     0.249 C 
HETATM    4  N           1     -35.413  -1.134 -14.181  0.00  0.00    -0.344 N 
ENDROOT
BRANCH   4   5
HETATM    5  C           1     -35.359  -0.500 -15.483  0.00  0.00     0.194 C 
BRANCH   5   6
HETATM    6  C           1     -35.609  -1.542 -16.565  0.00  0.00     0.138 C 
BRANCH   6   7
HETATM    7  C           1     -34.579  -2.640 -16.454  0.00  0.00     0.217 C 
HETATM    8  O           1     -34.579  -3.373 -15.495  0.00  0.00    -0.274 OA
HETATM    9  N           1     -33.644  -2.804 -17.442  0.00  0.00    -0.370 N 
HETATM   10  H           1     -33.644  -2.189 -18.246  0.00  0.00     0.159 HD
HETATM   11  H           1     -32.954  -3.539 -17.368  0.00  0.00     0.159 HD
ENDBRANCH   6   7
ENDBRANCH   5   6
BRANCH   5  12
HETATM   12  C           1     -36.417   0.573 -15.564  0.00  0.00     0.197 C 
HETATM   13  O           1     -36.151   1.675 -16.089  0.00  0.00    -0.646 OA
HETATM   14  O           1     -37.561   0.360 -15.106  0.00  0.00    -0.646 OA
ENDBRANCH   5  12
ENDBRANCH   4   5
BRANCH   3  15
HETATM   15  C           1     -35.051  -1.112 -11.714  0.00  0.00     0.278 C 
BRANCH  15  16
HETATM   16  C           1     -34.543  -2.544 -11.823  0.00  0.00     0.021 C 
HETATM   17  C           1     -33.160  -2.641 -11.192  0.00  0.00     0.012 C 
BRANCH  16  18
HETATM   18  C           1     -35.500  -3.478 -11.096  0.00  0.00     0.002 C 
HETATM   19  C           1     -34.795  -4.794 -10.794  0.00  0.00     0.005 C 
ENDBRANCH  16  18
ENDBRANCH  15  16
BRANCH  15  20
HETATM   20  N           1     -36.468  -1.122 -11.222  0.00  0.00    -0.066 N 
HETATM   21  H           1     -36.505  -1.561 -10.275  0.00  0.00     0.275 HD
HETATM   22  H           1     -37.063  -1.669 -11.885  0.00  0.00     0.275 HD
HETATM   23  H           1     -36.824  -0.141 -11.165  0.00  0.00     0.275 HD
ENDBRANCH  15  20
ENDBRANCH   3  15
TORSDOF 8
ENDMDL
MODEL 6
REMARK VINA RESULT:      -6.0     12.443     14.386
REMARK  8 active torsions:
REMARK  status: ('A' for Active; 'I' for Inactive)
REMARK    1  A    between atoms: C_1  and  C_3 
REMARK    2  A    between atoms: C_3  and  C_4 
REMARK    3  A    between atoms: C_4  and  C_16 
REMARK    4  A    between atoms: C_4  and  N_10 
REMARK    5  A    between atoms: C_12  and  C_21 
REMARK    6  A    between atoms: C_12  and  C_13 
REMARK    7  A    between atoms: C_13  and  C_14 
REMARK    8  A    between atoms: C_13  and  N_18 
REMARK       I    between atoms: C_16  and  N_18 
REMARK       I    between atoms: N_20  and  C_21 
ROOT
HETATM    1  O           1     -20.644  -5.289  -8.807  0.00  0.00    -0.271 OA
HETATM    2  H           1     -23.396  -3.881  -9.339  0.00  0.00     0.163 HD
HETATM    3  C           1     -21.680  -4.725  -8.548  0.00  0.00     0.249 C 
HETATM    4  N           1     -22.527  -4.353  -9.556  0.00  0.00    -0.344 N 
ENDROOT
BRANCH   4   5
HETATM    5  C           1     -22.182  -4.637 -10.935  0.00  0.00     0.194 C 
BRANCH   5   6
HETATM    6  C           1     -23.453  -4.716 -11.771  0.00  0.00     0.138 C 
BRANCH   6   7
HETATM    7  C           1     -24.267  -3.461 -11.568  0.00  0.00     0.217 C 
HETATM    8  O           1     -24.816  -3.261 -10.511  0.00  0.00    -0.274 OA
HETATM    9  N           1     -24.383  -2.549 -12.584  0.00  0.00    -0.370 N 
HETATM   10  H           1     -23.924  -2.717 -13.470  0.00  0.00     0.159 HD
HETATM   11  H           1     -24.929  -1.708 -12.448  0.00  0.00     0.159 HD
ENDBRANCH   6   7
ENDBRANCH   5   6
BRANCH   5  12
HETATM   12  C           1     -21.297  -3.536 -11.468  0.00  0.00     0.197 C 
HETATM   13  O           1     -21.758  -2.386 -11.627  0.00  0.00    -0.646 OA
HETATM   14  O           1     -20.102  -3.775 -11.747  0.00  0.00    -0.646 OA
ENDBRANCH   5  12
ENDBRANCH   4   5
BRANCH   3  15
HETATM   15  C           1     -22.039  -4.430  -7.113  0.00  0.00     0.278 C 
BRANCH  15  16
HETATM   16  C           1     -21.351  -5.437  -6.199  0.00  0.00     0.021 C 
HETATM   17  C           1     -20.310  -4.722  -5.348  0.00  0.00     0.012 C 
BRANCH  16  18
HETATM   18  C           1     -22.387  -6.089  -5.293  0.00  0.00     0.002 C 
HETATM   19  C           1     -21.877  -7.449  -4.834  0.00  0.00     0.005 C 
ENDBRANCH  16  18
ENDBRANCH  15  16
BRANCH  15  20
HETATM   20  N           1     -23.525  -4.533  -6.939  0.00  0.00    -0.066 N 
HETATM   21  H           1     -23.739  -4.944  -6.002  0.00  0.00     0.275 HD
HETATM   22  H           1     -23.922  -5.145  -7.688  0.00  0.00     0.275 HD
HETATM   23  H           1     -23.951  -3.581  -7.007  0.00  0.00     0.275 HD
ENDBRANCH  15  20
ENDBRANCH   3  15
TORSDOF 8
ENDMDL
MODEL 7
REMARK VINA RESULT:      -6.0     13.418     16.206
REMARK  8 active torsions:
REMARK  status: ('A' for Active; 'I' for Inactive)
REMARK    1  A    between atoms: C_1  and  C_3 
REMARK    2  A    between atoms: C_3  and  C_4 
REMARK    3  A    between atoms: C_4  and  C_16 
REMARK    4  A    between atoms: C_4  and  N_10 
REMARK    5  A    between atoms: C_12  and  C_21 
REMARK    6  A    between atoms: C_12  and  C_13 
REMARK    7  A    between atoms: C_13  and  C_14 
REMARK    8  A    between atoms: C_13  and  N_18 
REMARK       I    between atoms: C_16  and  N_18 
REMARK       I    between atoms: N_20  and  C_21 
ROOT
HETATM    1  O           1     -21.983  -3.265  -7.601  0.00  0.00    -0.271 OA
HETATM    2  H           1     -22.159  -6.329  -8.247  0.00  0.00     0.163 HD
HETATM    3  C           1     -22.316  -4.267  -8.188  0.00  0.00     0.249 C 
HETATM    4  N           1     -21.879  -5.490  -7.756  0.00  0.00    -0.344 N 
ENDROOT
BRANCH   4   5
HETATM    5  C           1     -21.017  -5.583  -6.595  0.00  0.00     0.194 C 
BRANCH   5   6
HETATM    6  C           1     -21.436  -6.775  -5.746  0.00  0.00     0.138 C 
BRANCH   6   7
HETATM    7  C           1     -22.475  -6.338  -4.742  0.00  0.00     0.217 C 
HETATM    8  O           1     -23.594  -6.067  -5.109  0.00  0.00    -0.274 OA
HETATM    9  N           1     -22.149  -6.247  -3.415  0.00  0.00    -0.370 N 
HETATM   10  H           1     -21.212  -6.474  -3.107  0.00  0.00     0.159 HD
HETATM   11  H           1     -22.845  -5.954  -2.742  0.00  0.00     0.159 HD
ENDBRANCH   6   7
ENDBRANCH   5   6
BRANCH   5  12
HETATM   12  C           1     -19.587  -5.763  -7.044  0.00  0.00     0.197 C 
HETATM   13  O           1     -19.100  -6.910  -7.133  0.00  0.00    -0.646 OA
HETATM   14  O           1     -18.890  -4.765  -7.328  0.00  0.00    -0.646 OA
ENDBRANCH   5  12
ENDBRANCH   4   5
BRANCH   3  15
HETATM   15  C           1     -23.214  -4.169  -9.397  0.00  0.00     0.278 C 
BRANCH  15  16
HETATM   16  C           1     -22.486  -3.431 -10.513  0.00  0.00     0.021 C 
HETATM   17  C           1     -21.456  -4.355 -11.147  0.00  0.00     0.012 C 
BRANCH  16  18
HETATM   18  C           1     -23.492  -2.991 -11.568  0.00  0.00     0.002 C 
HETATM   19  C           1     -22.834  -3.022 -12.942  0.00  0.00     0.005 C 
ENDBRANCH  16  18
ENDBRANCH  15  16
BRANCH  15  20
HETATM   20  N           1     -24.461  -3.420  -9.033  0.00  0.00    -0.066 N 
HETATM   21  H           1     -24.943  -3.909  -8.245  0.00  0.00     0.275 HD
HETATM   22  H           1     -25.098  -3.381  -9.861  0.00  0.00     0.275 HD
HETATM   23  H           1     -24.212  -2.449  -8.740  0.00  0.00     0.275 HD
ENDBRANCH  15  20
ENDBRANCH   3  15
TORSDOF 8
ENDMDL
MODEL 8
REMARK VINA RESULT:      -6.0      2.398      4.001
REMARK  8 active torsions:
REMARK  status: ('A' for Active; 'I' for Inactive)
REMARK    1  A    between atoms: C_1  and  C_3 
REMARK    2  A    between atoms: C_3  and  C_4 
REMARK    3  A    between atoms: C_4  and  C_16 
REMARK    4  A    between atoms: C_4  and  N_10 
REMARK    5  A    between atoms: C_12  and  C_21 
REMARK    6  A    between atoms: C_12  and  C_13 
REMARK    7  A    between atoms: C_13  and  C_14 
REMARK    8  A    between atoms: C_13  and  N_18 
REMARK       I    between atoms: C_16  and  N_18 
REMARK       I    between atoms: N_20  and  C_21 
ROOT
HETATM    1  O           1     -34.671   0.600 -13.230  0.00  0.00    -0.271 OA
HETATM    2  H           1     -36.338  -1.834 -14.296  0.00  0.00     0.163 HD
HETATM    3  C           1     -35.325  -0.415 -13.182  0.00  0.00     0.249 C 
HETATM    4  N           1     -35.791  -0.984 -14.336  0.00  0.00    -0.344 N 
ENDROOT
BRANCH   4   5
HETATM    5  C           1     -35.501  -0.368 -15.617  0.00  0.00     0.194 C 
BRANCH   5   6
HETATM    6  C           1     -35.663  -1.401 -16.724  0.00  0.00     0.138 C 
BRANCH   6   7
HETATM    7  C           1     -34.660  -2.512 -16.527  0.00  0.00     0.217 C 
HETATM    8  O           1     -34.711  -3.203 -15.536  0.00  0.00    -0.274 OA
HETATM    9  N           1     -33.694  -2.738 -17.470  0.00  0.00    -0.370 N 
HETATM   10  H           1     -33.652  -2.160 -18.300  0.00  0.00     0.159 HD
HETATM   11  H           1     -33.022  -3.483 -17.338  0.00  0.00     0.159 HD
ENDBRANCH   6   7
ENDBRANCH   5   6
BRANCH   5  12
HETATM   12  C           1     -36.456   0.776 -15.852  0.00  0.00     0.197 C 
HETATM   13  O           1     -36.015   1.931 -16.034  0.00  0.00    -0.646 OA
HETATM   14  O           1     -37.689   0.569 -15.866  0.00  0.00    -0.646 OA
ENDBRANCH   5  12
ENDBRANCH   4   5
BRANCH   3  15
HETATM   15  C           1     -35.626  -1.055 -11.850  0.00  0.00     0.278 C 
BRANCH  15  16
HETATM   16  C           1     -36.534  -0.139 -11.039  0.00  0.00     0.021 C 
HETATM   17  C           1     -37.928  -0.133 -11.653  0.00  0.00     0.012 C 
BRANCH  16  18
HETATM   18  C           1     -36.613  -0.644  -9.605  0.00  0.00     0.002 C 
HETATM   19  C           1     -37.541   0.256  -8.799  0.00  0.00     0.005 C 
ENDBRANCH  16  18
ENDBRANCH  15  16
BRANCH  15  20
HETATM   20  N           1     -34.345  -1.277 -11.102  0.00  0.00    -0.066 N 
HETATM   21  H           1     -33.796  -0.389 -11.080  0.00  0.00     0.275 HD
HETATM   22  H           1     -33.787  -2.021 -11.580  0.00  0.00     0.275 HD
HETATM   23  H           1     -34.560  -1.578 -10.124  0.00  0.00     0.275 HD
ENDBRANCH  15  20
ENDBRANCH   3  15
TORSDOF 8
ENDMDL
MODEL 9
REMARK VINA RESULT:      -5.6     12.344     14.275
REMARK  8 active torsions:
REMARK  status: ('A' for Active; 'I' for Inactive)
REMARK    1  A    between atoms: C_1  and  C_3 
REMARK    2  A    between atoms: C_3  and  C_4 
REMARK    3  A    between atoms: C_4  and  C_16 
REMARK    4  A    between atoms: C_4  and  N_10 
REMARK    5  A    between atoms: C_12  and  C_21 
REMARK    6  A    between atoms: C_12  and  C_13 
REMARK    7  A    between atoms: C_13  and  C_14 
REMARK    8  A    between atoms: C_13  and  N_18 
REMARK       I    between atoms: C_16  and  N_18 
REMARK       I    between atoms: N_20  and  C_21 
ROOT
HETATM    1  O           1     -21.613  -3.176  -8.002  0.00  0.00    -0.271 OA
HETATM    2  H           1     -21.619  -5.636  -9.948  0.00  0.00     0.163 HD
HETATM    3  C           1     -21.335  -4.277  -8.414  0.00  0.00     0.249 C 
HETATM    4  N           1     -21.853  -4.714  -9.603  0.00  0.00    -0.344 N 
ENDROOT
BRANCH   4   5
HETATM    5  C           1     -22.735  -3.856 -10.369  0.00  0.00     0.194 C 
BRANCH   5   6
HETATM    6  C           1     -22.689  -4.261 -11.836  0.00  0.00     0.138 C 
BRANCH   6   7
HETATM    7  C           1     -23.526  -3.303 -12.649  0.00  0.00     0.217 C 
HETATM    8  O           1     -24.447  -3.718 -13.311  0.00  0.00    -0.274 OA
HETATM    9  N           1     -23.239  -1.964 -12.637  0.00  0.00    -0.370 N 
HETATM   10  H           1     -22.467  -1.617 -12.082  0.00  0.00     0.159 HD
HETATM   11  H           1     -23.800  -1.322 -13.182  0.00  0.00     0.159 HD
ENDBRANCH   6   7
ENDBRANCH   5   6
BRANCH   5  12
HETATM   12  C           1     -24.146  -3.996  -9.851  0.00  0.00     0.197 C 
HETATM   13  O           1     -24.763  -2.990  -9.439  0.00  0.00    -0.646 OA
HETATM   14  O           1     -24.698  -5.117  -9.836  0.00  0.00    -0.646 OA
ENDBRANCH   5  12
ENDBRANCH   4   5
BRANCH   3  15
HETATM   15  C           1     -20.417  -5.170  -7.616  0.00  0.00     0.278 C 
BRANCH  15  16
HETATM   16  C           1     -21.232  -6.263  -6.938  0.00  0.00     0.021 C 
HETATM   17  C           1     -20.305  -7.161  -6.130  0.00  0.00     0.012 C 
BRANCH  16  18
HETATM   18  C           1     -22.260  -5.627  -6.012  0.00  0.00     0.002 C 
HETATM   19  C           1     -22.442  -6.502  -4.778  0.00  0.00     0.005 C 
ENDBRANCH  16  18
ENDBRANCH  15  16
BRANCH  15  20
HETATM   20  N           1     -19.710  -4.356  -6.574  0.00  0.00    -0.066 N 
HETATM   21  H           1     -19.938  -4.729  -5.626  0.00  0.00     0.275 HD
HETATM   22  H           1     -20.019  -3.359  -6.641  0.00  0.00     0.275 HD
HETATM   23  H           1     -18.678  -4.409  -6.730  0.00  0.00     0.275 HD
ENDBRANCH  15  20
ENDBRANCH   3  15
TORSDOF 8
ENDMDL
