MODEL 1
REMARK VINA RESULT:      -6.8      0.000      0.000
REMARK  6 active torsions:
REMARK  status: ('A' for Active; 'I' for Inactive)
REMARK    1  A    between atoms: N_2  and  C_12 
REMARK    2  A    between atoms: C_8  and  C_12 
REMARK    3  A    between atoms: C_8  and  C_13 
REMARK    4  A    between atoms: C_9  and  C_17 
REMARK       I    between atoms: N_10  and  C_11 
REMARK    5  A    between atoms: C_11  and  C_12 
REMARK    6  A    between atoms: C_13  and  C_14 
REMARK       I    between atoms: C_14  and  N_15 
ROOT
HETATM    1  C           1     -34.482  -2.210 -11.489  0.00  0.00     0.275 C 
ENDROOT
BRANCH   1   2
HETATM    2  N           1     -35.677  -2.580 -10.661  0.00  0.00    -0.066 N 
HETATM    3  H           1     -36.529  -2.598 -11.267  0.00  0.00     0.275 HD
HETATM    4  H           1     -35.529  -3.525 -10.240  0.00  0.00     0.275 HD
HETATM    5  H           1     -35.806  -1.876  -9.901  0.00  0.00     0.275 HD
ENDBRANCH   1   2
BRANCH   1   6
HETATM    6  C           1     -33.440  -3.317 -11.399  0.00  0.00     0.052 C 
BRANCH   6   7
HETATM    7  C           1     -33.949  -4.421 -10.481  0.00  0.00     0.105 C 
BRANCH   7   8
HETATM    8  C           1     -34.087  -5.703 -11.264  0.00  0.00     0.215 C 
HETATM    9  O           1     -33.660  -6.737 -10.810  0.00  0.00    -0.274 OA
HETATM   10  N           1     -34.701  -5.694 -12.487  0.00  0.00    -0.370 N 
HETATM   11  H           1     -34.794  -6.554 -13.013  0.00  0.00     0.159 HD
HETATM   12  H           1     -35.059  -4.827 -12.868  0.00  0.00     0.159 HD
ENDBRANCH   7   8
ENDBRANCH   6   7
ENDBRANCH   1   6
BRANCH   1  13
HETATM   13  C           1     -34.903  -2.030 -12.926  0.00  0.00     0.251 C 
HETATM   14  O           1     -34.488  -2.781 -13.776  0.00  0.00    -0.271 OA
HETATM   15  N           1     -35.757  -1.016 -13.267  0.00  0.00    -0.336 N 
HETATM   16  C           1     -36.268  -0.692 -14.597  0.00  0.00     0.188 C 
HETATM   17  C           1     -36.355  -0.021 -12.382  0.00  0.00     0.127 C 
HETATM   18  C           1     -37.724  -0.336 -14.348  0.00  0.00     0.038 C 
HETATM   19  C           1     -37.780   0.111 -12.891  0.00  0.00     0.022 C 
BRANCH  16  20
HETATM   20  C           1     -35.522   0.478 -15.190  0.00  0.00     0.196 C 
HETATM   21  O           1     -34.299   0.615 -14.971  0.00  0.00    -0.646 OA
HETATM   22  O           1     -36.127   1.311 -15.899  0.00  0.00    -0.646 OA
ENDBRANCH  16  20
ENDBRANCH   1  13
TORSDOF 6
ENDMDL
MODEL 2
REMARK VINA RESULT:      -6.6     12.466     15.116
REMARK  6 active torsions:
REMARK  status: ('A' for Active; 'I' for Inactive)
REMARK    1  A    between atoms: N_2  and  C_12 
REMARK    2  A    between atoms: C_8  and  C_12 
REMARK    3  A    between atoms: C_8  and  C_13 
REMARK    4  A    between atoms: C_9  and  C_17 
REMARK       I    between atoms: N_10  and  C_11 
REMARK    5  A    between atoms: C_11  and  C_12 
REMARK    6  A    between atoms: C_13  and  C_14 
REMARK       I    between atoms: C_14  and  N_15 
ROOT
HETATM    1  C           1     -21.778  -3.159 -10.735  0.00  0.00     0.275 C 
ENDROOT
BRANCH   1   2
HETATM    2  N           1     -20.535  -3.392 -11.542  0.00  0.00    -0.066 N 
HETATM    3  H           1     -19.729  -3.563 -10.899  0.00  0.00     0.275 HD
HETATM    4  H           1     -20.671  -4.224 -12.159  0.00  0.00     0.275 HD
HETATM    5  H           1     -20.339  -2.550 -12.129  0.00  0.00     0.275 HD
ENDBRANCH   1   2
BRANCH   1   6
HETATM    6  C           1     -22.964  -2.978 -11.671  0.00  0.00     0.052 C 
BRANCH   6   7
HETATM    7  C           1     -22.608  -3.512 -13.053  0.00  0.00     0.105 C 
BRANCH   7   8
HETATM    8  C           1     -23.112  -2.556 -14.107  0.00  0.00     0.215 C 
HETATM    9  O           1     -22.701  -2.634 -15.240  0.00  0.00    -0.274 OA
HETATM   10  N           1     -24.038  -1.603 -13.779  0.00  0.00    -0.370 N 
HETATM   11  H           1     -24.376  -0.962 -14.485  0.00  0.00     0.159 HD
HETATM   12  H           1     -24.383  -1.537 -12.829  0.00  0.00     0.159 HD
ENDBRANCH   7   8
ENDBRANCH   6   7
ENDBRANCH   1   6
BRANCH   1  13
HETATM   13  C           1     -22.022  -4.347  -9.837  0.00  0.00     0.251 C 
HETATM   14  O           1     -22.863  -5.163 -10.130  0.00  0.00    -0.271 OA
HETATM   15  N           1     -21.290  -4.500  -8.690  0.00  0.00    -0.336 N 
HETATM   16  C           1     -21.390  -5.577  -7.709  0.00  0.00     0.188 C 
HETATM   17  C           1     -20.242  -3.622  -8.180  0.00  0.00     0.127 C 
HETATM   18  C           1     -19.944  -5.870  -7.346  0.00  0.00     0.038 C 
HETATM   19  C           1     -19.189  -4.581  -7.651  0.00  0.00     0.022 C 
BRANCH  16  20
HETATM   20  C           1     -22.169  -5.131  -6.496  0.00  0.00     0.196 C 
HETATM   21  O           1     -23.292  -4.600  -6.636  0.00  0.00    -0.646 OA
HETATM   22  O           1     -21.691  -5.290  -5.352  0.00  0.00    -0.646 OA
ENDBRANCH  16  20
ENDBRANCH   1  13
TORSDOF 6
ENDMDL
MODEL 3
REMARK VINA RESULT:      -6.3     11.886     14.318
REMARK  6 active torsions:
REMARK  status: ('A' for Active; 'I' for Inactive)
REMARK    1  A    between atoms: N_2  and  C_12 
REMARK    2  A    between atoms: C_8  and  C_12 
REMARK    3  A    between atoms: C_8  and  C_13 
REMARK    4  A    between atoms: C_9  and  C_17 
REMARK       I    between atoms: N_10  and  C_11 
REMARK    5  A    between atoms: C_11  and  C_12 
REMARK    6  A    between atoms: C_13  and  C_14 
REMARK       I    between atoms: C_14  and  N_15 
ROOT
HETATM    1  C           1     -23.527  -3.867 -11.836  0.00  0.00     0.275 C 
ENDROOT
BRANCH   1   2
HETATM    2  N           1     -24.758  -3.213 -11.279  0.00  0.00    -0.066 N 
HETATM    3  H           1     -25.245  -2.685 -12.039  0.00  0.00     0.275 HD
HETATM    4  H           1     -25.398  -3.945 -10.898  0.00  0.00     0.275 HD
HETATM    5  H           1     -24.486  -2.553 -10.516  0.00  0.00     0.275 HD
ENDBRANCH   1   2
BRANCH   1   6
HETATM    6  C           1     -23.331  -3.434 -13.282  0.00  0.00     0.052 C 
BRANCH   6   7
HETATM    7  C           1     -24.099  -2.142 -13.534  0.00  0.00     0.105 C 
BRANCH   7   8
HETATM    8  C           1     -23.619  -1.513 -14.818  0.00  0.00     0.215 C 
HETATM    9  O           1     -22.762  -2.057 -15.474  0.00  0.00    -0.274 OA
HETATM   10  N           1     -24.156  -0.327 -15.242  0.00  0.00    -0.370 N 
HETATM   11  H           1     -23.834   0.095 -16.103  0.00  0.00     0.159 HD
HETATM   12  H           1     -24.874   0.128 -14.693  0.00  0.00     0.159 HD
ENDBRANCH   7   8
ENDBRANCH   6   7
ENDBRANCH   1   6
BRANCH   1  13
HETATM   13  C           1     -22.327  -3.455 -11.019  0.00  0.00     0.251 C 
HETATM   14  O           1     -21.528  -2.672 -11.473  0.00  0.00    -0.271 OA
HETATM   15  N           1     -22.144  -3.969  -9.763  0.00  0.00    -0.336 N 
HETATM   16  C           1     -21.050  -3.687  -8.838  0.00  0.00     0.188 C 
HETATM   17  C           1     -22.999  -4.918  -9.058  0.00  0.00     0.127 C 
HETATM   18  C           1     -21.737  -3.585  -7.486  0.00  0.00     0.038 C 
HETATM   19  C           1     -23.018  -4.401  -7.630  0.00  0.00     0.022 C 
BRANCH  16  20
HETATM   20  C           1     -20.038  -4.806  -8.843  0.00  0.00     0.196 C 
HETATM   21  O           1     -19.574  -5.223  -9.927  0.00  0.00    -0.646 OA
HETATM   22  O           1     -19.664  -5.317  -7.765  0.00  0.00    -0.646 OA
ENDBRANCH  16  20
ENDBRANCH   1  13
TORSDOF 6
ENDMDL
MODEL 4
REMARK VINA RESULT:      -6.3     12.875     14.869
REMARK  6 active torsions:
REMARK  status: ('A' for Active; 'I' for Inactive)
REMARK    1  A    between atoms: N_2  and  C_12 
REMARK    2  A    between atoms: C_8  and  C_12 
REMARK    3  A    between atoms: C_8  and  C_13 
REMARK    4  A    between atoms: C_9  and  C_17 
REMARK       I    between atoms: N_10  and  C_11 
REMARK    5  A    between atoms: C_11  and  C_12 
REMARK    6  A    between atoms: C_13  and  C_14 
REMARK       I    between atoms: C_14  and  N_15 
ROOT
HETATM    1  C           1     -20.354  -5.437  -7.565  0.00  0.00     0.275 C 
ENDROOT
BRANCH   1   2
HETATM    2  N           1     -19.542  -4.555  -6.662  0.00  0.00    -0.066 N 
HETATM    3  H           1     -19.434  -5.016  -5.730  0.00  0.00     0.275 HD
HETATM    4  H           1     -18.598  -4.400  -7.084  0.00  0.00     0.275 HD
HETATM    5  H           1     -20.027  -3.638  -6.543  0.00  0.00     0.275 HD
ENDBRANCH   1   2
BRANCH   1   6
HETATM    6  C           1     -20.926  -6.596  -6.762  0.00  0.00     0.052 C 
BRANCH   6   7
HETATM    7  C           1     -20.568  -6.422  -5.291  0.00  0.00     0.105 C 
BRANCH   7   8
HETATM    8  C           1     -21.823  -6.173  -4.492  0.00  0.00     0.215 C 
HETATM    9  O           1     -21.757  -6.001  -3.299  0.00  0.00    -0.274 OA
HETATM   10  N           1     -23.038  -6.139  -5.122  0.00  0.00    -0.370 N 
HETATM   11  H           1     -23.881  -5.972  -4.587  0.00  0.00     0.159 HD
HETATM   12  H           1     -23.095  -6.283  -6.123  0.00  0.00     0.159 HD
ENDBRANCH   7   8
ENDBRANCH   6   7
ENDBRANCH   1   6
BRANCH   1  13
HETATM   13  C           1     -21.482  -4.636  -8.167  0.00  0.00     0.251 C 
HETATM   14  O           1     -22.369  -4.218  -7.462  0.00  0.00    -0.271 OA
HETATM   15  N           1     -21.499  -4.381  -9.512  0.00  0.00    -0.336 N 
HETATM   16  C           1     -22.502  -3.631 -10.262  0.00  0.00     0.188 C 
HETATM   17  C           1     -20.519  -4.801 -10.509  0.00  0.00     0.127 C 
HETATM   18  C           1     -21.682  -2.816 -11.248  0.00  0.00     0.038 C 
HETATM   19  C           1     -20.378  -3.590 -11.415  0.00  0.00     0.022 C 
BRANCH  16  20
HETATM   20  C           1     -23.442  -4.563 -10.986  0.00  0.00     0.196 C 
HETATM   21  O           1     -24.008  -5.487 -10.363  0.00  0.00    -0.646 OA
HETATM   22  O           1     -23.654  -4.412 -12.209  0.00  0.00    -0.646 OA
ENDBRANCH  16  20
ENDBRANCH   1  13
TORSDOF 6
ENDMDL
MODEL 5
REMARK VINA RESULT:      -6.3      2.007      2.742
REMARK  6 active torsions:
REMARK  status: ('A' for Active; 'I' for Inactive)
REMARK    1  A    between atoms: N_2  and  C_12 
REMARK    2  A    between atoms: C_8  and  C_12 
REMARK    3  A    between atoms: C_8  and  C_13 
REMARK    4  A    between atoms: C_9  and  C_17 
REMARK       I    between atoms: N_10  and  C_11 
REMARK    5  A    between atoms: C_11  and  C_12 
REMARK    6  A    between atoms: C_13  and  C_14 
REMARK       I    between atoms: C_14  and  N_15 
ROOT
HETATM    1  C           1     -35.776  -0.388 -11.447  0.00  0.00     0.275 C 
ENDROOT
BRANCH   1   2
HETATM    2  N           1     -36.559   0.327 -10.385  0.00  0.00    -0.066 N 
HETATM    3  H           1     -37.167   1.052 -10.829  0.00  0.00     0.275 HD
HETATM    4  H           1     -37.156  -0.360  -9.871  0.00  0.00     0.275 HD
HETATM    5  H           1     -35.901   0.787  -9.716  0.00  0.00     0.275 HD
ENDBRANCH   1   2
BRANCH   1   6
HETATM    6  C           1     -35.511  -1.820 -11.004  0.00  0.00     0.052 C 
BRANCH   6   7
HETATM    7  C           1     -34.008  -2.062 -10.939  0.00  0.00     0.105 C 
BRANCH   7   8
HETATM    8  C           1     -33.629  -3.141 -11.923  0.00  0.00     0.215 C 
HETATM    9  O           1     -32.807  -3.973 -11.621  0.00  0.00    -0.274 OA
HETATM   10  N           1     -34.219  -3.178 -13.157  0.00  0.00    -0.370 N 
HETATM   11  H           1     -33.966  -3.902 -13.818  0.00  0.00     0.159 HD
HETATM   12  H           1     -34.908  -2.481 -13.411  0.00  0.00     0.159 HD
ENDBRANCH   7   8
ENDBRANCH   6   7
ENDBRANCH   1   6
BRANCH   1  13
HETATM   13  C           1     -36.566  -0.396 -12.732  0.00  0.00     0.251 C 
HETATM   14  O           1     -37.677  -0.870 -12.756  0.00  0.00    -0.271 OA
HETATM   15  N           1     -36.024   0.133 -13.872  0.00  0.00    -0.336 N 
HETATM   16  C           1     -36.636   0.210 -15.196  0.00  0.00     0.188 C 
HETATM   17  C           1     -34.707   0.743 -14.031  0.00  0.00     0.127 C 
HETATM   18  C           1     -36.237   1.587 -15.699  0.00  0.00     0.038 C 
HETATM   19  C           1     -34.964   1.935 -14.936  0.00  0.00     0.022 C 
BRANCH  16  20
HETATM   20  C           1     -36.098  -0.870 -16.102  0.00  0.00     0.196 C 
HETATM   21  O           1     -36.401  -0.877 -17.314  0.00  0.00    -0.646 OA
HETATM   22  O           1     -35.349  -1.759 -15.640  0.00  0.00    -0.646 OA
ENDBRANCH  16  20
ENDBRANCH   1  13
TORSDOF 6
ENDMDL
MODEL 6
REMARK VINA RESULT:      -6.2     12.923     14.640
REMARK  6 active torsions:
REMARK  status: ('A' for Active; 'I' for Inactive)
REMARK    1  A    between atoms: N_2  and  C_12 
REMARK    2  A    between atoms: C_8  and  C_12 
REMARK    3  A    between atoms: C_8  and  C_13 
REMARK    4  A    between atoms: C_9  and  C_17 
REMARK       I    between atoms: N_10  and  C_11 
REMARK    5  A    between atoms: C_11  and  C_12 
REMARK    6  A    between atoms: C_13  and  C_14 
REMARK       I    between atoms: C_14  and  N_15 
ROOT
HETATM    1  C           1     -21.582  -4.169  -6.970  0.00  0.00     0.275 C 
ENDROOT
BRANCH   1   2
HETATM    2  N           1     -22.830  -4.849  -6.490  0.00  0.00    -0.066 N 
HETATM    3  H           1     -23.142  -5.547  -7.202  0.00  0.00     0.275 HD
HETATM    4  H           1     -22.633  -5.338  -5.587  0.00  0.00     0.275 HD
HETATM    5  H           1     -23.581  -4.138  -6.346  0.00  0.00     0.275 HD
ENDBRANCH   1   2
BRANCH   1   6
HETATM    6  C           1     -20.407  -4.590  -6.099  0.00  0.00     0.052 C 
BRANCH   6   7
HETATM    7  C           1     -20.887  -5.569  -5.035  0.00  0.00     0.105 C 
BRANCH   7   8
HETATM    8  C           1     -20.343  -6.944  -5.335  0.00  0.00     0.215 C 
HETATM    9  O           1     -20.549  -7.855  -4.569  0.00  0.00    -0.274 OA
HETATM   10  N           1     -19.618  -7.159  -6.476  0.00  0.00    -0.370 N 
HETATM   11  H           1     -19.253  -8.081  -6.677  0.00  0.00     0.159 HD
HETATM   12  H           1     -19.445  -6.396  -7.118  0.00  0.00     0.159 HD
ENDBRANCH   7   8
ENDBRANCH   6   7
ENDBRANCH   1   6
BRANCH   1  13
HETATM   13  C           1     -21.314  -4.564  -8.402  0.00  0.00     0.251 C 
HETATM   14  O           1     -20.317  -5.185  -8.681  0.00  0.00    -0.271 OA
HETATM   15  N           1     -22.203  -4.218  -9.384  0.00  0.00    -0.336 N 
HETATM   16  C           1     -22.108  -4.512 -10.812  0.00  0.00     0.188 C 
HETATM   17  C           1     -23.450  -3.475  -9.235  0.00  0.00     0.127 C 
HETATM   18  C           1     -23.531  -4.878 -11.201  0.00  0.00     0.038 C 
HETATM   19  C           1     -24.414  -4.191 -10.165  0.00  0.00     0.022 C 
BRANCH  16  20
HETATM   20  C           1     -21.635  -3.303 -11.580  0.00  0.00     0.196 C 
HETATM   21  O           1     -20.533  -2.780 -11.306  0.00  0.00    -0.646 OA
HETATM   22  O           1     -22.345  -2.823 -12.491  0.00  0.00    -0.646 OA
ENDBRANCH  16  20
ENDBRANCH   1  13
TORSDOF 6
ENDMDL
MODEL 7
REMARK VINA RESULT:      -6.1      2.274      3.076
REMARK  6 active torsions:
REMARK  status: ('A' for Active; 'I' for Inactive)
REMARK    1  A    between atoms: N_2  and  C_12 
REMARK    2  A    between atoms: C_8  and  C_12 
REMARK    3  A    between atoms: C_8  and  C_13 
REMARK    4  A    between atoms: C_9  and  C_17 
REMARK       I    between atoms: N_10  and  C_11 
REMARK    5  A    between atoms: C_11  and  C_12 
REMARK    6  A    between atoms: C_13  and  C_14 
REMARK       I    between atoms: C_14  and  N_15 
ROOT
HETATM    1  C           1     -33.878  -3.848 -12.342  0.00  0.00     0.275 C 
ENDROOT
BRANCH   1   2
HETATM    2  N           1     -32.425  -4.051 -12.027  0.00  0.00    -0.066 N 
HETATM    3  H           1     -32.284  -4.009 -10.992  0.00  0.00     0.275 HD
HETATM    4  H           1     -32.120  -4.985 -12.383  0.00  0.00     0.275 HD
HETATM    5  H           1     -31.861  -3.301 -12.486  0.00  0.00     0.275 HD
ENDBRANCH   1   2
BRANCH   1   6
HETATM    6  C           1     -34.671  -5.065 -11.887  0.00  0.00     0.052 C 
BRANCH   6   7
HETATM    7  C           1     -33.795  -5.941 -11.000  0.00  0.00     0.105 C 
BRANCH   7   8
HETATM    8  C           1     -34.645  -6.999 -10.341  0.00  0.00     0.215 C 
HETATM    9  O           1     -35.228  -6.752  -9.313  0.00  0.00    -0.274 OA
HETATM   10  N           1     -34.757  -8.239 -10.911  0.00  0.00    -0.370 N 
HETATM   11  H           1     -35.327  -8.949 -10.469  0.00  0.00     0.159 HD
HETATM   12  H           1     -34.268  -8.446 -11.773  0.00  0.00     0.159 HD
ENDBRANCH   7   8
ENDBRANCH   6   7
ENDBRANCH   1   6
BRANCH   1  13
HETATM   13  C           1     -34.381  -2.621 -11.621  0.00  0.00     0.251 C 
HETATM   14  O           1     -34.209  -2.507 -10.431  0.00  0.00    -0.271 OA
HETATM   15  N           1     -35.032  -1.638 -12.316  0.00  0.00    -0.336 N 
HETATM   16  C           1     -35.584  -0.393 -11.788  0.00  0.00     0.188 C 
HETATM   17  C           1     -35.328  -1.605 -13.745  0.00  0.00     0.127 C 
HETATM   18  C           1     -35.231   0.637 -12.849  0.00  0.00     0.038 C 
HETATM   19  C           1     -35.068  -0.161 -14.138  0.00  0.00     0.022 C 
BRANCH  16  20
HETATM   20  C           1     -37.080  -0.496 -11.616  0.00  0.00     0.196 C 
HETATM   21  O           1     -37.831   0.333 -12.173  0.00  0.00    -0.646 OA
HETATM   22  O           1     -37.567  -1.411 -10.917  0.00  0.00    -0.646 OA
ENDBRANCH  16  20
ENDBRANCH   1  13
TORSDOF 6
ENDMDL
MODEL 8
REMARK VINA RESULT:      -5.8     13.575     16.705
REMARK  6 active torsions:
REMARK  status: ('A' for Active; 'I' for Inactive)
REMARK    1  A    between atoms: N_2  and  C_12 
REMARK    2  A    between atoms: C_8  and  C_12 
REMARK    3  A    between atoms: C_8  and  C_13 
REMARK    4  A    between atoms: C_9  and  C_17 
REMARK       I    between atoms: N_10  and  C_11 
REMARK    5  A    between atoms: C_11  and  C_12 
REMARK    6  A    between atoms: C_13  and  C_14 
REMARK       I    between atoms: C_14  and  N_15 
ROOT
HETATM    1  C           1     -20.762  -4.932  -6.929  0.00  0.00     0.275 C 
ENDROOT
BRANCH   1   2
HETATM    2  N           1     -20.277  -5.882  -7.984  0.00  0.00    -0.066 N 
HETATM    3  H           1     -19.594  -5.393  -8.606  0.00  0.00     0.275 HD
HETATM    4  H           1     -19.811  -6.699  -7.529  0.00  0.00     0.275 HD
HETATM    5  H           1     -21.089  -6.214  -8.552  0.00  0.00     0.275 HD
ENDBRANCH   1   2
BRANCH   1   6
HETATM    6  C           1     -21.480  -3.763  -7.588  0.00  0.00     0.052 C 
BRANCH   6   7
HETATM    7  C           1     -21.696  -4.067  -9.066  0.00  0.00     0.105 C 
BRANCH   7   8
HETATM    8  C           1     -23.162  -4.316  -9.320  0.00  0.00     0.215 C 
HETATM    9  O           1     -23.511  -4.905 -10.316  0.00  0.00    -0.274 OA
HETATM   10  N           1     -24.096  -3.878  -8.421  0.00  0.00    -0.370 N 
HETATM   11  H           1     -25.079  -4.045  -8.591  0.00  0.00     0.159 HD
HETATM   12  H           1     -23.803  -3.385  -7.586  0.00  0.00     0.159 HD
ENDBRANCH   7   8
ENDBRANCH   6   7
ENDBRANCH   1   6
BRANCH   1  13
HETATM   13  C           1     -21.714  -5.651  -6.005  0.00  0.00     0.251 C 
HETATM   14  O           1     -22.876  -5.327  -5.964  0.00  0.00    -0.271 OA
HETATM   15  N           1     -21.260  -6.672  -5.214  0.00  0.00    -0.336 N 
HETATM   16  C           1     -22.030  -7.474  -4.267  0.00  0.00     0.188 C 
HETATM   17  C           1     -19.900  -7.197  -5.132  0.00  0.00     0.127 C 
HETATM   18  C           1     -21.499  -8.883  -4.470  0.00  0.00     0.038 C 
HETATM   19  C           1     -20.094  -8.700  -5.034  0.00  0.00     0.022 C 
BRANCH  16  20
HETATM   20  C           1     -21.794  -7.009  -2.851  0.00  0.00     0.196 C 
HETATM   21  O           1     -22.070  -5.834  -2.526  0.00  0.00    -0.646 OA
HETATM   22  O           1     -21.323  -7.798  -2.004  0.00  0.00    -0.646 OA
ENDBRANCH  16  20
ENDBRANCH   1  13
TORSDOF 6
ENDMDL
MODEL 9
REMARK VINA RESULT:      -5.5     14.541     17.775
REMARK  6 active torsions:
REMARK  status: ('A' for Active; 'I' for Inactive)
REMARK    1  A    between atoms: N_2  and  C_12 
REMARK    2  A    between atoms: C_8  and  C_12 
REMARK    3  A    between atoms: C_8  and  C_13 
REMARK    4  A    between atoms: C_9  and  C_17 
REMARK       I    between atoms: N_10  and  C_11 
REMARK    5  A    between atoms: C_11  and  C_12 
REMARK    6  A    between atoms: C_13  and  C_14 
REMARK       I    between atoms: C_14  and  N_15 
ROOT
HETATM    1  C           1     -20.436  -6.104  -5.408  0.00  0.00     0.275 C 
ENDROOT
BRANCH   1   2
HETATM    2  N           1     -20.263  -7.003  -6.597  0.00  0.00    -0.066 N 
HETATM    3  H           1     -21.202  -7.271  -6.970  0.00  0.00     0.275 HD
HETATM    4  H           1     -19.724  -6.501  -7.337  0.00  0.00     0.275 HD
HETATM    5  H           1     -19.745  -7.864  -6.310  0.00  0.00     0.275 HD
ENDBRANCH   1   2
BRANCH   1   6
HETATM    6  C           1     -20.834  -4.712  -5.879  0.00  0.00     0.052 C 
BRANCH   6   7
HETATM    7  C           1     -21.000  -4.715  -7.394  0.00  0.00     0.105 C 
BRANCH   7   8
HETATM    8  C           1     -22.389  -4.243  -7.749  0.00  0.00     0.215 C 
HETATM    9  O           1     -22.582  -3.664  -8.791  0.00  0.00    -0.274 OA
HETATM   10  N           1     -23.429  -4.473  -6.890  0.00  0.00    -0.370 N 
HETATM   11  H           1     -24.361  -4.156  -7.127  0.00  0.00     0.159 HD
HETATM   12  H           1     -23.268  -4.958  -6.016  0.00  0.00     0.159 HD
ENDBRANCH   7   8
ENDBRANCH   6   7
ENDBRANCH   1   6
BRANCH   1  13
HETATM   13  C           1     -21.515  -6.659  -4.511  0.00  0.00     0.251 C 
HETATM   14  O           1     -22.669  -6.355  -4.695  0.00  0.00    -0.271 OA
HETATM   15  N           1     -21.185  -7.508  -3.489  0.00  0.00    -0.336 N 
HETATM   16  C           1     -22.088  -8.136  -2.528  0.00  0.00     0.188 C 
HETATM   17  C           1     -19.854  -7.981  -3.120  0.00  0.00     0.127 C 
HETATM   18  C           1     -21.543  -9.547  -2.389  0.00  0.00     0.038 C 
HETATM   19  C           1     -20.072  -9.444  -2.774  0.00  0.00     0.022 C 
BRANCH  16  20
HETATM   20  C           1     -22.053  -7.413  -1.204  0.00  0.00     0.196 C 
HETATM   21  O           1     -21.730  -8.029  -0.165  0.00  0.00    -0.646 OA
HETATM   22  O           1     -22.347  -6.200  -1.145  0.00  0.00    -0.646 OA
ENDBRANCH  16  20
ENDBRANCH   1  13
TORSDOF 6
ENDMDL
