MODEL 1
REMARK VINA RESULT:      -6.6      0.000      0.000
REMARK  10 active torsions:
REMARK  status: ('A' for Active; 'I' for Inactive)
REMARK    1  A    between atoms: O_1  and  C_15 
REMARK    2  A    between atoms: C_7  and  C_12 
REMARK    3  A    between atoms: C_7  and  C_8 
REMARK    4  A    between atoms: C_8  and  C_24 
REMARK    5  A    between atoms: C_8  and  N_10 
REMARK       I    between atoms: C_9  and  N_10 
REMARK    6  A    between atoms: C_9  and  C_14 
REMARK    7  A    between atoms: C_12  and  C_20 
REMARK    8  A    between atoms: C_14  and  C_15 
REMARK    9  A    between atoms: C_14  and  N_19 
REMARK       I    between atoms: N_18  and  C_25 
REMARK   10  A    between atoms: C_20  and  N_28 
REMARK       I    between atoms: N_23  and  C_25 
ROOT
HETATM    1  C           1     -28.690  -6.573 -16.980  0.00  0.00     0.185 C 
ENDROOT
BRANCH   1   2
HETATM    2  C           1     -29.713  -7.675 -17.224  0.00  0.00     0.038 C 
BRANCH   2   3
HETATM    3  C           1     -31.042  -7.051 -17.631  0.00  0.00     0.023 C 
BRANCH   3   4
HETATM    4  C           1     -31.049  -5.576 -17.250  0.00  0.00     0.138 C 
BRANCH   4   5
HETATM    5  N           1     -32.360  -5.222 -16.685  0.00  0.00    -0.227 N 
HETATM    6  H           1     -32.909  -5.935 -16.145  0.00  0.00     0.177 HD
HETATM    7  C           1     -32.826  -4.057 -16.851  0.00  0.00     0.665 C 
HETATM    8  N           1     -32.164  -3.196 -17.503  0.00  0.00    -0.235 N 
HETATM    9  N           1     -33.985  -3.744 -16.352  0.00  0.00    -0.235 N 
HETATM   10  H           1     -32.551  -2.230 -17.640  0.00  0.00     0.174 HD
HETATM   11  H           1     -31.228  -3.449 -17.906  0.00  0.00     0.174 HD
HETATM   12  H           1     -34.369  -2.782 -16.489  0.00  0.00     0.174 HD
HETATM   13  H           1     -34.531  -4.454 -15.814  0.00  0.00     0.174 HD
ENDBRANCH   4   5
ENDBRANCH   3   4
ENDBRANCH   2   3
ENDBRANCH   1   2
BRANCH   1  14
HETATM   14  C           1     -28.345  -6.524 -15.512  0.00  0.00     0.196 C 
HETATM   15  O           1     -28.577  -5.490 -14.850  0.00  0.00    -0.646 OA
HETATM   16  O           1     -27.825  -7.517 -14.959  0.00  0.00    -0.646 OA
ENDBRANCH   1  14
BRANCH   1  17
HETATM   17  N           1     -27.490  -6.851 -17.748  0.00  0.00    -0.345 N 
HETATM   18  C           1     -27.298  -6.243 -18.959  0.00  0.00     0.251 C 
HETATM   19  O           1     -28.125  -5.475 -19.389  0.00  0.00    -0.271 OA
HETATM   20  H           1     -26.797  -7.494 -17.387  0.00  0.00     0.163 HD
BRANCH  18  21
HETATM   21  C           1     -26.050  -6.532 -19.758  0.00  0.00     0.297 C 
BRANCH  21  22
HETATM   22  C           1     -26.347  -7.610 -20.792  0.00  0.00     0.206 C 
BRANCH  22  23
HETATM   23  O           1     -27.573  -8.219 -20.494  0.00  0.00    -0.398 OA
HETATM   24  H           1     -28.144  -7.543 -20.169  0.00  0.00     0.209 HD
ENDBRANCH  22  23
ENDBRANCH  21  22
BRANCH  21  25
HETATM   25  N           1     -24.967  -7.009 -18.837  0.00  0.00    -0.064 N 
HETATM   26  H           1     -25.294  -6.941 -17.848  0.00  0.00     0.275 HD
HETATM   27  H           1     -24.733  -8.003 -19.059  0.00  0.00     0.275 HD
HETATM   28  H           1     -24.116  -6.414 -18.964  0.00  0.00     0.275 HD
ENDBRANCH  21  25
ENDBRANCH  18  21
ENDBRANCH   1  17
TORSDOF 10
ENDMDL
MODEL 2
REMARK VINA RESULT:      -6.6      9.517     11.827
REMARK  10 active torsions:
REMARK  status: ('A' for Active; 'I' for Inactive)
REMARK    1  A    between atoms: O_1  and  C_15 
REMARK    2  A    between atoms: C_7  and  C_12 
REMARK    3  A    between atoms: C_7  and  C_8 
REMARK    4  A    between atoms: C_8  and  C_24 
REMARK    5  A    between atoms: C_8  and  N_10 
REMARK       I    between atoms: C_9  and  N_10 
REMARK    6  A    between atoms: C_9  and  C_14 
REMARK    7  A    between atoms: C_12  and  C_20 
REMARK    8  A    between atoms: C_14  and  C_15 
REMARK    9  A    between atoms: C_14  and  N_19 
REMARK       I    between atoms: N_18  and  C_25 
REMARK   10  A    between atoms: C_20  and  N_28 
REMARK       I    between atoms: N_23  and  C_25 
ROOT
HETATM    1  C           1     -22.621  -3.912  -9.119  0.00  0.00     0.185 C 
ENDROOT
BRANCH   1   2
HETATM    2  C           1     -21.774  -4.551 -10.212  0.00  0.00     0.038 C 
BRANCH   2   3
HETATM    3  C           1     -20.819  -3.513 -10.786  0.00  0.00     0.023 C 
BRANCH   3   4
HETATM    4  C           1     -21.563  -2.633 -11.782  0.00  0.00     0.138 C 
BRANCH   4   5
HETATM    5  N           1     -22.153  -3.473 -12.834  0.00  0.00    -0.227 N 
HETATM    6  H           1     -21.594  -4.254 -13.257  0.00  0.00     0.177 HD
HETATM    7  C           1     -23.336  -3.255 -13.229  0.00  0.00     0.665 C 
HETATM    8  N           1     -24.010  -2.312 -12.719  0.00  0.00    -0.235 N 
HETATM    9  N           1     -23.858  -3.998 -14.160  0.00  0.00    -0.235 N 
HETATM   10  H           1     -24.991  -2.131 -13.047  0.00  0.00     0.174 HD
HETATM   11  H           1     -23.589  -1.712 -11.967  0.00  0.00     0.174 HD
HETATM   12  H           1     -24.834  -3.817 -14.486  0.00  0.00     0.174 HD
HETATM   13  H           1     -23.301  -4.775 -14.581  0.00  0.00     0.174 HD
ENDBRANCH   4   5
ENDBRANCH   3   4
ENDBRANCH   2   3
ENDBRANCH   1   2
BRANCH   1  14
HETATM   14  C           1     -24.065  -3.877  -9.558  0.00  0.00     0.196 C 
HETATM   15  O           1     -24.630  -4.925  -9.934  0.00  0.00    -0.646 OA
HETATM   16  O           1     -24.695  -2.797  -9.545  0.00  0.00    -0.646 OA
ENDBRANCH   1  14
BRANCH   1  17
HETATM   17  N           1     -22.506  -4.691  -7.901  0.00  0.00    -0.345 N 
HETATM   18  C           1     -21.491  -4.435  -7.019  0.00  0.00     0.251 C 
HETATM   19  O           1     -20.692  -3.560  -7.254  0.00  0.00    -0.271 OA
HETATM   20  H           1     -23.175  -5.424  -7.704  0.00  0.00     0.163 HD
BRANCH  18  21
HETATM   21  C           1     -21.370  -5.246  -5.752  0.00  0.00     0.297 C 
BRANCH  21  22
HETATM   22  C           1     -20.261  -6.277  -5.912  0.00  0.00     0.206 C 
BRANCH  22  23
HETATM   23  O           1     -19.999  -6.475  -7.274  0.00  0.00    -0.398 OA
HETATM   24  H           1     -20.459  -7.257  -7.531  0.00  0.00     0.209 HD
ENDBRANCH  22  23
ENDBRANCH  21  22
BRANCH  21  25
HETATM   25  N           1     -22.668  -5.947  -5.482  0.00  0.00    -0.064 N 
HETATM   26  H           1     -23.460  -5.367  -5.841  0.00  0.00     0.275 HD
HETATM   27  H           1     -22.670  -6.874  -5.964  0.00  0.00     0.275 HD
HETATM   28  H           1     -22.780  -6.089  -4.452  0.00  0.00     0.275 HD
ENDBRANCH  21  25
ENDBRANCH  18  21
ENDBRANCH   1  17
TORSDOF 10
ENDMDL
MODEL 3
REMARK VINA RESULT:      -6.5      8.858     10.783
REMARK  10 active torsions:
REMARK  status: ('A' for Active; 'I' for Inactive)
REMARK    1  A    between atoms: O_1  and  C_15 
REMARK    2  A    between atoms: C_7  and  C_12 
REMARK    3  A    between atoms: C_7  and  C_8 
REMARK    4  A    between atoms: C_8  and  C_24 
REMARK    5  A    between atoms: C_8  and  N_10 
REMARK       I    between atoms: C_9  and  N_10 
REMARK    6  A    between atoms: C_9  and  C_14 
REMARK    7  A    between atoms: C_12  and  C_20 
REMARK    8  A    between atoms: C_14  and  C_15 
REMARK    9  A    between atoms: C_14  and  N_19 
REMARK       I    between atoms: N_18  and  C_25 
REMARK   10  A    between atoms: C_20  and  N_28 
REMARK       I    between atoms: N_23  and  C_25 
ROOT
HETATM    1  C           1     -36.677  -0.852 -11.287  0.00  0.00     0.185 C 
ENDROOT
BRANCH   1   2
HETATM    2  C           1     -35.762  -1.955 -10.769  0.00  0.00     0.038 C 
BRANCH   2   3
HETATM    3  C           1     -34.448  -1.927 -11.539  0.00  0.00     0.023 C 
BRANCH   3   4
HETATM    4  C           1     -33.388  -2.700 -10.764  0.00  0.00     0.138 C 
BRANCH   4   5
HETATM    5  N           1     -33.807  -4.103 -10.628  0.00  0.00    -0.227 N 
HETATM    6  H           1     -34.540  -4.366  -9.925  0.00  0.00     0.177 HD
HETATM    7  C           1     -33.283  -4.993 -11.360  0.00  0.00     0.665 C 
HETATM    8  N           1     -32.399  -4.676 -12.209  0.00  0.00    -0.235 N 
HETATM    9  N           1     -33.653  -6.234 -11.240  0.00  0.00    -0.235 N 
HETATM   10  H           1     -31.964  -5.415 -12.815  0.00  0.00     0.174 HD
HETATM   11  H           1     -32.100  -3.674 -12.306  0.00  0.00     0.174 HD
HETATM   12  H           1     -33.221  -6.968 -11.844  0.00  0.00     0.174 HD
HETATM   13  H           1     -34.383  -6.495 -10.539  0.00  0.00     0.174 HD
ENDBRANCH   4   5
ENDBRANCH   3   4
ENDBRANCH   2   3
ENDBRANCH   1   2
BRANCH   1  14
HETATM   14  C           1     -36.930   0.149 -10.186  0.00  0.00     0.196 C 
HETATM   15  O           1     -37.876   0.959 -10.284  0.00  0.00    -0.646 OA
HETATM   16  O           1     -36.192   0.167  -9.177  0.00  0.00    -0.646 OA
ENDBRANCH   1  14
BRANCH   1  17
HETATM   17  N           1     -36.042  -0.186 -12.408  0.00  0.00    -0.345 N 
HETATM   18  C           1     -36.639  -0.203 -13.640  0.00  0.00     0.251 C 
HETATM   19  O           1     -37.693  -0.772 -13.794  0.00  0.00    -0.271 OA
HETATM   20  H           1     -35.159   0.291 -12.279  0.00  0.00     0.163 HD
BRANCH  18  21
HETATM   21  C           1     -35.979   0.490 -14.807  0.00  0.00     0.297 C 
BRANCH  21  22
HETATM   22  C           1     -36.095  -0.383 -16.049  0.00  0.00     0.206 C 
BRANCH  22  23
HETATM   23  O           1     -37.362  -0.212 -16.623  0.00  0.00    -0.398 OA
HETATM   24  H           1     -37.387   0.660 -16.979  0.00  0.00     0.209 HD
ENDBRANCH  22  23
ENDBRANCH  21  22
BRANCH  21  25
HETATM   25  N           1     -34.530   0.724 -14.495  0.00  0.00    -0.064 N 
HETATM   26  H           1     -33.941   0.081 -15.069  0.00  0.00     0.275 HD
HETATM   27  H           1     -34.282   1.715 -14.716  0.00  0.00     0.275 HD
HETATM   28  H           1     -34.359   0.540 -13.480  0.00  0.00     0.275 HD
ENDBRANCH  21  25
ENDBRANCH  18  21
ENDBRANCH   1  17
TORSDOF 10
ENDMDL
MODEL 4
REMARK VINA RESULT:      -6.4      8.922     11.104
REMARK  10 active torsions:
REMARK  status: ('A' for Active; 'I' for Inactive)
REMARK    1  A    between atoms: O_1  and  C_15 
REMARK    2  A    between atoms: C_7  and  C_12 
REMARK    3  A    between atoms: C_7  and  C_8 
REMARK    4  A    between atoms: C_8  and  C_24 
REMARK    5  A    between atoms: C_8  and  N_10 
REMARK       I    between atoms: C_9  and  N_10 
REMARK    6  A    between atoms: C_9  and  C_14 
REMARK    7  A    between atoms: C_12  and  C_20 
REMARK    8  A    between atoms: C_14  and  C_15 
REMARK    9  A    between atoms: C_14  and  N_19 
REMARK       I    between atoms: N_18  and  C_25 
REMARK   10  A    between atoms: C_20  and  N_28 
REMARK       I    between atoms: N_23  and  C_25 
ROOT
HETATM    1  C           1     -23.011  -3.619  -9.617  0.00  0.00     0.185 C 
ENDROOT
BRANCH   1   2
HETATM    2  C           1     -22.328  -3.262 -10.931  0.00  0.00     0.038 C 
BRANCH   2   3
HETATM    3  C           1     -23.120  -3.850 -12.091  0.00  0.00     0.023 C 
BRANCH   3   4
HETATM    4  C           1     -22.799  -3.083 -13.368  0.00  0.00     0.138 C 
BRANCH   4   5
HETATM    5  N           1     -23.771  -1.994 -13.543  0.00  0.00    -0.227 N 
HETATM    6  H           1     -24.467  -1.785 -12.786  0.00  0.00     0.177 HD
HETATM    7  C           1     -23.769  -1.308 -14.607  0.00  0.00     0.665 C 
HETATM    8  N           1     -22.929  -1.560 -15.521  0.00  0.00    -0.235 N 
HETATM    9  N           1     -24.628  -0.345 -14.762  0.00  0.00    -0.235 N 
HETATM   10  H           1     -22.927  -0.992 -16.403  0.00  0.00     0.174 HD
HETATM   11  H           1     -22.235  -2.338 -15.396  0.00  0.00     0.174 HD
HETATM   12  H           1     -24.626   0.220 -15.640  0.00  0.00     0.174 HD
HETATM   13  H           1     -25.321  -0.138 -14.008  0.00  0.00     0.174 HD
ENDBRANCH   4   5
ENDBRANCH   3   4
ENDBRANCH   2   3
ENDBRANCH   1   2
BRANCH   1  14
HETATM   14  C           1     -24.472  -3.896  -9.869  0.00  0.00     0.196 C 
HETATM   15  O           1     -25.253  -2.954 -10.120  0.00  0.00    -0.646 OA
HETATM   16  O           1     -24.902  -5.069  -9.825  0.00  0.00    -0.646 OA
ENDBRANCH   1  14
BRANCH   1  17
HETATM   17  N           1     -22.386  -4.801  -9.055  0.00  0.00    -0.345 N 
HETATM   18  C           1     -21.790  -4.739  -7.824  0.00  0.00     0.251 C 
HETATM   19  O           1     -21.784  -3.702  -7.206  0.00  0.00    -0.271 OA
HETATM   20  H           1     -22.391  -5.670  -9.572  0.00  0.00     0.163 HD
BRANCH  18  21
HETATM   21  C           1     -21.139  -5.969  -7.239  0.00  0.00     0.297 C 
BRANCH  21  22
HETATM   22  C           1     -21.416  -6.027  -5.742  0.00  0.00     0.206 C 
BRANCH  22  23
HETATM   23  O           1     -22.777  -5.786  -5.509  0.00  0.00    -0.398 OA
HETATM   24  H           1     -22.865  -4.865  -5.326  0.00  0.00     0.209 HD
ENDBRANCH  22  23
ENDBRANCH  21  22
BRANCH  21  25
HETATM   25  N           1     -19.659  -5.909  -7.471  0.00  0.00    -0.064 N 
HETATM   26  H           1     -19.359  -4.913  -7.564  0.00  0.00     0.275 HD
HETATM   27  H           1     -19.161  -6.347  -6.663  0.00  0.00     0.275 HD
HETATM   28  H           1     -19.423  -6.427  -8.348  0.00  0.00     0.275 HD
ENDBRANCH  21  25
ENDBRANCH  18  21
ENDBRANCH   1  17
TORSDOF 10
ENDMDL
MODEL 5
REMARK VINA RESULT:      -6.3     10.141     12.386
REMARK  10 active torsions:
REMARK  status: ('A' for Active; 'I' for Inactive)
REMARK    1  A    between atoms: O_1  and  C_15 
REMARK    2  A    between atoms: C_7  and  C_12 
REMARK    3  A    between atoms: C_7  and  C_8 
REMARK    4  A    between atoms: C_8  and  C_24 
REMARK    5  A    between atoms: C_8  and  N_10 
REMARK       I    between atoms: C_9  and  N_10 
REMARK    6  A    between atoms: C_9  and  C_14 
REMARK    7  A    between atoms: C_12  and  C_20 
REMARK    8  A    between atoms: C_14  and  C_15 
REMARK    9  A    between atoms: C_14  and  N_19 
REMARK       I    between atoms: N_18  and  C_25 
REMARK   10  A    between atoms: C_20  and  N_28 
REMARK       I    between atoms: N_23  and  C_25 
ROOT
HETATM    1  C           1     -21.881  -4.104  -8.892  0.00  0.00     0.185 C 
ENDROOT
BRANCH   1   2
HETATM    2  C           1     -20.726  -3.486  -8.116  0.00  0.00     0.038 C 
BRANCH   2   3
HETATM    3  C           1     -19.558  -4.463  -8.080  0.00  0.00     0.023 C 
BRANCH   3   4
HETATM    4  C           1     -19.479  -5.111  -6.704  0.00  0.00     0.138 C 
BRANCH   4   5
HETATM    5  N           1     -20.050  -6.464  -6.765  0.00  0.00    -0.227 N 
HETATM    6  H           1     -19.864  -7.075  -7.598  0.00  0.00     0.177 HD
HETATM    7  C           1     -20.767  -6.893  -5.814  0.00  0.00     0.665 C 
HETATM    8  N           1     -20.992  -6.156  -4.809  0.00  0.00    -0.235 N 
HETATM    9  N           1     -21.273  -8.089  -5.869  0.00  0.00    -0.235 N 
HETATM   10  H           1     -21.587  -6.511  -4.021  0.00  0.00     0.174 HD
HETATM   11  H           1     -20.584  -5.189  -4.765  0.00  0.00     0.174 HD
HETATM   12  H           1     -21.864  -8.442  -5.084  0.00  0.00     0.174 HD
HETATM   13  H           1     -21.087  -8.697  -6.698  0.00  0.00     0.174 HD
ENDBRANCH   4   5
ENDBRANCH   3   4
ENDBRANCH   2   3
ENDBRANCH   1   2
BRANCH   1  14
HETATM   14  C           1     -23.066  -4.283  -7.974  0.00  0.00     0.196 C 
HETATM   15  O           1     -24.225  -4.122  -8.411  0.00  0.00    -0.646 OA
HETATM   16  O           1     -22.885  -4.590  -6.776  0.00  0.00    -0.646 OA
ENDBRANCH   1  14
BRANCH   1  17
HETATM   17  N           1     -22.249  -3.228  -9.989  0.00  0.00    -0.345 N 
HETATM   18  C           1     -22.483  -3.750 -11.232  0.00  0.00     0.251 C 
HETATM   19  O           1     -22.385  -4.940 -11.417  0.00  0.00    -0.271 OA
HETATM   20  H           1     -22.331  -2.232  -9.834  0.00  0.00     0.163 HD
BRANCH  18  21
HETATM   21  C           1     -22.865  -2.840 -12.373  0.00  0.00     0.297 C 
BRANCH  21  22
HETATM   22  C           1     -24.377  -2.862 -12.558  0.00  0.00     0.206 C 
BRANCH  22  23
HETATM   23  O           1     -24.991  -3.197 -11.344  0.00  0.00    -0.398 OA
HETATM   24  H           1     -25.124  -2.391 -10.873  0.00  0.00     0.209 HD
ENDBRANCH  22  23
ENDBRANCH  21  22
BRANCH  21  25
HETATM   25  N           1     -22.201  -3.311 -13.632  0.00  0.00    -0.064 N 
HETATM   26  H           1     -22.298  -2.580 -14.372  0.00  0.00     0.275 HD
HETATM   27  H           1     -21.187  -3.486 -13.447  0.00  0.00     0.275 HD
HETATM   28  H           1     -22.655  -4.196 -13.955  0.00  0.00     0.275 HD
ENDBRANCH  21  25
ENDBRANCH  18  21
ENDBRANCH   1  17
TORSDOF 10
ENDMDL
MODEL 6
REMARK VINA RESULT:      -5.9      8.839     11.027
REMARK  10 active torsions:
REMARK  status: ('A' for Active; 'I' for Inactive)
REMARK    1  A    between atoms: O_1  and  C_15 
REMARK    2  A    between atoms: C_7  and  C_12 
REMARK    3  A    between atoms: C_7  and  C_8 
REMARK    4  A    between atoms: C_8  and  C_24 
REMARK    5  A    between atoms: C_8  and  N_10 
REMARK       I    between atoms: C_9  and  N_10 
REMARK    6  A    between atoms: C_9  and  C_14 
REMARK    7  A    between atoms: C_12  and  C_20 
REMARK    8  A    between atoms: C_14  and  C_15 
REMARK    9  A    between atoms: C_14  and  N_19 
REMARK       I    between atoms: N_18  and  C_25 
REMARK   10  A    between atoms: C_20  and  N_28 
REMARK       I    between atoms: N_23  and  C_25 
ROOT
HETATM    1  C           1     -23.560  -4.293 -10.687  0.00  0.00     0.185 C 
ENDROOT
BRANCH   1   2
HETATM    2  C           1     -22.329  -4.907 -10.032  0.00  0.00     0.038 C 
BRANCH   2   3
HETATM    3  C           1     -21.134  -3.984 -10.235  0.00  0.00     0.023 C 
BRANCH   3   4
HETATM    4  C           1     -20.342  -3.886  -8.937  0.00  0.00     0.138 C 
BRANCH   4   5
HETATM    5  N           1     -20.050  -5.238  -8.437  0.00  0.00    -0.227 N 
HETATM    6  H           1     -19.726  -5.984  -9.101  0.00  0.00     0.177 HD
HETATM    7  C           1     -20.189  -5.502  -7.207  0.00  0.00     0.665 C 
HETATM    8  N           1     -20.580  -4.602  -6.407  0.00  0.00    -0.235 N 
HETATM    9  N           1     -19.931  -6.697  -6.766  0.00  0.00    -0.235 N 
HETATM   10  H           1     -20.696  -4.821  -5.387  0.00  0.00     0.174 HD
HETATM   11  H           1     -20.788  -3.636  -6.763  0.00  0.00     0.174 HD
HETATM   12  H           1     -20.046  -6.914  -5.750  0.00  0.00     0.174 HD
HETATM   13  H           1     -19.609  -7.439  -7.426  0.00  0.00     0.174 HD
ENDBRANCH   4   5
ENDBRANCH   3   4
ENDBRANCH   2   3
ENDBRANCH   1   2
BRANCH   1  14
HETATM   14  C           1     -24.449  -3.694  -9.625  0.00  0.00     0.196 C 
HETATM   15  O           1     -25.508  -3.115  -9.949  0.00  0.00    -0.646 OA
HETATM   16  O           1     -24.125  -3.776  -8.421  0.00  0.00    -0.646 OA
ENDBRANCH   1  14
BRANCH   1  17
HETATM   17  N           1     -23.147  -3.255 -11.613  0.00  0.00    -0.345 N 
HETATM   18  C           1     -23.613  -3.262 -12.900  0.00  0.00     0.251 C 
HETATM   19  O           1     -24.368  -4.131 -13.266  0.00  0.00    -0.271 OA
HETATM   20  H           1     -22.515  -2.527 -11.306  0.00  0.00     0.163 HD
BRANCH  18  21
HETATM   21  C           1     -23.183  -2.182 -13.862  0.00  0.00     0.297 C 
BRANCH  21  22
HETATM   22  C           1     -24.401  -1.381 -14.305  0.00  0.00     0.206 C 
BRANCH  22  23
HETATM   23  O           1     -24.186  -0.879 -15.595  0.00  0.00    -0.398 OA
HETATM   24  H           1     -23.329  -0.489 -15.599  0.00  0.00     0.209 HD
ENDBRANCH  22  23
ENDBRANCH  21  22
BRANCH  21  25
HETATM   25  N           1     -22.536  -2.810 -15.061  0.00  0.00    -0.064 N 
HETATM   26  H           1     -21.821  -3.504 -14.749  0.00  0.00     0.275 HD
HETATM   27  H           1     -23.263  -3.294 -15.636  0.00  0.00     0.275 HD
HETATM   28  H           1     -22.074  -2.069 -15.636  0.00  0.00     0.275 HD
ENDBRANCH  21  25
ENDBRANCH  18  21
ENDBRANCH   1  17
TORSDOF 10
ENDMDL
MODEL 7
REMARK VINA RESULT:      -5.8     10.708     13.012
REMARK  10 active torsions:
REMARK  status: ('A' for Active; 'I' for Inactive)
REMARK    1  A    between atoms: O_1  and  C_15 
REMARK    2  A    between atoms: C_7  and  C_12 
REMARK    3  A    between atoms: C_7  and  C_8 
REMARK    4  A    between atoms: C_8  and  C_24 
REMARK    5  A    between atoms: C_8  and  N_10 
REMARK       I    between atoms: C_9  and  N_10 
REMARK    6  A    between atoms: C_9  and  C_14 
REMARK    7  A    between atoms: C_12  and  C_20 
REMARK    8  A    between atoms: C_14  and  C_15 
REMARK    9  A    between atoms: C_14  and  N_19 
REMARK       I    between atoms: N_18  and  C_25 
REMARK   10  A    between atoms: C_20  and  N_28 
REMARK       I    between atoms: N_23  and  C_25 
ROOT
HETATM    1  C           1     -21.548  -4.797  -8.080  0.00  0.00     0.185 C 
ENDROOT
BRANCH   1   2
HETATM    2  C           1     -22.518  -3.650  -8.329  0.00  0.00     0.038 C 
BRANCH   2   3
HETATM    3  C           1     -23.836  -4.204  -8.855  0.00  0.00     0.023 C 
BRANCH   3   4
HETATM    4  C           1     -24.072  -3.696 -10.271  0.00  0.00     0.138 C 
BRANCH   4   5
HETATM    5  N           1     -22.936  -4.076 -11.124  0.00  0.00    -0.227 N 
HETATM    6  H           1     -22.405  -4.959 -10.928  0.00  0.00     0.177 HD
HETATM    7  C           1     -22.599  -3.337 -12.095  0.00  0.00     0.665 C 
HETATM    8  N           1     -23.240  -2.271 -12.332  0.00  0.00    -0.235 N 
HETATM    9  N           1     -21.595  -3.673 -12.849  0.00  0.00    -0.235 N 
HETATM   10  H           1     -22.960  -1.658 -13.138  0.00  0.00     0.174 HD
HETATM   11  H           1     -24.051  -1.999 -11.723  0.00  0.00     0.174 HD
HETATM   12  H           1     -21.317  -3.063 -13.651  0.00  0.00     0.174 HD
HETATM   13  H           1     -21.067  -4.553 -12.654  0.00  0.00     0.174 HD
ENDBRANCH   4   5
ENDBRANCH   3   4
ENDBRANCH   2   3
ENDBRANCH   1   2
BRANCH   1  14
HETATM   14  C           1     -20.228  -4.494  -8.746  0.00  0.00     0.196 C 
HETATM   15  O           1     -20.103  -4.638  -9.980  0.00  0.00    -0.646 OA
HETATM   16  O           1     -19.260  -4.100  -8.060  0.00  0.00    -0.646 OA
ENDBRANCH   1  14
BRANCH   1  17
HETATM   17  N           1     -21.343  -4.954  -6.652  0.00  0.00    -0.345 N 
HETATM   18  C           1     -21.172  -6.204  -6.119  0.00  0.00     0.251 C 
HETATM   19  O           1     -21.192  -7.175  -6.836  0.00  0.00    -0.271 OA
HETATM   20  H           1     -21.326  -4.140  -6.051  0.00  0.00     0.163 HD
BRANCH  18  21
HETATM   21  C           1     -20.959  -6.367  -4.634  0.00  0.00     0.297 C 
BRANCH  21  22
HETATM   22  C           1     -20.485  -7.785  -4.342  0.00  0.00     0.206 C 
BRANCH  22  23
HETATM   23  O           1     -21.583  -8.656  -4.349  0.00  0.00    -0.398 OA
HETATM   24  H           1     -21.265  -9.500  -4.078  0.00  0.00     0.209 HD
ENDBRANCH  22  23
ENDBRANCH  21  22
BRANCH  21  25
HETATM   25  N           1     -22.250  -6.113  -3.913  0.00  0.00    -0.064 N 
HETATM   26  H           1     -22.458  -6.915  -3.278  0.00  0.00     0.275 HD
HETATM   27  H           1     -22.169  -5.236  -3.352  0.00  0.00     0.275 HD
HETATM   28  H           1     -23.023  -6.011  -4.610  0.00  0.00     0.275 HD
ENDBRANCH  21  25
ENDBRANCH  18  21
ENDBRANCH   1  17
TORSDOF 10
ENDMDL
MODEL 8
REMARK VINA RESULT:      -5.8     11.545     13.567
REMARK  10 active torsions:
REMARK  status: ('A' for Active; 'I' for Inactive)
REMARK    1  A    between atoms: O_1  and  C_15 
REMARK    2  A    between atoms: C_7  and  C_12 
REMARK    3  A    between atoms: C_7  and  C_8 
REMARK    4  A    between atoms: C_8  and  C_24 
REMARK    5  A    between atoms: C_8  and  N_10 
REMARK       I    between atoms: C_9  and  N_10 
REMARK    6  A    between atoms: C_9  and  C_14 
REMARK    7  A    between atoms: C_12  and  C_20 
REMARK    8  A    between atoms: C_14  and  C_15 
REMARK    9  A    between atoms: C_14  and  N_19 
REMARK       I    between atoms: N_18  and  C_25 
REMARK   10  A    between atoms: C_20  and  N_28 
REMARK       I    between atoms: N_23  and  C_25 
ROOT
HETATM    1  C           1     -21.112  -4.236  -7.668  0.00  0.00     0.185 C 
ENDROOT
BRANCH   1   2
HETATM    2  C           1     -21.075  -4.845  -6.272  0.00  0.00     0.038 C 
BRANCH   2   3
HETATM    3  C           1     -21.134  -6.363  -6.379  0.00  0.00     0.023 C 
BRANCH   3   4
HETATM    4  C           1     -20.961  -6.978  -4.996  0.00  0.00     0.138 C 
BRANCH   4   5
HETATM    5  N           1     -21.628  -6.131  -3.996  0.00  0.00    -0.227 N 
HETATM    6  H           1     -22.030  -5.204  -4.278  0.00  0.00     0.177 HD
HETATM    7  C           1     -21.717  -6.520  -2.795  0.00  0.00     0.665 C 
HETATM    8  N           1     -21.231  -7.639  -2.454  0.00  0.00    -0.235 N 
HETATM    9  N           1     -22.307  -5.772  -1.911  0.00  0.00    -0.235 N 
HETATM   10  H           1     -21.305  -7.962  -1.458  0.00  0.00     0.174 HD
HETATM   11  H           1     -20.755  -8.244  -3.168  0.00  0.00     0.174 HD
HETATM   12  H           1     -22.380  -6.093  -0.920  0.00  0.00     0.174 HD
HETATM   13  H           1     -22.707  -4.849  -2.193  0.00  0.00     0.174 HD
ENDBRANCH   4   5
ENDBRANCH   3   4
ENDBRANCH   2   3
ENDBRANCH   1   2
BRANCH   1  14
HETATM   14  C           1     -19.781  -4.451  -8.346  0.00  0.00     0.196 C 
HETATM   15  O           1     -18.721  -4.289  -7.706  0.00  0.00    -0.646 OA
HETATM   16  O           1     -19.741  -4.789  -9.548  0.00  0.00    -0.646 OA
ENDBRANCH   1  14
BRANCH   1  17
HETATM   17  N           1     -22.158  -4.874  -8.444  0.00  0.00    -0.345 N 
HETATM   18  C           1     -22.966  -4.121  -9.253  0.00  0.00     0.251 C 
HETATM   19  O           1     -22.809  -2.925  -9.319  0.00  0.00    -0.271 OA
HETATM   20  H           1     -22.289  -5.876  -8.389  0.00  0.00     0.163 HD
BRANCH  18  21
HETATM   21  C           1     -24.054  -4.784 -10.061  0.00  0.00     0.297 C 
BRANCH  21  22
HETATM   22  C           1     -23.654  -4.808 -11.530  0.00  0.00     0.206 C 
BRANCH  22  23
HETATM   23  O           1     -22.259  -4.730 -11.636  0.00  0.00    -0.398 OA
HETATM   24  H           1     -21.932  -5.614 -11.615  0.00  0.00     0.209 HD
ENDBRANCH  22  23
ENDBRANCH  21  22
BRANCH  21  25
HETATM   25  N           1     -25.332  -4.016  -9.904  0.00  0.00    -0.064 N 
HETATM   26  H           1     -26.110  -4.674  -9.673  0.00  0.00     0.275 HD
HETATM   27  H           1     -25.227  -3.318  -9.133  0.00  0.00     0.275 HD
HETATM   28  H           1     -25.551  -3.518 -10.797  0.00  0.00     0.275 HD
ENDBRANCH  21  25
ENDBRANCH  18  21
ENDBRANCH   1  17
TORSDOF 10
ENDMDL
MODEL 9
REMARK VINA RESULT:      -5.7     12.468     14.509
REMARK  10 active torsions:
REMARK  status: ('A' for Active; 'I' for Inactive)
REMARK    1  A    between atoms: O_1  and  C_15 
REMARK    2  A    between atoms: C_7  and  C_12 
REMARK    3  A    between atoms: C_7  and  C_8 
REMARK    4  A    between atoms: C_8  and  C_24 
REMARK    5  A    between atoms: C_8  and  N_10 
REMARK       I    between atoms: C_9  and  N_10 
REMARK    6  A    between atoms: C_9  and  C_14 
REMARK    7  A    between atoms: C_12  and  C_20 
REMARK    8  A    between atoms: C_14  and  C_15 
REMARK    9  A    between atoms: C_14  and  N_19 
REMARK       I    between atoms: N_18  and  C_25 
REMARK   10  A    between atoms: C_20  and  N_28 
REMARK       I    between atoms: N_23  and  C_25 
ROOT
HETATM    1  C           1     -20.660  -6.794  -5.391  0.00  0.00     0.185 C 
ENDROOT
BRANCH   1   2
HETATM    2  C           1     -20.477  -6.036  -6.700  0.00  0.00     0.038 C 
BRANCH   2   3
HETATM    3  C           1     -20.152  -4.578  -6.402  0.00  0.00     0.023 C 
BRANCH   3   4
HETATM    4  C           1     -20.747  -3.692  -7.489  0.00  0.00     0.138 C 
BRANCH   4   5
HETATM    5  N           1     -22.214  -3.763  -7.431  0.00  0.00    -0.227 N 
HETATM    6  H           1     -22.706  -3.729  -6.504  0.00  0.00     0.177 HD
HETATM    7  C           1     -22.886  -3.867  -8.499  0.00  0.00     0.665 C 
HETATM    8  N           1     -22.294  -3.909  -9.617  0.00  0.00    -0.235 N 
HETATM    9  N           1     -24.183  -3.930  -8.447  0.00  0.00    -0.235 N 
HETATM   10  H           1     -22.851  -3.994 -10.503  0.00  0.00     0.174 HD
HETATM   11  H           1     -21.246  -3.858  -9.659  0.00  0.00     0.174 HD
HETATM   12  H           1     -24.737  -4.015  -9.329  0.00  0.00     0.174 HD
HETATM   13  H           1     -24.672  -3.895  -7.524  0.00  0.00     0.174 HD
ENDBRANCH   4   5
ENDBRANCH   3   4
ENDBRANCH   2   3
ENDBRANCH   1   2
BRANCH   1  14
HETATM   14  C           1     -21.930  -6.335  -4.718  0.00  0.00     0.196 C 
HETATM   15  O           1     -21.979  -6.238  -3.474  0.00  0.00    -0.646 OA
HETATM   16  O           1     -22.934  -6.053  -5.407  0.00  0.00    -0.646 OA
ENDBRANCH   1  14
BRANCH   1  17
HETATM   17  N           1     -20.746  -8.216  -5.665  0.00  0.00    -0.345 N 
HETATM   18  C           1     -19.984  -9.098  -4.947  0.00  0.00     0.251 C 
HETATM   19  O           1     -19.241  -8.693  -4.085  0.00  0.00    -0.271 OA
HETATM   20  H           1     -21.369  -8.555  -6.387  0.00  0.00     0.163 HD
BRANCH  18  21
HETATM   21  C           1     -20.073 -10.577  -5.232  0.00  0.00     0.297 C 
BRANCH  21  22
HETATM   22  C           1     -18.759 -11.059  -5.832  0.00  0.00     0.206 C 
BRANCH  22  23
HETATM   23  O           1     -18.107  -9.986  -6.453  0.00  0.00    -0.398 OA
HETATM   24  H           1     -18.019  -9.307  -5.805  0.00  0.00     0.209 HD
ENDBRANCH  22  23
ENDBRANCH  21  22
BRANCH  21  25
HETATM   25  N           1     -21.189 -10.833  -6.201  0.00  0.00    -0.064 N 
HETATM   26  H           1     -21.816 -11.578  -5.824  0.00  0.00     0.275 HD
HETATM   27  H           1     -21.737  -9.954  -6.341  0.00  0.00     0.275 HD
HETATM   28  H           1     -20.790 -11.144  -7.117  0.00  0.00     0.275 HD
ENDBRANCH  21  25
ENDBRANCH  18  21
ENDBRANCH   1  17
TORSDOF 10
ENDMDL
