MODEL 1
REMARK VINA RESULT:      -5.7      0.000      0.000
REMARK  7 active torsions:
REMARK  status: ('A' for Active; 'I' for Inactive)
REMARK    1  A    between atoms: C_1  and  C_7 
REMARK    2  A    between atoms: C_1  and  C_9 
REMARK    3  A    between atoms: N_2  and  C_8 
REMARK       I    between atoms: N_2  and  C_12 
REMARK    4  A    between atoms: N_3  and  C_7 
REMARK    5  A    between atoms: C_7  and  C_12 
REMARK    6  A    between atoms: C_8  and  C_10 
REMARK    7  A    between atoms: C_9  and  S_11 
ROOT
HETATM    1  C           1     -23.165  -3.595  -9.235  0.00  0.00     0.275 C 
ENDROOT
BRANCH   1   2
HETATM    2  C           1     -22.187  -4.696  -9.621  0.00  0.00     0.053 C 
BRANCH   2   3
HETATM    3  C           1     -20.769  -4.141  -9.619  0.00  0.00     0.076 C 
BRANCH   3   4
HETATM    4  S           1     -20.142  -4.087  -7.916  0.00  0.00    -0.173 SA
HETATM    5  C           1     -20.722  -5.740  -7.439  0.00  0.00     0.089 C 
ENDBRANCH   3   4
ENDBRANCH   2   3
ENDBRANCH   1   2
BRANCH   1   6
HETATM    6  N           1     -23.964  -4.030  -8.043  0.00  0.00    -0.066 N 
HETATM    7  H           1     -24.523  -4.878  -8.289  0.00  0.00     0.275 HD
HETATM    8  H           1     -23.318  -4.256  -7.255  0.00  0.00     0.275 HD
HETATM    9  H           1     -24.610  -3.260  -7.756  0.00  0.00     0.275 HD
ENDBRANCH   1   6
BRANCH   1  10
HETATM   10  C           1     -24.098  -3.322 -10.391  0.00  0.00     0.248 C 
HETATM   11  N           1     -23.593  -3.145 -11.650  0.00  0.00    -0.349 N 
HETATM   12  H           1     -22.594  -3.196 -11.808  0.00  0.00     0.163 HD
HETATM   13  O           1     -25.290  -3.260 -10.203  0.00  0.00    -0.271 OA
BRANCH  11  14
HETATM   14  C           1     -24.489  -2.883 -12.760  0.00  0.00     0.235 C 
BRANCH  14  15
HETATM   15  C           1     -23.695  -2.382 -13.942  0.00  0.00     0.191 C 
HETATM   16  O           1     -22.585  -2.892 -14.210  0.00  0.00    -0.647 OA
HETATM   17  O           1     -24.146  -1.457 -14.651  0.00  0.00    -0.647 OA
ENDBRANCH  14  15
ENDBRANCH  11  14
ENDBRANCH   1  10
TORSDOF 7
ENDMDL
MODEL 2
REMARK VINA RESULT:      -5.5      1.956      2.258
REMARK  7 active torsions:
REMARK  status: ('A' for Active; 'I' for Inactive)
REMARK    1  A    between atoms: C_1  and  C_7 
REMARK    2  A    between atoms: C_1  and  C_9 
REMARK    3  A    between atoms: N_2  and  C_8 
REMARK       I    between atoms: N_2  and  C_12 
REMARK    4  A    between atoms: N_3  and  C_7 
REMARK    5  A    between atoms: C_7  and  C_12 
REMARK    6  A    between atoms: C_8  and  C_10 
REMARK    7  A    between atoms: C_9  and  S_11 
ROOT
HETATM    1  C           1     -21.240  -4.325 -11.049  0.00  0.00     0.275 C 
ENDROOT
BRANCH   1   2
HETATM    2  C           1     -21.448  -4.221  -9.544  0.00  0.00     0.053 C 
BRANCH   2   3
HETATM    3  C           1     -20.118  -4.427  -8.831  0.00  0.00     0.076 C 
BRANCH   3   4
HETATM    4  S           1     -20.398  -4.503  -7.039  0.00  0.00    -0.173 SA
HETATM    5  C           1     -22.211  -4.506  -7.121  0.00  0.00     0.089 C 
ENDBRANCH   3   4
ENDBRANCH   2   3
ENDBRANCH   1   2
BRANCH   1   6
HETATM    6  N           1     -20.230  -3.307 -11.486  0.00  0.00    -0.066 N 
HETATM    7  H           1     -19.749  -3.642 -12.351  0.00  0.00     0.275 HD
HETATM    8  H           1     -20.711  -2.401 -11.684  0.00  0.00     0.275 HD
HETATM    9  H           1     -19.524  -3.169 -10.728  0.00  0.00     0.275 HD
ENDBRANCH   1   6
BRANCH   1  10
HETATM   10  C           1     -22.548  -4.070 -11.757  0.00  0.00     0.248 C 
HETATM   11  N           1     -22.688  -2.971 -12.561  0.00  0.00    -0.349 N 
HETATM   12  H           1     -21.914  -2.330 -12.682  0.00  0.00     0.163 HD
HETATM   13  O           1     -23.472  -4.835 -11.613  0.00  0.00    -0.271 OA
BRANCH  11  14
HETATM   14  C           1     -23.945  -2.726 -13.241  0.00  0.00     0.235 C 
BRANCH  14  15
HETATM   15  C           1     -23.682  -2.020 -14.549  0.00  0.00     0.191 C 
HETATM   16  O           1     -24.412  -1.069 -14.903  0.00  0.00    -0.647 OA
HETATM   17  O           1     -22.735  -2.386 -15.277  0.00  0.00    -0.647 OA
ENDBRANCH  14  15
ENDBRANCH  11  14
ENDBRANCH   1  10
TORSDOF 7
ENDMDL
MODEL 3
REMARK VINA RESULT:      -5.4     11.656     12.668
REMARK  7 active torsions:
REMARK  status: ('A' for Active; 'I' for Inactive)
REMARK    1  A    between atoms: C_1  and  C_7 
REMARK    2  A    between atoms: C_1  and  C_9 
REMARK    3  A    between atoms: N_2  and  C_8 
REMARK       I    between atoms: N_2  and  C_12 
REMARK    4  A    between atoms: N_3  and  C_7 
REMARK    5  A    between atoms: C_7  and  C_12 
REMARK    6  A    between atoms: C_8  and  C_10 
REMARK    7  A    between atoms: C_9  and  S_11 
ROOT
HETATM    1  C           1     -34.570  -1.355 -11.906  0.00  0.00     0.275 C 
ENDROOT
BRANCH   1   2
HETATM    2  C           1     -34.154  -2.797 -12.161  0.00  0.00     0.053 C 
BRANCH   2   3
HETATM    3  C           1     -33.579  -3.395 -10.884  0.00  0.00     0.076 C 
BRANCH   3   4
HETATM    4  S           1     -33.833  -5.193 -10.889  0.00  0.00    -0.173 SA
HETATM    5  C           1     -34.841  -5.246 -12.398  0.00  0.00     0.089 C 
ENDBRANCH   3   4
ENDBRANCH   2   3
ENDBRANCH   1   2
BRANCH   1   6
HETATM    6  N           1     -35.279  -1.266 -10.587  0.00  0.00    -0.066 N 
HETATM    7  H           1     -36.194  -1.768 -10.648  0.00  0.00     0.275 HD
HETATM    8  H           1     -34.690  -1.705  -9.844  0.00  0.00     0.275 HD
HETATM    9  H           1     -35.449  -0.262 -10.350  0.00  0.00     0.275 HD
ENDBRANCH   1   6
BRANCH   1  10
HETATM   10  C           1     -35.497  -0.896 -13.005  0.00  0.00     0.248 C 
HETATM   11  N           1     -34.991  -0.258 -14.105  0.00  0.00    -0.349 N 
HETATM   12  H           1     -33.995  -0.093 -14.181  0.00  0.00     0.163 HD
HETATM   13  O           1     -36.686  -1.093 -12.914  0.00  0.00    -0.271 OA
BRANCH  11  14
HETATM   14  C           1     -35.882   0.183 -15.161  0.00  0.00     0.235 C 
BRANCH  14  15
HETATM   15  C           1     -35.830  -0.798 -16.307  0.00  0.00     0.191 C 
HETATM   16  O           1     -36.779  -0.863 -17.117  0.00  0.00    -0.647 OA
HETATM   17  O           1     -34.838  -1.545 -16.445  0.00  0.00    -0.647 OA
ENDBRANCH  14  15
ENDBRANCH  11  14
ENDBRANCH   1  10
TORSDOF 7
ENDMDL
MODEL 4
REMARK VINA RESULT:      -5.2      3.466      6.009
REMARK  7 active torsions:
REMARK  status: ('A' for Active; 'I' for Inactive)
REMARK    1  A    between atoms: C_1  and  C_7 
REMARK    2  A    between atoms: C_1  and  C_9 
REMARK    3  A    between atoms: N_2  and  C_8 
REMARK       I    between atoms: N_2  and  C_12 
REMARK    4  A    between atoms: N_3  and  C_7 
REMARK    5  A    between atoms: C_7  and  C_12 
REMARK    6  A    between atoms: C_8  and  C_10 
REMARK    7  A    between atoms: C_9  and  S_11 
ROOT
HETATM    1  C           1     -23.958  -4.422  -9.444  0.00  0.00     0.275 C 
ENDROOT
BRANCH   1   2
HETATM    2  C           1     -23.837  -4.640 -10.946  0.00  0.00     0.053 C 
BRANCH   2   3
HETATM    3  C           1     -24.204  -3.356 -11.678  0.00  0.00     0.076 C 
BRANCH   3   4
HETATM    4  S           1     -22.704  -2.605 -12.373  0.00  0.00    -0.173 SA
HETATM    5  C           1     -23.192  -2.764 -14.114  0.00  0.00     0.089 C 
ENDBRANCH   3   4
ENDBRANCH   2   3
ENDBRANCH   1   2
BRANCH   1   6
HETATM    6  N           1     -24.672  -3.131  -9.182  0.00  0.00    -0.066 N 
HETATM    7  H           1     -23.983  -2.344  -9.187  0.00  0.00     0.275 HD
HETATM    8  H           1     -25.388  -2.971  -9.926  0.00  0.00     0.275 HD
HETATM    9  H           1     -25.142  -3.175  -8.249  0.00  0.00     0.275 HD
ENDBRANCH   1   6
BRANCH   1  10
HETATM   10  C           1     -22.580  -4.367  -8.831  0.00  0.00     0.248 C 
HETATM   11  N           1     -22.435  -4.112  -7.494  0.00  0.00    -0.349 N 
HETATM   12  H           1     -23.252  -3.961  -6.916  0.00  0.00     0.163 HD
HETATM   13  O           1     -21.604  -4.547  -9.521  0.00  0.00    -0.271 OA
BRANCH  11  14
HETATM   14  C           1     -21.110  -4.059  -6.906  0.00  0.00     0.235 C 
BRANCH  14  15
HETATM   15  C           1     -20.820  -5.359  -6.198  0.00  0.00     0.191 C 
HETATM   16  O           1     -20.522  -6.377  -6.859  0.00  0.00    -0.647 OA
HETATM   17  O           1     -20.879  -5.419  -4.951  0.00  0.00    -0.647 OA
ENDBRANCH  14  15
ENDBRANCH  11  14
ENDBRANCH   1  10
TORSDOF 7
ENDMDL
MODEL 5
REMARK VINA RESULT:      -5.0      2.387      3.527
REMARK  7 active torsions:
REMARK  status: ('A' for Active; 'I' for Inactive)
REMARK    1  A    between atoms: C_1  and  C_7 
REMARK    2  A    between atoms: C_1  and  C_9 
REMARK    3  A    between atoms: N_2  and  C_8 
REMARK       I    between atoms: N_2  and  C_12 
REMARK    4  A    between atoms: N_3  and  C_7 
REMARK    5  A    between atoms: C_7  and  C_12 
REMARK    6  A    between atoms: C_8  and  C_10 
REMARK    7  A    between atoms: C_9  and  S_11 
ROOT
HETATM    1  C           1     -20.722  -4.118  -8.064  0.00  0.00     0.275 C 
ENDROOT
BRANCH   1   2
HETATM    2  C           1     -20.334  -5.441  -7.419  0.00  0.00     0.053 C 
BRANCH   2   3
HETATM    3  C           1     -20.498  -5.338  -5.908  0.00  0.00     0.076 C 
BRANCH   3   4
HETATM    4  S           1     -21.487  -6.737  -5.309  0.00  0.00    -0.173 SA
HETATM    5  C           1     -21.463  -6.262  -3.558  0.00  0.00     0.089 C 
ENDBRANCH   3   4
ENDBRANCH   2   3
ENDBRANCH   1   2
BRANCH   1   6
HETATM    6  N           1     -21.534  -3.308  -7.098  0.00  0.00    -0.066 N 
HETATM    7  H           1     -22.539  -3.588  -7.167  0.00  0.00     0.275 HD
HETATM    8  H           1     -21.191  -3.480  -6.126  0.00  0.00     0.275 HD
HETATM    9  H           1     -21.440  -2.293  -7.327  0.00  0.00     0.275 HD
ENDBRANCH   1   6
BRANCH   1  10
HETATM   10  C           1     -21.540  -4.384  -9.305  0.00  0.00     0.248 C 
HETATM   11  N           1     -22.898  -4.526  -9.213  0.00  0.00    -0.349 N 
HETATM   12  H           1     -23.355  -4.453  -8.313  0.00  0.00     0.163 HD
HETATM   13  O           1     -20.995  -4.472 -10.380  0.00  0.00    -0.271 OA
BRANCH  11  14
HETATM   14  C           1     -23.683  -4.782 -10.405  0.00  0.00     0.235 C 
BRANCH  14  15
HETATM   15  C           1     -24.415  -3.525 -10.806  0.00  0.00     0.191 C 
HETATM   16  O           1     -23.993  -2.833 -11.757  0.00  0.00    -0.647 OA
HETATM   17  O           1     -25.443  -3.177 -10.187  0.00  0.00    -0.647 OA
ENDBRANCH  14  15
ENDBRANCH  11  14
ENDBRANCH   1  10
TORSDOF 7
ENDMDL
MODEL 6
REMARK VINA RESULT:      -4.8     11.787     13.378
REMARK  7 active torsions:
REMARK  status: ('A' for Active; 'I' for Inactive)
REMARK    1  A    between atoms: C_1  and  C_7 
REMARK    2  A    between atoms: C_1  and  C_9 
REMARK    3  A    between atoms: N_2  and  C_8 
REMARK       I    between atoms: N_2  and  C_12 
REMARK    4  A    between atoms: N_3  and  C_7 
REMARK    5  A    between atoms: C_7  and  C_12 
REMARK    6  A    between atoms: C_8  and  C_10 
REMARK    7  A    between atoms: C_9  and  S_11 
ROOT
HETATM    1  C           1     -36.632  -0.481 -11.295  0.00  0.00     0.275 C 
ENDROOT
BRANCH   1   2
HETATM    2  C           1     -36.165   0.080 -12.631  0.00  0.00     0.053 C 
BRANCH   2   3
HETATM    3  C           1     -37.249  -0.133 -13.680  0.00  0.00     0.076 C 
BRANCH   3   4
HETATM    4  S           1     -36.593   0.281 -15.321  0.00  0.00    -0.173 SA
HETATM    5  C           1     -34.947   0.794 -14.753  0.00  0.00     0.089 C 
ENDBRANCH   3   4
ENDBRANCH   2   3
ENDBRANCH   1   2
BRANCH   1   6
HETATM    6  N           1     -36.438   0.551 -10.224  0.00  0.00    -0.066 N 
HETATM    7  H           1     -35.994   1.402 -10.637  0.00  0.00     0.275 HD
HETATM    8  H           1     -37.364   0.806  -9.814  0.00  0.00     0.275 HD
HETATM    9  H           1     -35.820   0.164  -9.476  0.00  0.00     0.275 HD
ENDBRANCH   1   6
BRANCH   1  10
HETATM   10  C           1     -35.827  -1.712 -10.957  0.00  0.00     0.248 C 
HETATM   11  N           1     -34.463  -1.685 -11.054  0.00  0.00    -0.349 N 
HETATM   12  H           1     -33.992  -0.840 -11.352  0.00  0.00     0.163 HD
HETATM   13  O           1     -36.388  -2.721 -10.601  0.00  0.00    -0.271 OA
BRANCH  11  14
HETATM   14  C           1     -33.689  -2.869 -10.729  0.00  0.00     0.235 C 
BRANCH  14  15
HETATM   15  C           1     -33.302  -3.583 -12.001  0.00  0.00     0.191 C 
HETATM   16  O           1     -32.393  -4.441 -11.983  0.00  0.00    -0.647 OA
HETATM   17  O           1     -33.890  -3.317 -13.071  0.00  0.00    -0.647 OA
ENDBRANCH  14  15
ENDBRANCH  11  14
ENDBRANCH   1  10
TORSDOF 7
ENDMDL
MODEL 7
REMARK VINA RESULT:      -4.7      4.777      7.726
REMARK  7 active torsions:
REMARK  status: ('A' for Active; 'I' for Inactive)
REMARK    1  A    between atoms: C_1  and  C_7 
REMARK    2  A    between atoms: C_1  and  C_9 
REMARK    3  A    between atoms: N_2  and  C_8 
REMARK       I    between atoms: N_2  and  C_12 
REMARK    4  A    between atoms: N_3  and  C_7 
REMARK    5  A    between atoms: C_7  and  C_12 
REMARK    6  A    between atoms: C_8  and  C_10 
REMARK    7  A    between atoms: C_9  and  S_11 
ROOT
HETATM    1  C           1     -22.256  -4.490  -7.314  0.00  0.00     0.275 C 
ENDROOT
BRANCH   1   2
HETATM    2  C           1     -22.132  -4.759  -8.807  0.00  0.00     0.053 C 
BRANCH   2   3
HETATM    3  C           1     -22.997  -3.769  -9.577  0.00  0.00     0.076 C 
BRANCH   3   4
HETATM    4  S           1     -23.719  -4.594 -11.024  0.00  0.00    -0.173 SA
HETATM    5  C           1     -23.941  -3.091 -12.017  0.00  0.00     0.089 C 
ENDBRANCH   3   4
ENDBRANCH   2   3
ENDBRANCH   1   2
BRANCH   1   6
HETATM    6  N           1     -21.495  -3.246  -6.964  0.00  0.00    -0.066 N 
HETATM    7  H           1     -21.638  -3.022  -5.953  0.00  0.00     0.275 HD
HETATM    8  H           1     -20.478  -3.397  -7.146  0.00  0.00     0.275 HD
HETATM    9  H           1     -21.840  -2.451  -7.548  0.00  0.00     0.275 HD
ENDBRANCH   1   6
BRANCH   1  10
HETATM   10  C           1     -21.690  -5.657  -6.543  0.00  0.00     0.248 C 
HETATM   11  N           1     -22.029  -5.840  -5.229  0.00  0.00    -0.349 N 
HETATM   12  H           1     -22.659  -5.192  -4.774  0.00  0.00     0.163 HD
HETATM   13  O           1     -20.938  -6.431  -7.086  0.00  0.00    -0.271 OA
BRANCH  11  14
HETATM   14  C           1     -21.484  -6.962  -4.489  0.00  0.00     0.235 C 
BRANCH  14  15
HETATM   15  C           1     -21.596  -6.691  -3.009  0.00  0.00     0.191 C 
HETATM   16  O           1     -22.485  -5.925  -2.579  0.00  0.00    -0.647 OA
HETATM   17  O           1     -20.799  -7.232  -2.213  0.00  0.00    -0.647 OA
ENDBRANCH  14  15
ENDBRANCH  11  14
ENDBRANCH   1  10
TORSDOF 7
ENDMDL
MODEL 8
REMARK VINA RESULT:      -4.7     16.136     17.762
REMARK  7 active torsions:
REMARK  status: ('A' for Active; 'I' for Inactive)
REMARK    1  A    between atoms: C_1  and  C_7 
REMARK    2  A    between atoms: C_1  and  C_9 
REMARK    3  A    between atoms: N_2  and  C_8 
REMARK       I    between atoms: N_2  and  C_12 
REMARK    4  A    between atoms: N_3  and  C_7 
REMARK    5  A    between atoms: C_7  and  C_12 
REMARK    6  A    between atoms: C_8  and  C_10 
REMARK    7  A    between atoms: C_9  and  S_11 
ROOT
HETATM    1  C           1     -10.193   6.025 -19.473  0.00  0.00     0.275 C 
ENDROOT
BRANCH   1   2
HETATM    2  C           1      -9.479   6.486 -20.736  0.00  0.00     0.053 C 
BRANCH   2   3
HETATM    3  C           1     -10.046   7.828 -21.180  0.00  0.00     0.076 C 
BRANCH   3   4
HETATM    4  S           1     -10.436   8.834 -19.720  0.00  0.00    -0.173 SA
HETATM    5  C           1     -12.168   9.156 -20.158  0.00  0.00     0.089 C 
ENDBRANCH   3   4
ENDBRANCH   2   3
ENDBRANCH   1   2
BRANCH   1   6
HETATM    6  N           1      -9.200   5.405 -18.536  0.00  0.00    -0.066 N 
HETATM    7  H           1      -8.787   4.553 -18.980  0.00  0.00     0.275 HD
HETATM    8  H           1      -8.442   6.092 -18.328  0.00  0.00     0.275 HD
HETATM    9  H           1      -9.681   5.135 -17.648  0.00  0.00     0.275 HD
ENDBRANCH   1   6
BRANCH   1  10
HETATM   10  C           1     -11.246   5.005 -19.835  0.00  0.00     0.248 C 
HETATM   11  N           1     -12.549   5.393 -19.989  0.00  0.00    -0.349 N 
HETATM   12  H           1     -12.808   6.363 -19.862  0.00  0.00     0.163 HD
HETATM   13  O           1     -10.938   3.847 -19.987  0.00  0.00    -0.271 OA
BRANCH  11  14
HETATM   14  C           1     -13.561   4.413 -20.336  0.00  0.00     0.235 C 
BRANCH  14  15
HETATM   15  C           1     -14.914   5.079 -20.379  0.00  0.00     0.191 C 
HETATM   16  O           1     -15.445   5.346 -21.479  0.00  0.00    -0.647 OA
HETATM   17  O           1     -15.505   5.363 -19.315  0.00  0.00    -0.647 OA
ENDBRANCH  14  15
ENDBRANCH  11  14
ENDBRANCH   1  10
TORSDOF 7
ENDMDL
MODEL 9
REMARK VINA RESULT:      -4.5      4.099      6.662
REMARK  7 active torsions:
REMARK  status: ('A' for Active; 'I' for Inactive)
REMARK    1  A    between atoms: C_1  and  C_7 
REMARK    2  A    between atoms: C_1  and  C_9 
REMARK    3  A    between atoms: N_2  and  C_8 
REMARK       I    between atoms: N_2  and  C_12 
REMARK    4  A    between atoms: N_3  and  C_7 
REMARK    5  A    between atoms: C_7  and  C_12 
REMARK    6  A    between atoms: C_8  and  C_10 
REMARK    7  A    between atoms: C_9  and  S_11 
ROOT
HETATM    1  C           1     -21.373  -4.050  -9.650  0.00  0.00     0.275 C 
ENDROOT
BRANCH   1   2
HETATM    2  C           1     -22.775  -4.636  -9.742  0.00  0.00     0.053 C 
BRANCH   2   3
HETATM    3  C           1     -23.189  -4.741 -11.204  0.00  0.00     0.076 C 
BRANCH   3   4
HETATM    4  S           1     -24.182  -3.290 -11.658  0.00  0.00    -0.173 SA
HETATM    5  C           1     -23.108  -2.731 -13.011  0.00  0.00     0.089 C 
ENDBRANCH   3   4
ENDBRANCH   2   3
ENDBRANCH   1   2
BRANCH   1   6
HETATM    6  N           1     -20.591  -4.432 -10.871  0.00  0.00    -0.066 N 
HETATM    7  H           1     -19.986  -3.630 -11.162  0.00  0.00     0.275 HD
HETATM    8  H           1     -19.991  -5.259 -10.655  0.00  0.00     0.275 HD
HETATM    9  H           1     -21.249  -4.670 -11.647  0.00  0.00     0.275 HD
ENDBRANCH   1   6
BRANCH   1  10
HETATM   10  C           1     -20.682  -4.589  -8.422  0.00  0.00     0.248 C 
HETATM   11  N           1     -21.258  -5.597  -7.699  0.00  0.00    -0.349 N 
HETATM   12  H           1     -22.149  -5.982  -7.987  0.00  0.00     0.163 HD
HETATM   13  O           1     -19.619  -4.129  -8.077  0.00  0.00    -0.271 OA
BRANCH  11  14
HETATM   14  C           1     -20.593  -6.115  -6.518  0.00  0.00     0.235 C 
BRANCH  14  15
HETATM   15  C           1     -21.622  -6.658  -5.557  0.00  0.00     0.191 C 
HETATM   16  O           1     -22.598  -5.952  -5.223  0.00  0.00    -0.647 OA
HETATM   17  O           1     -21.498  -7.812  -5.096  0.00  0.00    -0.647 OA
ENDBRANCH  14  15
ENDBRANCH  11  14
ENDBRANCH   1  10
TORSDOF 7
ENDMDL
