MODEL 1
REMARK VINA RESULT:      -5.6      0.000      0.000
REMARK  10 active torsions:
REMARK  status: ('A' for Active; 'I' for Inactive)
REMARK    1  A    between atoms: C_2  and  O_16 
REMARK    2  A    between atoms: C_2  and  C_10 
REMARK    3  A    between atoms: C_3  and  C_8 
REMARK    4  A    between atoms: C_3  and  C_15 
REMARK       I    between atoms: C_5  and  N_6 
REMARK    5  A    between atoms: C_5  and  C_11 
REMARK    6  A    between atoms: N_6  and  C_10 
REMARK    7  A    between atoms: C_8  and  C_11 
REMARK    8  A    between atoms: C_10  and  C_12 
REMARK    9  A    between atoms: C_11  and  N_13 
REMARK   10  A    between atoms: C_15  and  N_19 
ROOT
HETATM    1  C           1     -21.238  -5.804  -6.965  0.00  0.00     0.274 C 
ENDROOT
BRANCH   1   2
HETATM    2  C           1     -21.681  -4.623  -7.794  0.00  0.00     0.249 C 
HETATM    3  N           1     -22.158  -4.818  -9.063  0.00  0.00    -0.343 N 
HETATM    4  H           1     -22.213  -5.754  -9.444  0.00  0.00     0.163 HD
HETATM    5  O           1     -21.615  -3.506  -7.339  0.00  0.00    -0.271 OA
BRANCH   3   6
HETATM    6  C           1     -22.584  -3.684  -9.859  0.00  0.00     0.209 C 
BRANCH   6   7
HETATM    7  C           1     -21.738  -3.607 -11.124  0.00  0.00     0.200 C 
BRANCH   7   8
HETATM    8  O           1     -22.296  -4.434 -12.110  0.00  0.00    -0.398 OA
HETATM    9  H           1     -23.015  -3.960 -12.490  0.00  0.00     0.209 HD
ENDBRANCH   7   8
ENDBRANCH   6   7
BRANCH   6  10
HETATM   10  C           1     -24.036  -3.850 -10.234  0.00  0.00     0.198 C 
HETATM   11  O           1     -24.640  -4.905  -9.942  0.00  0.00    -0.646 OA
HETATM   12  O           1     -24.635  -2.933 -10.836  0.00  0.00    -0.646 OA
ENDBRANCH   6  10
ENDBRANCH   3   6
ENDBRANCH   1   2
BRANCH   1  13
HETATM   13  C           1     -21.120  -5.384  -5.505  0.00  0.00     0.044 C 
BRANCH  13  14
HETATM   14  C           1     -21.934  -6.335  -4.636  0.00  0.00     0.030 C 
BRANCH  14  15
HETATM   15  C           1     -21.361  -6.347  -3.224  0.00  0.00     0.230 C 
BRANCH  15  16
HETATM   16  N           1     -22.416  -5.905  -2.253  0.00  0.00    -0.079 N 
HETATM   17  H           1     -23.257  -6.517  -2.350  0.00  0.00     0.274 HD
HETATM   18  H           1     -22.044  -5.978  -1.279  0.00  0.00     0.274 HD
HETATM   19  H           1     -22.679  -4.915  -2.452  0.00  0.00     0.274 HD
ENDBRANCH  15  16
ENDBRANCH  14  15
ENDBRANCH  13  14
ENDBRANCH   1  13
BRANCH   1  20
HETATM   20  N           1     -19.905  -6.285  -7.455  0.00  0.00    -0.067 N 
HETATM   21  H           1     -19.846  -7.323  -7.341  0.00  0.00     0.275 HD
HETATM   22  H           1     -19.794  -6.039  -8.465  0.00  0.00     0.275 HD
HETATM   23  H           1     -19.145  -5.829  -6.901  0.00  0.00     0.275 HD
ENDBRANCH   1  20
TORSDOF 10
ENDMDL
MODEL 2
REMARK VINA RESULT:      -5.5      2.883      3.848
REMARK  10 active torsions:
REMARK  status: ('A' for Active; 'I' for Inactive)
REMARK    1  A    between atoms: C_2  and  O_16 
REMARK    2  A    between atoms: C_2  and  C_10 
REMARK    3  A    between atoms: C_3  and  C_8 
REMARK    4  A    between atoms: C_3  and  C_15 
REMARK       I    between atoms: C_5  and  N_6 
REMARK    5  A    between atoms: C_5  and  C_11 
REMARK    6  A    between atoms: N_6  and  C_10 
REMARK    7  A    between atoms: C_8  and  C_11 
REMARK    8  A    between atoms: C_10  and  C_12 
REMARK    9  A    between atoms: C_11  and  N_13 
REMARK   10  A    between atoms: C_15  and  N_19 
ROOT
HETATM    1  C           1     -21.190  -4.487 -10.405  0.00  0.00     0.274 C 
ENDROOT
BRANCH   1   2
HETATM    2  C           1     -22.202  -3.624 -11.118  0.00  0.00     0.249 C 
HETATM    3  N           1     -22.182  -3.533 -12.484  0.00  0.00    -0.343 N 
HETATM    4  H           1     -21.489  -4.045 -13.015  0.00  0.00     0.163 HD
HETATM    5  O           1     -23.029  -3.013 -10.484  0.00  0.00    -0.271 OA
BRANCH   3   6
HETATM    6  C           1     -23.155  -2.704 -13.169  0.00  0.00     0.209 C 
BRANCH   6   7
HETATM    7  C           1     -22.708  -2.486 -14.609  0.00  0.00     0.200 C 
BRANCH   7   8
HETATM    8  O           1     -23.784  -1.994 -15.362  0.00  0.00    -0.398 OA
HETATM    9  H           1     -23.474  -1.229 -15.815  0.00  0.00     0.209 HD
ENDBRANCH   7   8
ENDBRANCH   6   7
BRANCH   6  10
HETATM   10  C           1     -24.498  -3.391 -13.157  0.00  0.00     0.198 C 
HETATM   11  O           1     -24.627  -4.519 -13.678  0.00  0.00    -0.646 OA
HETATM   12  O           1     -25.481  -2.831 -12.625  0.00  0.00    -0.646 OA
ENDBRANCH   6  10
ENDBRANCH   3   6
ENDBRANCH   1   2
BRANCH   1  13
HETATM   13  C           1     -21.049  -4.018  -8.962  0.00  0.00     0.044 C 
BRANCH  13  14
HETATM   14  C           1     -21.483  -5.135  -8.020  0.00  0.00     0.030 C 
BRANCH  14  15
HETATM   15  C           1     -22.521  -4.599  -7.041  0.00  0.00     0.230 C 
BRANCH  15  16
HETATM   16  N           1     -23.736  -4.149  -7.797  0.00  0.00    -0.079 N 
HETATM   17  H           1     -24.444  -3.776  -7.126  0.00  0.00     0.274 HD
HETATM   18  H           1     -23.467  -3.399  -8.474  0.00  0.00     0.274 HD
HETATM   19  H           1     -24.141  -4.959  -8.318  0.00  0.00     0.274 HD
ENDBRANCH  15  16
ENDBRANCH  14  15
ENDBRANCH  13  14
ENDBRANCH   1  13
BRANCH   1  20
HETATM   20  N           1     -19.864  -4.377 -11.097  0.00  0.00    -0.067 N 
HETATM   21  H           1     -19.519  -3.392 -11.033  0.00  0.00     0.275 HD
HETATM   22  H           1     -19.176  -5.017 -10.638  0.00  0.00     0.275 HD
HETATM   23  H           1     -19.972  -4.645 -12.101  0.00  0.00     0.275 HD
ENDBRANCH   1  20
TORSDOF 10
ENDMDL
MODEL 3
REMARK VINA RESULT:      -5.5     12.912     15.347
REMARK  10 active torsions:
REMARK  status: ('A' for Active; 'I' for Inactive)
REMARK    1  A    between atoms: C_2  and  O_16 
REMARK    2  A    between atoms: C_2  and  C_10 
REMARK    3  A    between atoms: C_3  and  C_8 
REMARK    4  A    between atoms: C_3  and  C_15 
REMARK       I    between atoms: C_5  and  N_6 
REMARK    5  A    between atoms: C_5  and  C_11 
REMARK    6  A    between atoms: N_6  and  C_10 
REMARK    7  A    between atoms: C_8  and  C_11 
REMARK    8  A    between atoms: C_10  and  C_12 
REMARK    9  A    between atoms: C_11  and  N_13 
REMARK   10  A    between atoms: C_15  and  N_19 
ROOT
HETATM    1  C           1     -35.782   0.399 -13.574  0.00  0.00     0.274 C 
ENDROOT
BRANCH   1   2
HETATM    2  C           1     -35.786  -0.948 -12.894  0.00  0.00     0.249 C 
HETATM    3  N           1     -34.685  -1.758 -12.972  0.00  0.00    -0.343 N 
HETATM    4  H           1     -33.869  -1.454 -13.486  0.00  0.00     0.163 HD
HETATM    5  O           1     -36.762  -1.312 -12.280  0.00  0.00    -0.271 OA
BRANCH   3   6
HETATM    6  C           1     -34.690  -3.052 -12.318  0.00  0.00     0.209 C 
BRANCH   6   7
HETATM    7  C           1     -34.178  -4.111 -13.287  0.00  0.00     0.200 C 
BRANCH   7   8
HETATM    8  O           1     -34.926  -5.286 -13.133  0.00  0.00    -0.398 OA
HETATM    9  H           1     -35.722  -5.171 -13.622  0.00  0.00     0.209 HD
ENDBRANCH   7   8
ENDBRANCH   6   7
BRANCH   6  10
HETATM   10  C           1     -33.794  -3.005 -11.105  0.00  0.00     0.198 C 
HETATM   11  O           1     -33.469  -4.064 -10.527  0.00  0.00    -0.646 OA
HETATM   12  O           1     -33.377  -1.907 -10.678  0.00  0.00    -0.646 OA
ENDBRANCH   6  10
ENDBRANCH   3   6
ENDBRANCH   1   2
BRANCH   1  13
HETATM   13  C           1     -36.692   0.354 -14.796  0.00  0.00     0.044 C 
BRANCH  13  14
HETATM   14  C           1     -35.843   0.262 -16.058  0.00  0.00     0.030 C 
BRANCH  14  15
HETATM   15  C           1     -36.071  -1.088 -16.726  0.00  0.00     0.230 C 
BRANCH  15  16
HETATM   16  N           1     -34.829  -1.921 -16.607  0.00  0.00    -0.079 N 
HETATM   17  H           1     -35.091  -2.930 -16.548  0.00  0.00     0.274 HD
HETATM   18  H           1     -34.225  -1.767 -17.446  0.00  0.00     0.274 HD
HETATM   19  H           1     -34.306  -1.644 -15.747  0.00  0.00     0.274 HD
ENDBRANCH  15  16
ENDBRANCH  14  15
ENDBRANCH  13  14
ENDBRANCH   1  13
BRANCH   1  20
HETATM   20  N           1     -34.385   0.736 -14.004  0.00  0.00    -0.067 N 
HETATM   21  H           1     -34.337   1.746 -14.270  0.00  0.00     0.275 HD
HETATM   22  H           1     -33.724   0.552 -13.216  0.00  0.00     0.275 HD
HETATM   23  H           1     -34.121   0.146 -14.825  0.00  0.00     0.275 HD
ENDBRANCH   1  20
TORSDOF 10
ENDMDL
MODEL 4
REMARK VINA RESULT:      -5.4      2.131      2.531
REMARK  10 active torsions:
REMARK  status: ('A' for Active; 'I' for Inactive)
REMARK    1  A    between atoms: C_2  and  O_16 
REMARK    2  A    between atoms: C_2  and  C_10 
REMARK    3  A    between atoms: C_3  and  C_8 
REMARK    4  A    between atoms: C_3  and  C_15 
REMARK       I    between atoms: C_5  and  N_6 
REMARK    5  A    between atoms: C_5  and  C_11 
REMARK    6  A    between atoms: N_6  and  C_10 
REMARK    7  A    between atoms: C_8  and  C_11 
REMARK    8  A    between atoms: C_10  and  C_12 
REMARK    9  A    between atoms: C_11  and  N_13 
REMARK   10  A    between atoms: C_15  and  N_19 
ROOT
HETATM    1  C           1     -20.560  -4.793  -9.233  0.00  0.00     0.274 C 
ENDROOT
BRANCH   1   2
HETATM    2  C           1     -21.789  -3.938  -9.422  0.00  0.00     0.249 C 
HETATM    3  N           1     -22.389  -3.864 -10.650  0.00  0.00    -0.343 N 
HETATM    4  H           1     -22.009  -4.382 -11.431  0.00  0.00     0.163 HD
HETATM    5  O           1     -22.243  -3.319  -8.489  0.00  0.00    -0.271 OA
BRANCH   3   6
HETATM    6  C           1     -23.571  -3.043 -10.831  0.00  0.00     0.209 C 
BRANCH   6   7
HETATM    7  C           1     -23.852  -2.882 -12.319  0.00  0.00     0.200 C 
BRANCH   7   8
HETATM    8  O           1     -25.231  -2.986 -12.548  0.00  0.00    -0.398 OA
HETATM    9  H           1     -25.600  -3.431 -11.805  0.00  0.00     0.209 HD
ENDBRANCH   7   8
ENDBRANCH   6   7
BRANCH   6  10
HETATM   10  C           1     -24.750  -3.706 -10.164  0.00  0.00     0.198 C 
HETATM   11  O           1     -24.774  -4.948 -10.029  0.00  0.00    -0.646 OA
HETATM   12  O           1     -25.703  -3.012  -9.746  0.00  0.00    -0.646 OA
ENDBRANCH   6  10
ENDBRANCH   3   6
ENDBRANCH   1   2
BRANCH   1  13
HETATM   13  C           1     -19.698  -4.206  -8.122  0.00  0.00     0.044 C 
BRANCH  13  14
HETATM   14  C           1     -19.588  -5.210  -6.981  0.00  0.00     0.030 C 
BRANCH  14  15
HETATM   15  C           1     -20.392  -4.711  -5.787  0.00  0.00     0.230 C 
BRANCH  15  16
HETATM   16  N           1     -21.815  -5.170  -5.916  0.00  0.00    -0.079 N 
HETATM   17  H           1     -22.343  -4.498  -6.516  0.00  0.00     0.274 HD
HETATM   18  H           1     -21.836  -6.119  -6.353  0.00  0.00     0.274 HD
HETATM   19  H           1     -22.254  -5.213  -4.969  0.00  0.00     0.274 HD
ENDBRANCH  15  16
ENDBRANCH  14  15
ENDBRANCH  13  14
ENDBRANCH   1  13
BRANCH   1  20
HETATM   20  N           1     -19.773  -4.825 -10.510  0.00  0.00    -0.067 N 
HETATM   21  H           1     -19.512  -3.850 -10.783  0.00  0.00     0.275 HD
HETATM   22  H           1     -18.906  -5.391 -10.372  0.00  0.00     0.275 HD
HETATM   23  H           1     -20.353  -5.255 -11.266  0.00  0.00     0.275 HD
ENDBRANCH   1  20
TORSDOF 10
ENDMDL
MODEL 5
REMARK VINA RESULT:      -5.4      1.988      2.706
REMARK  10 active torsions:
REMARK  status: ('A' for Active; 'I' for Inactive)
REMARK    1  A    between atoms: C_2  and  O_16 
REMARK    2  A    between atoms: C_2  and  C_10 
REMARK    3  A    between atoms: C_3  and  C_8 
REMARK    4  A    between atoms: C_3  and  C_15 
REMARK       I    between atoms: C_5  and  N_6 
REMARK    5  A    between atoms: C_5  and  C_11 
REMARK    6  A    between atoms: N_6  and  C_10 
REMARK    7  A    between atoms: C_8  and  C_11 
REMARK    8  A    between atoms: C_10  and  C_12 
REMARK    9  A    between atoms: C_11  and  N_13 
REMARK   10  A    between atoms: C_15  and  N_19 
ROOT
HETATM    1  C           1     -20.425  -3.738  -7.903  0.00  0.00     0.274 C 
ENDROOT
BRANCH   1   2
HETATM    2  C           1     -20.987  -4.169  -9.235  0.00  0.00     0.249 C 
HETATM    3  N           1     -22.291  -3.891  -9.551  0.00  0.00    -0.343 N 
HETATM    4  H           1     -22.877  -3.397  -8.890  0.00  0.00     0.163 HD
HETATM    5  O           1     -20.288  -4.760 -10.024  0.00  0.00    -0.271 OA
BRANCH   3   6
HETATM    6  C           1     -22.831  -4.305 -10.831  0.00  0.00     0.209 C 
BRANCH   6   7
HETATM    7  C           1     -24.012  -5.239 -10.603  0.00  0.00     0.200 C 
BRANCH   7   8
HETATM    8  O           1     -24.898  -4.657  -9.685  0.00  0.00    -0.398 OA
HETATM    9  H           1     -24.664  -3.748  -9.617  0.00  0.00     0.209 HD
ENDBRANCH   7   8
ENDBRANCH   6   7
BRANCH   6  10
HETATM   10  C           1     -23.290  -3.090 -11.599  0.00  0.00     0.198 C 
HETATM   11  O           1     -24.510  -2.878 -11.761  0.00  0.00    -0.646 OA
HETATM   12  O           1     -22.448  -2.297 -12.074  0.00  0.00    -0.646 OA
ENDBRANCH   6  10
ENDBRANCH   3   6
ENDBRANCH   1   2
BRANCH   1  13
HETATM   13  C           1     -19.776  -4.933  -7.215  0.00  0.00     0.044 C 
BRANCH  13  14
HETATM   14  C           1     -20.081  -4.887  -5.723  0.00  0.00     0.030 C 
BRANCH  14  15
HETATM   15  C           1     -20.793  -6.169  -5.310  0.00  0.00     0.230 C 
BRANCH  15  16
HETATM   16  N           1     -20.911  -7.080  -6.496  0.00  0.00    -0.079 N 
HETATM   17  H           1     -20.593  -6.577  -7.354  0.00  0.00     0.274 HD
HETATM   18  H           1     -20.313  -7.925  -6.346  0.00  0.00     0.274 HD
HETATM   19  H           1     -21.906  -7.374  -6.612  0.00  0.00     0.274 HD
ENDBRANCH  15  16
ENDBRANCH  14  15
ENDBRANCH  13  14
ENDBRANCH   1  13
BRANCH   1  20
HETATM   20  N           1     -21.533  -3.207  -7.042  0.00  0.00    -0.067 N 
HETATM   21  H           1     -21.266  -2.265  -6.674  0.00  0.00     0.275 HD
HETATM   22  H           1     -22.406  -3.124  -7.609  0.00  0.00     0.275 HD
HETATM   23  H           1     -21.697  -3.861  -6.244  0.00  0.00     0.275 HD
ENDBRANCH   1  20
TORSDOF 10
ENDMDL
MODEL 6
REMARK VINA RESULT:      -5.0      3.024      5.506
REMARK  10 active torsions:
REMARK  status: ('A' for Active; 'I' for Inactive)
REMARK    1  A    between atoms: C_2  and  O_16 
REMARK    2  A    between atoms: C_2  and  C_10 
REMARK    3  A    between atoms: C_3  and  C_8 
REMARK    4  A    between atoms: C_3  and  C_15 
REMARK       I    between atoms: C_5  and  N_6 
REMARK    5  A    between atoms: C_5  and  C_11 
REMARK    6  A    between atoms: N_6  and  C_10 
REMARK    7  A    between atoms: C_8  and  C_11 
REMARK    8  A    between atoms: C_10  and  C_12 
REMARK    9  A    between atoms: C_11  and  N_13 
REMARK   10  A    between atoms: C_15  and  N_19 
ROOT
HETATM    1  C           1     -21.451  -3.440 -10.602  0.00  0.00     0.274 C 
ENDROOT
BRANCH   1   2
HETATM    2  C           1     -20.700  -4.416  -9.730  0.00  0.00     0.249 C 
HETATM    3  N           1     -21.055  -4.574  -8.417  0.00  0.00    -0.343 N 
HETATM    4  H           1     -21.820  -4.035  -8.031  0.00  0.00     0.163 HD
HETATM    5  O           1     -19.787  -5.058 -10.190  0.00  0.00    -0.271 OA
BRANCH   3   6
HETATM    6  C           1     -20.333  -5.512  -7.579  0.00  0.00     0.209 C 
BRANCH   6   7
HETATM    7  C           1     -19.276  -4.764  -6.776  0.00  0.00     0.200 C 
BRANCH   7   8
HETATM    8  O           1     -19.721  -4.598  -5.457  0.00  0.00    -0.398 OA
HETATM    9  H           1     -19.831  -3.673  -5.320  0.00  0.00     0.209 HD
ENDBRANCH   7   8
ENDBRANCH   6   7
BRANCH   6  10
HETATM   10  C           1     -21.298  -6.187  -6.636  0.00  0.00     0.198 C 
HETATM   11  O           1     -21.112  -7.376  -6.298  0.00  0.00    -0.646 OA
HETATM   12  O           1     -22.282  -5.557  -6.192  0.00  0.00    -0.646 OA
ENDBRANCH   6  10
ENDBRANCH   3   6
ENDBRANCH   1   2
BRANCH   1  13
HETATM   13  C           1     -22.644  -4.141 -11.239  0.00  0.00     0.044 C 
BRANCH  13  14
HETATM   14  C           1     -23.898  -3.300 -11.034  0.00  0.00     0.030 C 
BRANCH  14  15
HETATM   15  C           1     -24.787  -3.961  -9.988  0.00  0.00     0.230 C 
BRANCH  15  16
HETATM   16  N           1     -24.323  -3.568  -8.616  0.00  0.00    -0.079 N 
HETATM   17  H           1     -23.280  -3.511  -8.605  0.00  0.00     0.274 HD
HETATM   18  H           1     -24.725  -2.636  -8.367  0.00  0.00     0.274 HD
HETATM   19  H           1     -24.642  -4.281  -7.923  0.00  0.00     0.274 HD
ENDBRANCH  15  16
ENDBRANCH  14  15
ENDBRANCH  13  14
ENDBRANCH   1  13
BRANCH   1  20
HETATM   20  N           1     -20.540  -2.928 -11.677  0.00  0.00    -0.067 N 
HETATM   21  H           1     -19.596  -3.366 -11.572  0.00  0.00     0.275 HD
HETATM   22  H           1     -20.933  -3.172 -12.614  0.00  0.00     0.275 HD
HETATM   23  H           1     -20.454  -1.890 -11.596  0.00  0.00     0.275 HD
ENDBRANCH   1  20
TORSDOF 10
ENDMDL
MODEL 7
REMARK VINA RESULT:      -5.0      3.437      6.615
REMARK  10 active torsions:
REMARK  status: ('A' for Active; 'I' for Inactive)
REMARK    1  A    between atoms: C_2  and  O_16 
REMARK    2  A    between atoms: C_2  and  C_10 
REMARK    3  A    between atoms: C_3  and  C_8 
REMARK    4  A    between atoms: C_3  and  C_15 
REMARK       I    between atoms: C_5  and  N_6 
REMARK    5  A    between atoms: C_5  and  C_11 
REMARK    6  A    between atoms: N_6  and  C_10 
REMARK    7  A    between atoms: C_8  and  C_11 
REMARK    8  A    between atoms: C_10  and  C_12 
REMARK    9  A    between atoms: C_11  and  N_13 
REMARK   10  A    between atoms: C_15  and  N_19 
ROOT
HETATM    1  C           1     -20.473  -5.046  -6.506  0.00  0.00     0.274 C 
ENDROOT
BRANCH   1   2
HETATM    2  C           1     -21.377  -5.828  -5.585  0.00  0.00     0.249 C 
HETATM    3  N           1     -20.843  -6.734  -4.709  0.00  0.00    -0.343 N 
HETATM    4  H           1     -19.842  -6.880  -4.679  0.00  0.00     0.163 HD
HETATM    5  O           1     -22.573  -5.654  -5.620  0.00  0.00    -0.271 OA
BRANCH   3   6
HETATM    6  C           1     -21.712  -7.485  -3.823  0.00  0.00     0.209 C 
BRANCH   6   7
HETATM    7  C           1     -21.292  -8.950  -3.825  0.00  0.00     0.200 C 
BRANCH   7   8
HETATM    8  O           1     -22.137  -9.679  -2.975  0.00  0.00    -0.398 OA
HETATM    9  H           1     -22.373  -9.106  -2.266  0.00  0.00     0.209 HD
ENDBRANCH   7   8
ENDBRANCH   6   7
BRANCH   6  10
HETATM   10  C           1     -21.603  -6.931  -2.424  0.00  0.00     0.198 C 
HETATM   11  O           1     -22.311  -5.962  -2.079  0.00  0.00    -0.646 OA
HETATM   12  O           1     -20.804  -7.443  -1.610  0.00  0.00    -0.646 OA
ENDBRANCH   6  10
ENDBRANCH   3   6
ENDBRANCH   1   2
BRANCH   1  13
HETATM   13  C           1     -21.239  -3.863  -7.086  0.00  0.00     0.044 C 
BRANCH  13  14
HETATM   14  C           1     -21.498  -4.103  -8.568  0.00  0.00     0.030 C 
BRANCH  14  15
HETATM   15  C           1     -22.885  -3.589  -8.932  0.00  0.00     0.230 C 
BRANCH  15  16
HETATM   16  N           1     -23.897  -4.167  -7.986  0.00  0.00    -0.079 N 
HETATM   17  H           1     -23.807  -5.208  -7.976  0.00  0.00     0.274 HD
HETATM   18  H           1     -23.727  -3.794  -7.025  0.00  0.00     0.274 HD
HETATM   19  H           1     -24.857  -3.902  -8.299  0.00  0.00     0.274 HD
ENDBRANCH  15  16
ENDBRANCH  14  15
ENDBRANCH  13  14
ENDBRANCH   1  13
BRANCH   1  20
HETATM   20  N           1     -20.008  -5.935  -7.621  0.00  0.00    -0.067 N 
HETATM   21  H           1     -20.735  -6.661  -7.814  0.00  0.00     0.275 HD
HETATM   22  H           1     -19.852  -5.363  -8.482  0.00  0.00     0.275 HD
HETATM   23  H           1     -19.114  -6.401  -7.346  0.00  0.00     0.275 HD
ENDBRANCH   1  20
TORSDOF 10
ENDMDL
MODEL 8
REMARK VINA RESULT:      -4.9     18.650     20.188
REMARK  10 active torsions:
REMARK  status: ('A' for Active; 'I' for Inactive)
REMARK    1  A    between atoms: C_2  and  O_16 
REMARK    2  A    between atoms: C_2  and  C_10 
REMARK    3  A    between atoms: C_3  and  C_8 
REMARK    4  A    between atoms: C_3  and  C_15 
REMARK       I    between atoms: C_5  and  N_6 
REMARK    5  A    between atoms: C_5  and  C_11 
REMARK    6  A    between atoms: N_6  and  C_10 
REMARK    7  A    between atoms: C_8  and  C_11 
REMARK    8  A    between atoms: C_10  and  C_12 
REMARK    9  A    between atoms: C_11  and  N_13 
REMARK   10  A    between atoms: C_15  and  N_19 
ROOT
HETATM    1  C           1     -14.030   5.391 -21.689  0.00  0.00     0.274 C 
ENDROOT
BRANCH   1   2
HETATM    2  C           1     -12.739   6.167 -21.613  0.00  0.00     0.249 C 
HETATM    3  N           1     -12.273   6.602 -20.401  0.00  0.00    -0.343 N 
HETATM    4  H           1     -12.795   6.403 -19.557  0.00  0.00     0.163 HD
HETATM    5  O           1     -12.116   6.405 -22.620  0.00  0.00    -0.271 OA
BRANCH   3   6
HETATM    6  C           1     -11.032   7.348 -20.327  0.00  0.00     0.209 C 
BRANCH   6   7
HETATM    7  C           1     -11.229   8.573 -19.443  0.00  0.00     0.200 C 
BRANCH   7   8
HETATM    8  O           1     -10.288   8.556 -18.404  0.00  0.00    -0.398 OA
HETATM    9  H           1      -9.448   8.733 -18.792  0.00  0.00     0.209 HD
ENDBRANCH   7   8
ENDBRANCH   6   7
BRANCH   6  10
HETATM   10  C           1      -9.953   6.472 -19.740  0.00  0.00     0.198 C 
HETATM   11  O           1      -8.841   6.388 -20.304  0.00  0.00    -0.646 OA
HETATM   12  O           1     -10.172   5.830 -18.690  0.00  0.00    -0.646 OA
ENDBRANCH   6  10
ENDBRANCH   3   6
ENDBRANCH   1   2
BRANCH   1  13
HETATM   13  C           1     -13.745   3.978 -22.185  0.00  0.00     0.044 C 
BRANCH  13  14
HETATM   14  C           1     -13.297   3.110 -21.016  0.00  0.00     0.030 C 
BRANCH  14  15
HETATM   15  C           1     -11.827   2.748 -21.187  0.00  0.00     0.230 C 
BRANCH  15  16
HETATM   16  N           1     -11.067   3.149 -19.957  0.00  0.00    -0.079 N 
HETATM   17  H           1     -10.068   3.323 -20.206  0.00  0.00     0.274 HD
HETATM   18  H           1     -11.484   4.021 -19.559  0.00  0.00     0.274 HD
HETATM   19  H           1     -11.123   2.383 -19.249  0.00  0.00     0.274 HD
ENDBRANCH  15  16
ENDBRANCH  14  15
ENDBRANCH  13  14
ENDBRANCH   1  13
BRANCH   1  20
HETATM   20  N           1     -14.968   6.074 -22.640  0.00  0.00    -0.067 N 
HETATM   21  H           1     -14.864   7.110 -22.548  0.00  0.00     0.275 HD
HETATM   22  H           1     -14.741   5.788 -23.620  0.00  0.00     0.275 HD
HETATM   23  H           1     -15.951   5.800 -22.417  0.00  0.00     0.275 HD
ENDBRANCH   1  20
TORSDOF 10
ENDMDL
MODEL 9
REMARK VINA RESULT:      -4.8     18.518     20.481
REMARK  10 active torsions:
REMARK  status: ('A' for Active; 'I' for Inactive)
REMARK    1  A    between atoms: C_2  and  O_16 
REMARK    2  A    between atoms: C_2  and  C_10 
REMARK    3  A    between atoms: C_3  and  C_8 
REMARK    4  A    between atoms: C_3  and  C_15 
REMARK       I    between atoms: C_5  and  N_6 
REMARK    5  A    between atoms: C_5  and  C_11 
REMARK    6  A    between atoms: N_6  and  C_10 
REMARK    7  A    between atoms: C_8  and  C_11 
REMARK    8  A    between atoms: C_10  and  C_12 
REMARK    9  A    between atoms: C_11  and  N_13 
REMARK   10  A    between atoms: C_15  and  N_19 
ROOT
HETATM    1  C           1     -13.417   5.527 -20.740  0.00  0.00     0.274 C 
ENDROOT
BRANCH   1   2
HETATM    2  C           1     -12.184   6.114 -20.099  0.00  0.00     0.249 C 
HETATM    3  N           1     -11.587   7.217 -20.647  0.00  0.00    -0.343 N 
HETATM    4  H           1     -11.972   7.638 -21.483  0.00  0.00     0.163 HD
HETATM    5  O           1     -11.723   5.610 -19.102  0.00  0.00    -0.271 OA
BRANCH   3   6
HETATM    6  C           1     -10.401   7.781 -20.031  0.00  0.00     0.209 C 
BRANCH   6   7
HETATM    7  C           1      -9.492   8.352 -21.112  0.00  0.00     0.200 C 
BRANCH   7   8
HETATM    8  O           1      -9.258   9.711 -20.856  0.00  0.00    -0.398 OA
HETATM    9  H           1     -10.056  10.064 -20.501  0.00  0.00     0.209 HD
ENDBRANCH   7   8
ENDBRANCH   6   7
BRANCH   6  10
HETATM   10  C           1     -10.805   8.880 -19.080  0.00  0.00     0.198 C 
HETATM   11  O           1     -10.100   9.130 -18.079  0.00  0.00    -0.646 OA
HETATM   12  O           1     -11.845   9.541 -19.293  0.00  0.00    -0.646 OA
ENDBRANCH   6  10
ENDBRANCH   3   6
ENDBRANCH   1   2
BRANCH   1  13
HETATM   13  C           1     -13.317   4.006 -20.737  0.00  0.00     0.044 C 
BRANCH  13  14
HETATM   14  C           1     -12.611   3.541 -22.005  0.00  0.00     0.030 C 
BRANCH  14  15
HETATM   15  C           1     -11.149   3.244 -21.692  0.00  0.00     0.230 C 
BRANCH  15  16
HETATM   16  N           1     -11.030   2.745 -20.282  0.00  0.00    -0.079 N 
HETATM   17  H           1     -10.079   2.342 -20.135  0.00  0.00     0.274 HD
HETATM   18  H           1     -11.178   3.540 -19.619  0.00  0.00     0.274 HD
HETATM   19  H           1     -11.752   2.010 -20.111  0.00  0.00     0.274 HD
ENDBRANCH  15  16
ENDBRANCH  14  15
ENDBRANCH  13  14
ENDBRANCH   1  13
BRANCH   1  20
HETATM   20  N           1     -13.527   6.017 -22.154  0.00  0.00    -0.067 N 
HETATM   21  H           1     -13.327   7.043 -22.183  0.00  0.00     0.275 HD
HETATM   22  H           1     -12.836   5.511 -22.753  0.00  0.00     0.275 HD
HETATM   23  H           1     -14.493   5.839 -22.510  0.00  0.00     0.275 HD
ENDBRANCH   1  20
TORSDOF 10
ENDMDL
