MODEL 1
REMARK VINA RESULT:      -6.4      0.000      0.000
REMARK  6 active torsions:
REMARK  status: ('A' for Active; 'I' for Inactive)
REMARK    1  A    between atoms: C_1  and  C_2 
REMARK    2  A    between atoms: C_1  and  C_17 
REMARK    3  A    between atoms: C_1  and  N_10 
REMARK       I    between atoms: C_2  and  N_3 
REMARK    4  A    between atoms: N_3  and  C_19 
REMARK    5  A    between atoms: C_12  and  C_19 
REMARK       I    between atoms: N_15  and  C_16 
REMARK    6  A    between atoms: C_16  and  C_17 
ROOT
HETATM    1  C           1     -23.087  -2.690 -12.342  0.00  0.00     0.283 C 
ENDROOT
BRANCH   1   2
HETATM    2  C           1     -23.741  -3.167 -11.068  0.00  0.00     0.249 C 
HETATM    3  N           1     -22.969  -3.566 -10.010  0.00  0.00    -0.349 N 
HETATM    4  H           1     -21.960  -3.542 -10.082  0.00  0.00     0.163 HD
HETATM    5  O           1     -24.946  -3.197 -10.981  0.00  0.00    -0.271 OA
BRANCH   3   6
HETATM    6  C           1     -23.598  -4.025  -8.786  0.00  0.00     0.235 C 
BRANCH   6   7
HETATM    7  C           1     -22.548  -4.199  -7.716  0.00  0.00     0.191 C 
HETATM    8  O           1     -22.841  -4.762  -6.639  0.00  0.00    -0.647 OA
HETATM    9  O           1     -21.386  -3.781  -7.906  0.00  0.00    -0.647 OA
ENDBRANCH   6   7
ENDBRANCH   3   6
ENDBRANCH   1   2
BRANCH   1  10
HETATM   10  C           1     -24.125  -2.630 -13.455  0.00  0.00     0.145 C 
BRANCH  10  11
HETATM   11  C           1     -23.541  -1.915 -14.648  0.00  0.00     0.217 C 
HETATM   12  O           1     -22.661  -2.434 -15.294  0.00  0.00    -0.274 OA
HETATM   13  N           1     -24.009  -0.677 -15.000  0.00  0.00    -0.370 N 
HETATM   14  H           1     -24.746  -0.242 -14.461  0.00  0.00     0.159 HD
HETATM   15  H           1     -23.617  -0.197 -15.801  0.00  0.00     0.159 HD
ENDBRANCH  10  11
ENDBRANCH   1  10
BRANCH   1  16
HETATM   16  N           1     -21.995  -3.643 -12.729  0.00  0.00    -0.066 N 
HETATM   17  H           1     -22.105  -3.909 -13.734  0.00  0.00     0.275 HD
HETATM   18  H           1     -22.052  -4.500 -12.134  0.00  0.00     0.275 HD
HETATM   19  H           1     -21.066  -3.185 -12.590  0.00  0.00     0.275 HD
ENDBRANCH   1  16
TORSDOF 6
ENDMDL
MODEL 2
REMARK VINA RESULT:      -6.1      7.745      9.224
REMARK  6 active torsions:
REMARK  status: ('A' for Active; 'I' for Inactive)
REMARK    1  A    between atoms: C_1  and  C_2 
REMARK    2  A    between atoms: C_1  and  C_17 
REMARK    3  A    between atoms: C_1  and  N_10 
REMARK       I    between atoms: C_2  and  N_3 
REMARK    4  A    between atoms: N_3  and  C_19 
REMARK    5  A    between atoms: C_12  and  C_19 
REMARK       I    between atoms: N_15  and  C_16 
REMARK    6  A    between atoms: C_16  and  C_17 
ROOT
HETATM    1  C           1     -30.540  -5.871 -17.410  0.00  0.00     0.283 C 
ENDROOT
BRANCH   1   2
HETATM    2  C           1     -29.536  -6.130 -16.313  0.00  0.00     0.249 C 
HETATM    3  N           1     -28.522  -7.027 -16.512  0.00  0.00    -0.349 N 
HETATM    4  H           1     -28.444  -7.517 -17.394  0.00  0.00     0.163 HD
HETATM    5  O           1     -29.628  -5.545 -15.260  0.00  0.00    -0.271 OA
BRANCH   3   6
HETATM    6  C           1     -27.557  -7.276 -15.457  0.00  0.00     0.235 C 
BRANCH   6   7
HETATM    7  C           1     -26.186  -6.845 -15.918  0.00  0.00     0.191 C 
HETATM    8  O           1     -26.066  -5.893 -16.719  0.00  0.00    -0.647 OA
HETATM    9  O           1     -25.171  -7.440 -15.497  0.00  0.00    -0.647 OA
ENDBRANCH   6   7
ENDBRANCH   3   6
ENDBRANCH   1   2
BRANCH   1  10
HETATM   10  C           1     -31.830  -5.336 -16.804  0.00  0.00     0.145 C 
BRANCH  10  11
HETATM   11  C           1     -32.047  -3.913 -17.259  0.00  0.00     0.217 C 
HETATM   12  O           1     -31.100  -3.211 -17.523  0.00  0.00    -0.274 OA
HETATM   13  N           1     -33.319  -3.418 -17.372  0.00  0.00    -0.370 N 
HETATM   14  H           1     -34.112  -4.005 -17.152  0.00  0.00     0.159 HD
HETATM   15  H           1     -33.465  -2.463 -17.677  0.00  0.00     0.159 HD
ENDBRANCH  10  11
ENDBRANCH   1  10
BRANCH   1  16
HETATM   16  N           1     -30.825  -7.152 -18.139  0.00  0.00    -0.066 N 
HETATM   17  H           1     -31.836  -7.185 -18.402  0.00  0.00     0.275 HD
HETATM   18  H           1     -30.599  -7.963 -17.519  0.00  0.00     0.275 HD
HETATM   19  H           1     -30.239  -7.200 -19.003  0.00  0.00     0.275 HD
ENDBRANCH   1  16
TORSDOF 6
ENDMDL
MODEL 3
REMARK VINA RESULT:      -6.1      7.628      9.265
REMARK  6 active torsions:
REMARK  status: ('A' for Active; 'I' for Inactive)
REMARK    1  A    between atoms: C_1  and  C_2 
REMARK    2  A    between atoms: C_1  and  C_17 
REMARK    3  A    between atoms: C_1  and  N_10 
REMARK       I    between atoms: C_2  and  N_3 
REMARK    4  A    between atoms: N_3  and  C_19 
REMARK    5  A    between atoms: C_12  and  C_19 
REMARK       I    between atoms: N_15  and  C_16 
REMARK    6  A    between atoms: C_16  and  C_17 
ROOT
HETATM    1  C           1     -29.838  -6.743 -18.160  0.00  0.00     0.283 C 
ENDROOT
BRANCH   1   2
HETATM    2  C           1     -28.396  -6.302 -18.228  0.00  0.00     0.249 C 
HETATM    3  N           1     -27.504  -6.734 -17.284  0.00  0.00    -0.349 N 
HETATM    4  H           1     -27.810  -7.348 -16.540  0.00  0.00     0.163 HD
HETATM    5  O           1     -28.030  -5.569 -19.115  0.00  0.00    -0.271 OA
BRANCH   3   6
HETATM    6  C           1     -26.118  -6.310 -17.349  0.00  0.00     0.235 C 
BRANCH   6   7
HETATM    7  C           1     -25.473  -6.489 -15.996  0.00  0.00     0.191 C 
HETATM    8  O           1     -25.092  -5.490 -15.348  0.00  0.00    -0.647 OA
HETATM    9  O           1     -25.319  -7.635 -15.525  0.00  0.00    -0.647 OA
ENDBRANCH   6   7
ENDBRANCH   3   6
ENDBRANCH   1   2
BRANCH   1  10
HETATM   10  C           1     -30.435  -6.330 -16.821  0.00  0.00     0.145 C 
BRANCH  10  11
HETATM   11  C           1     -31.394  -5.183 -17.030  0.00  0.00     0.217 C 
HETATM   12  O           1     -30.984  -4.116 -17.420  0.00  0.00    -0.274 OA
HETATM   13  N           1     -32.729  -5.354 -16.778  0.00  0.00    -0.370 N 
HETATM   14  H           1     -33.073  -6.247 -16.452  0.00  0.00     0.159 HD
HETATM   15  H           1     -33.372  -4.584 -16.918  0.00  0.00     0.159 HD
ENDBRANCH  10  11
ENDBRANCH   1  10
BRANCH   1  16
HETATM   16  N           1     -29.911  -8.236 -18.300  0.00  0.00    -0.066 N 
HETATM   17  H           1     -30.869  -8.509 -18.617  0.00  0.00     0.275 HD
HETATM   18  H           1     -29.709  -8.682 -17.376  0.00  0.00     0.275 HD
HETATM   19  H           1     -29.207  -8.556 -19.002  0.00  0.00     0.275 HD
ENDBRANCH   1  16
TORSDOF 6
ENDMDL
MODEL 4
REMARK VINA RESULT:      -6.0      1.778      5.791
REMARK  6 active torsions:
REMARK  status: ('A' for Active; 'I' for Inactive)
REMARK    1  A    between atoms: C_1  and  C_2 
REMARK    2  A    between atoms: C_1  and  C_17 
REMARK    3  A    between atoms: C_1  and  N_10 
REMARK       I    between atoms: C_2  and  N_3 
REMARK    4  A    between atoms: N_3  and  C_19 
REMARK    5  A    between atoms: C_12  and  C_19 
REMARK       I    between atoms: N_15  and  C_16 
REMARK    6  A    between atoms: C_16  and  C_17 
ROOT
HETATM    1  C           1     -23.152  -3.518  -9.263  0.00  0.00     0.283 C 
ENDROOT
BRANCH   1   2
HETATM    2  C           1     -24.082  -3.268 -10.425  0.00  0.00     0.249 C 
HETATM    3  N           1     -23.574  -3.098 -11.684  0.00  0.00    -0.349 N 
HETATM    4  H           1     -22.574  -3.139 -11.837  0.00  0.00     0.163 HD
HETATM    5  O           1     -25.276  -3.219 -10.244  0.00  0.00    -0.271 OA
BRANCH   3   6
HETATM    6  C           1     -24.468  -2.858 -12.801  0.00  0.00     0.235 C 
BRANCH   6   7
HETATM    7  C           1     -23.672  -2.370 -13.987  0.00  0.00     0.191 C 
HETATM    8  O           1     -22.587  -2.917 -14.280  0.00  0.00    -0.647 OA
HETATM    9  O           1     -24.099  -1.419 -14.677  0.00  0.00    -0.647 OA
ENDBRANCH   6   7
ENDBRANCH   3   6
ENDBRANCH   1   2
BRANCH   1  10
HETATM   10  C           1     -22.080  -4.517  -9.675  0.00  0.00     0.145 C 
BRANCH  10  11
HETATM   11  C           1     -21.133  -4.743  -8.521  0.00  0.00     0.217 C 
HETATM   12  O           1     -21.373  -5.596  -7.700  0.00  0.00    -0.274 OA
HETATM   13  N           1     -20.001  -3.980  -8.406  0.00  0.00    -0.370 N 
HETATM   14  H           1     -19.799  -3.267  -9.093  0.00  0.00     0.159 HD
HETATM   15  H           1     -19.366  -4.132  -7.631  0.00  0.00     0.159 HD
ENDBRANCH  10  11
ENDBRANCH   1  10
BRANCH   1  16
HETATM   16  N           1     -23.934  -4.072  -8.108  0.00  0.00    -0.066 N 
HETATM   17  H           1     -24.622  -4.777  -8.459  0.00  0.00     0.275 HD
HETATM   18  H           1     -24.443  -3.296  -7.628  0.00  0.00     0.275 HD
HETATM   19  H           1     -23.281  -4.529  -7.432  0.00  0.00     0.275 HD
ENDBRANCH   1  16
TORSDOF 6
ENDMDL
MODEL 5
REMARK VINA RESULT:      -5.9      2.000      2.861
REMARK  6 active torsions:
REMARK  status: ('A' for Active; 'I' for Inactive)
REMARK    1  A    between atoms: C_1  and  C_2 
REMARK    2  A    between atoms: C_1  and  C_17 
REMARK    3  A    between atoms: C_1  and  N_10 
REMARK       I    between atoms: C_2  and  N_3 
REMARK    4  A    between atoms: N_3  and  C_19 
REMARK    5  A    between atoms: C_12  and  C_19 
REMARK       I    between atoms: N_15  and  C_16 
REMARK    6  A    between atoms: C_16  and  C_17 
ROOT
HETATM    1  C           1     -23.972  -4.203 -10.439  0.00  0.00     0.283 C 
ENDROOT
BRANCH   1   2
HETATM    2  C           1     -22.765  -4.232  -9.533  0.00  0.00     0.249 C 
HETATM    3  N           1     -22.911  -4.003  -8.191  0.00  0.00    -0.349 N 
HETATM    4  H           1     -23.828  -3.814  -7.806  0.00  0.00     0.163 HD
HETATM    5  O           1     -21.671  -4.458  -9.992  0.00  0.00    -0.271 OA
BRANCH   3   6
HETATM    6  C           1     -21.752  -4.032  -7.321  0.00  0.00     0.235 C 
BRANCH   6   7
HETATM    7  C           1     -21.647  -5.387  -6.666  0.00  0.00     0.191 C 
HETATM    8  O           1     -20.963  -6.288  -7.198  0.00  0.00    -0.647 OA
HETATM    9  O           1     -22.244  -5.609  -5.591  0.00  0.00    -0.647 OA
ENDBRANCH   6   7
ENDBRANCH   3   6
ENDBRANCH   1   2
BRANCH   1  10
HETATM   10  C           1     -23.881  -3.000 -11.369  0.00  0.00     0.145 C 
BRANCH  10  11
HETATM   11  C           1     -23.452  -3.457 -12.742  0.00  0.00     0.217 C 
HETATM   12  O           1     -24.282  -3.714 -13.581  0.00  0.00    -0.274 OA
HETATM   13  N           1     -22.120  -3.580 -13.036  0.00  0.00    -0.370 N 
HETATM   14  H           1     -21.425  -3.365 -12.334  0.00  0.00     0.159 HD
HETATM   15  H           1     -21.832  -3.887 -13.957  0.00  0.00     0.159 HD
ENDBRANCH  10  11
ENDBRANCH   1  10
BRANCH   1  16
HETATM   16  N           1     -25.218  -4.099  -9.609  0.00  0.00    -0.066 N 
HETATM   17  H           1     -25.953  -4.729 -10.004  0.00  0.00     0.275 HD
HETATM   18  H           1     -25.562  -3.112  -9.619  0.00  0.00     0.275 HD
HETATM   19  H           1     -25.007  -4.384  -8.626  0.00  0.00     0.275 HD
ENDBRANCH   1  16
TORSDOF 6
ENDMDL
MODEL 6
REMARK VINA RESULT:      -5.9     11.251     13.219
REMARK  6 active torsions:
REMARK  status: ('A' for Active; 'I' for Inactive)
REMARK    1  A    between atoms: C_1  and  C_2 
REMARK    2  A    between atoms: C_1  and  C_17 
REMARK    3  A    between atoms: C_1  and  N_10 
REMARK       I    between atoms: C_2  and  N_3 
REMARK    4  A    between atoms: N_3  and  C_19 
REMARK    5  A    between atoms: C_12  and  C_19 
REMARK       I    between atoms: N_15  and  C_16 
REMARK    6  A    between atoms: C_16  and  C_17 
ROOT
HETATM    1  C           1     -34.739  -1.722 -11.803  0.00  0.00     0.283 C 
ENDROOT
BRANCH   1   2
HETATM    2  C           1     -35.537  -1.112 -12.930  0.00  0.00     0.249 C 
HETATM    3  N           1     -34.896  -0.631 -14.040  0.00  0.00    -0.349 N 
HETATM    4  H           1     -33.888  -0.684 -14.106  0.00  0.00     0.163 HD
HETATM    5  O           1     -36.741  -1.048 -12.852  0.00  0.00    -0.271 OA
BRANCH   3   6
HETATM    6  C           1     -35.663  -0.045 -15.122  0.00  0.00     0.235 C 
BRANCH   6   7
HETATM    7  C           1     -35.755  -1.027 -16.264  0.00  0.00     0.191 C 
HETATM    8  O           1     -36.498  -0.785 -17.240  0.00  0.00    -0.647 OA
HETATM    9  O           1     -35.087  -2.083 -16.234  0.00  0.00    -0.647 OA
ENDBRANCH   6   7
ENDBRANCH   3   6
ENDBRANCH   1   2
BRANCH   1  10
HETATM   10  C           1     -34.870  -3.239 -11.850  0.00  0.00     0.145 C 
BRANCH  10  11
HETATM   11  C           1     -33.724  -3.818 -12.643  0.00  0.00     0.217 C 
HETATM   12  O           1     -32.677  -4.074 -12.097  0.00  0.00    -0.274 OA
HETATM   13  N           1     -33.871  -4.054 -13.984  0.00  0.00    -0.370 N 
HETATM   14  H           1     -34.747  -3.841 -14.443  0.00  0.00     0.159 HD
HETATM   15  H           1     -33.102  -4.442 -14.517  0.00  0.00     0.159 HD
ENDBRANCH  10  11
ENDBRANCH   1  10
BRANCH   1  16
HETATM   16  N           1     -35.261  -1.216 -10.490  0.00  0.00    -0.066 N 
HETATM   17  H           1     -36.242  -1.552 -10.353  0.00  0.00     0.275 HD
HETATM   18  H           1     -35.247  -0.171 -10.489  0.00  0.00     0.275 HD
HETATM   19  H           1     -34.659  -1.573  -9.714  0.00  0.00     0.275 HD
ENDBRANCH   1  16
TORSDOF 6
ENDMDL
MODEL 7
REMARK VINA RESULT:      -5.8      2.948      3.941
REMARK  6 active torsions:
REMARK  status: ('A' for Active; 'I' for Inactive)
REMARK    1  A    between atoms: C_1  and  C_2 
REMARK    2  A    between atoms: C_1  and  C_17 
REMARK    3  A    between atoms: C_1  and  N_10 
REMARK       I    between atoms: C_2  and  N_3 
REMARK    4  A    between atoms: N_3  and  C_19 
REMARK    5  A    between atoms: C_12  and  C_19 
REMARK       I    between atoms: N_15  and  C_16 
REMARK    6  A    between atoms: C_16  and  C_17 
ROOT
HETATM    1  C           1     -22.023  -3.708 -11.027  0.00  0.00     0.283 C 
ENDROOT
BRANCH   1   2
HETATM    2  C           1     -20.832  -4.188 -10.234  0.00  0.00     0.249 C 
HETATM    3  N           1     -20.765  -3.948  -8.888  0.00  0.00    -0.349 N 
HETATM    4  H           1     -21.513  -3.449  -8.425  0.00  0.00     0.163 HD
HETATM    5  O           1     -19.938  -4.783 -10.787  0.00  0.00    -0.271 OA
BRANCH   3   6
HETATM    6  C           1     -19.620  -4.408  -8.126  0.00  0.00     0.235 C 
BRANCH   6   7
HETATM    7  C           1     -20.093  -5.251  -6.966  0.00  0.00     0.191 C 
HETATM    8  O           1     -20.416  -6.444  -7.152  0.00  0.00    -0.647 OA
HETATM    9  O           1     -20.162  -4.755  -5.822  0.00  0.00    -0.647 OA
ENDBRANCH   6   7
ENDBRANCH   3   6
ENDBRANCH   1   2
BRANCH   1  10
HETATM   10  C           1     -23.227  -4.589 -10.721  0.00  0.00     0.145 C 
BRANCH  10  11
HETATM   11  C           1     -24.295  -3.763 -10.046  0.00  0.00     0.217 C 
HETATM   12  O           1     -25.138  -3.206 -10.708  0.00  0.00    -0.274 OA
HETATM   13  N           1     -24.308  -3.645  -8.681  0.00  0.00    -0.370 N 
HETATM   14  H           1     -23.603  -4.112  -8.126  0.00  0.00     0.159 HD
HETATM   15  H           1     -25.024  -3.091  -8.228  0.00  0.00     0.159 HD
ENDBRANCH  10  11
ENDBRANCH   1  10
BRANCH   1  16
HETATM   16  N           1     -21.710  -3.784 -12.493  0.00  0.00    -0.066 N 
HETATM   17  H           1     -21.653  -2.817 -12.887  0.00  0.00     0.275 HD
HETATM   18  H           1     -22.465  -4.316 -12.983  0.00  0.00     0.275 HD
HETATM   19  H           1     -20.796  -4.270 -12.630  0.00  0.00     0.275 HD
ENDBRANCH   1  16
TORSDOF 6
ENDMDL
MODEL 8
REMARK VINA RESULT:      -5.7      8.651     10.637
REMARK  6 active torsions:
REMARK  status: ('A' for Active; 'I' for Inactive)
REMARK    1  A    between atoms: C_1  and  C_2 
REMARK    2  A    between atoms: C_1  and  C_17 
REMARK    3  A    between atoms: C_1  and  N_10 
REMARK       I    between atoms: C_2  and  N_3 
REMARK    4  A    between atoms: N_3  and  C_19 
REMARK    5  A    between atoms: C_12  and  C_19 
REMARK       I    between atoms: N_15  and  C_16 
REMARK    6  A    between atoms: C_16  and  C_17 
ROOT
HETATM    1  C           1     -29.462  -7.310 -17.785  0.00  0.00     0.283 C 
ENDROOT
BRANCH   1   2
HETATM    2  C           1     -30.799  -6.665 -17.511  0.00  0.00     0.249 C 
HETATM    3  N           1     -30.857  -5.463 -16.859  0.00  0.00    -0.349 N 
HETATM    4  H           1     -30.005  -5.006 -16.561  0.00  0.00     0.163 HD
HETATM    5  O           1     -31.817  -7.210 -17.866  0.00  0.00    -0.271 OA
BRANCH   3   6
HETATM    6  C           1     -32.142  -4.843 -16.595  0.00  0.00     0.235 C 
BRANCH   6   7
HETATM    7  C           1     -32.207  -3.505 -17.289  0.00  0.00     0.191 C 
HETATM    8  O           1     -31.154  -2.892 -17.566  0.00  0.00    -0.647 OA
HETATM    9  O           1     -33.315  -3.009 -17.586  0.00  0.00    -0.647 OA
ENDBRANCH   6   7
ENDBRANCH   3   6
ENDBRANCH   1   2
BRANCH   1  10
HETATM   10  C           1     -28.536  -6.300 -18.450  0.00  0.00     0.145 C 
BRANCH  10  11
HETATM   11  C           1     -27.209  -6.286 -17.731  0.00  0.00     0.217 C 
HETATM   12  O           1     -27.144  -5.898 -16.589  0.00  0.00    -0.274 OA
HETATM   13  N           1     -26.078  -6.712 -18.375  0.00  0.00    -0.370 N 
HETATM   14  H           1     -26.132  -7.038 -19.331  0.00  0.00     0.159 HD
HETATM   15  H           1     -25.187  -6.702 -17.893  0.00  0.00     0.159 HD
ENDBRANCH  10  11
ENDBRANCH   1  10
BRANCH   1  16
HETATM   16  N           1     -29.653  -8.487 -18.697  0.00  0.00    -0.066 N 
HETATM   17  H           1     -30.409  -9.102 -18.318  0.00  0.00     0.275 HD
HETATM   18  H           1     -28.761  -9.028 -18.759  0.00  0.00     0.275 HD
HETATM   19  H           1     -29.923  -8.151 -19.649  0.00  0.00     0.275 HD
ENDBRANCH   1  16
TORSDOF 6
ENDMDL
MODEL 9
REMARK VINA RESULT:      -5.5      2.268      5.657
REMARK  6 active torsions:
REMARK  status: ('A' for Active; 'I' for Inactive)
REMARK    1  A    between atoms: C_1  and  C_2 
REMARK    2  A    between atoms: C_1  and  C_17 
REMARK    3  A    between atoms: C_1  and  N_10 
REMARK       I    between atoms: C_2  and  N_3 
REMARK    4  A    between atoms: N_3  and  C_19 
REMARK    5  A    between atoms: C_12  and  C_19 
REMARK       I    between atoms: N_15  and  C_16 
REMARK    6  A    between atoms: C_16  and  C_17 
ROOT
HETATM    1  C           1     -21.095  -4.677  -9.003  0.00  0.00     0.283 C 
ENDROOT
BRANCH   1   2
HETATM    2  C           1     -21.395  -4.049 -10.343  0.00  0.00     0.249 C 
HETATM    3  N           1     -22.610  -4.255 -10.938  0.00  0.00    -0.349 N 
HETATM    4  H           1     -23.308  -4.828 -10.481  0.00  0.00     0.163 HD
HETATM    5  O           1     -20.563  -3.365 -10.889  0.00  0.00    -0.271 OA
BRANCH   3   6
HETATM    6  C           1     -22.898  -3.652 -12.226  0.00  0.00     0.235 C 
BRANCH   6   7
HETATM    7  C           1     -24.311  -3.121 -12.228  0.00  0.00     0.191 C 
HETATM    8  O           1     -24.987  -3.138 -11.177  0.00  0.00    -0.647 OA
HETATM    9  O           1     -24.804  -2.664 -13.281  0.00  0.00    -0.647 OA
ENDBRANCH   6   7
ENDBRANCH   3   6
ENDBRANCH   1   2
BRANCH   1  10
HETATM   10  C           1     -21.634  -3.787  -7.892  0.00  0.00     0.145 C 
BRANCH  10  11
HETATM   11  C           1     -22.968  -4.317  -7.425  0.00  0.00     0.217 C 
HETATM   12  O           1     -23.036  -4.983  -6.419  0.00  0.00    -0.274 OA
HETATM   13  N           1     -24.102  -4.042  -8.141  0.00  0.00    -0.370 N 
HETATM   14  H           1     -24.046  -3.483  -8.983  0.00  0.00     0.159 HD
HETATM   15  H           1     -24.997  -4.398  -7.829  0.00  0.00     0.159 HD
ENDBRANCH  10  11
ENDBRANCH   1  10
BRANCH   1  16
HETATM   16  N           1     -19.611  -4.831  -8.845  0.00  0.00    -0.066 N 
HETATM   17  H           1     -19.245  -4.065  -8.235  0.00  0.00     0.275 HD
HETATM   18  H           1     -19.153  -4.778  -9.783  0.00  0.00     0.275 HD
HETATM   19  H           1     -19.400  -5.756  -8.406  0.00  0.00     0.275 HD
ENDBRANCH   1  16
TORSDOF 6
ENDMDL
