MODEL 1
REMARK VINA RESULT:      -7.6      0.000      0.000
REMARK  9 active torsions:
REMARK  status: ('A' for Active; 'I' for Inactive)
REMARK    1  A    between atoms: N_1  and  C_16 
REMARK       I    between atoms: N_1  and  C_2 
REMARK    2  A    between atoms: C_2  and  C_3 
REMARK    3  A    between atoms: C_3  and  C_4 
REMARK    4  A    between atoms: C_3  and  N_8 
REMARK    5  A    between atoms: C_4  and  C_5 
REMARK    6  A    between atoms: O_13  and  C_14 
REMARK    7  A    between atoms: C_15  and  C_26 
REMARK    8  A    between atoms: C_15  and  C_16 
REMARK    9  A    between atoms: C_16  and  C_17 
ROOT
HETATM    1  N           1     -36.150   0.002 -13.201  0.00  0.00    -0.344 N 
HETATM    2  C           1     -37.166  -0.214 -14.091  0.00  0.00     0.249 C 
HETATM    3  O           1     -38.072  -0.962 -13.805  0.00  0.00    -0.271 OA
HETATM    4  H           1     -35.391   0.628 -13.441  0.00  0.00     0.163 HD
ENDROOT
BRANCH   1   5
HETATM    5  C           1     -36.158  -0.668 -11.914  0.00  0.00     0.189 C 
BRANCH   5   6
HETATM    6  C           1     -34.724  -0.935 -11.472  0.00  0.00     0.074 C 
BRANCH   6   7
HETATM    7  C           1     -34.509  -2.411 -11.343  0.00  0.00    -0.056 A 
HETATM    8  C           1     -33.239  -2.950 -11.544  0.00  0.00     0.010 A 
HETATM    9  C           1     -33.038  -4.325 -11.424  0.00  0.00     0.037 A 
HETATM   10  C           1     -34.107  -5.160 -11.101  0.00  0.00     0.065 A 
HETATM   11  C           1     -35.377  -4.621 -10.899  0.00  0.00     0.037 A 
HETATM   12  C           1     -35.579  -3.246 -11.020  0.00  0.00     0.010 A 
BRANCH  10  13
HETATM   13  O           1     -33.912  -6.496 -10.983  0.00  0.00    -0.361 OA
HETATM   14  H           1     -33.471  -6.808 -11.791  0.00  0.00     0.217 HD
ENDBRANCH  10  13
ENDBRANCH   6   7
ENDBRANCH   5   6
BRANCH   5  15
HETATM   15  C           1     -36.842   0.211 -10.897  0.00  0.00     0.197 C 
HETATM   16  O           1     -36.180   0.726  -9.969  0.00  0.00    -0.646 OA
HETATM   17  O           1     -38.071   0.426 -10.981  0.00  0.00    -0.646 OA
ENDBRANCH   5  15
ENDBRANCH   1   5
BRANCH   2  18
HETATM   18  C           1     -37.157   0.482 -15.430  0.00  0.00     0.284 C 
BRANCH  18  19
HETATM   19  C           1     -36.761  -0.510 -16.516  0.00  0.00     0.155 C 
BRANCH  19  20
HETATM   20  C           1     -35.415  -1.108 -16.185  0.00  0.00     0.175 C 
HETATM   21  O           1     -34.451  -0.362 -15.912  0.00  0.00    -0.648 OA
HETATM   22  O           1     -35.267  -2.348 -16.184  0.00  0.00    -0.648 OA
ENDBRANCH  19  20
ENDBRANCH  18  19
BRANCH  18  23
HETATM   23  N           1     -36.169   1.610 -15.400  0.00  0.00    -0.066 N 
HETATM   24  H           1     -35.493   1.461 -14.617  0.00  0.00     0.275 HD
HETATM   25  H           1     -35.650   1.641 -16.307  0.00  0.00     0.275 HD
HETATM   26  H           1     -36.675   2.512 -15.255  0.00  0.00     0.275 HD
ENDBRANCH  18  23
ENDBRANCH   2  18
TORSDOF 9
ENDMDL
MODEL 2
REMARK VINA RESULT:      -7.5      1.459      1.997
REMARK  9 active torsions:
REMARK  status: ('A' for Active; 'I' for Inactive)
REMARK    1  A    between atoms: N_1  and  C_16 
REMARK       I    between atoms: N_1  and  C_2 
REMARK    2  A    between atoms: C_2  and  C_3 
REMARK    3  A    between atoms: C_3  and  C_4 
REMARK    4  A    between atoms: C_3  and  N_8 
REMARK    5  A    between atoms: C_4  and  C_5 
REMARK    6  A    between atoms: O_13  and  C_14 
REMARK    7  A    between atoms: C_15  and  C_26 
REMARK    8  A    between atoms: C_15  and  C_16 
REMARK    9  A    between atoms: C_16  and  C_17 
ROOT
HETATM    1  N           1     -35.286  -0.522 -12.916  0.00  0.00    -0.344 N 
HETATM    2  C           1     -35.102  -1.107 -14.139  0.00  0.00     0.249 C 
HETATM    3  O           1     -35.065  -2.312 -14.233  0.00  0.00    -0.271 OA
HETATM    4  H           1     -35.317   0.486 -12.837  0.00  0.00     0.163 HD
ENDROOT
BRANCH   1   5
HETATM    5  C           1     -35.436  -1.346 -11.732  0.00  0.00     0.189 C 
BRANCH   5   6
HETATM    6  C           1     -34.059  -1.702 -11.185  0.00  0.00     0.074 C 
BRANCH   6   7
HETATM    7  C           1     -33.923  -3.191 -11.107  0.00  0.00    -0.056 A 
HETATM    8  C           1     -32.795  -3.817 -11.637  0.00  0.00     0.010 A 
HETATM    9  C           1     -32.669  -5.204 -11.564  0.00  0.00     0.037 A 
HETATM   10  C           1     -33.669  -5.965 -10.960  0.00  0.00     0.065 A 
HETATM   11  C           1     -34.797  -5.340 -10.429  0.00  0.00     0.037 A 
HETATM   12  C           1     -34.925  -3.952 -10.502  0.00  0.00     0.010 A 
BRANCH  10  13
HETATM   13  O           1     -33.545  -7.313 -10.889  0.00  0.00    -0.361 OA
HETATM   14  H           1     -33.673  -7.674 -11.782  0.00  0.00     0.217 HD
ENDBRANCH  10  13
ENDBRANCH   6   7
ENDBRANCH   5   6
BRANCH   5  15
HETATM   15  C           1     -36.211  -0.584 -10.686  0.00  0.00     0.197 C 
HETATM   16  O           1     -36.200   0.666 -10.687  0.00  0.00    -0.646 OA
HETATM   17  O           1     -36.866  -1.202  -9.819  0.00  0.00    -0.646 OA
ENDBRANCH   5  15
ENDBRANCH   1   5
BRANCH   2  18
HETATM   18  C           1     -34.945  -0.250 -15.370  0.00  0.00     0.284 C 
BRANCH  18  19
HETATM   19  C           1     -36.079   0.766 -15.431  0.00  0.00     0.155 C 
BRANCH  19  20
HETATM   20  C           1     -37.401   0.042 -15.505  0.00  0.00     0.175 C 
HETATM   21  O           1     -38.073  -0.139 -14.468  0.00  0.00    -0.648 OA
HETATM   22  O           1     -37.823  -0.376 -16.604  0.00  0.00    -0.648 OA
ENDBRANCH  19  20
ENDBRANCH  18  19
BRANCH  18  23
HETATM   23  N           1     -34.989  -1.118 -16.593  0.00  0.00    -0.066 N 
HETATM   24  H           1     -35.340  -0.561 -17.404  0.00  0.00     0.275 HD
HETATM   25  H           1     -34.027  -1.470 -16.803  0.00  0.00     0.275 HD
HETATM   26  H           1     -35.628  -1.927 -16.424  0.00  0.00     0.275 HD
ENDBRANCH  18  23
ENDBRANCH   2  18
TORSDOF 9
ENDMDL
MODEL 3
REMARK VINA RESULT:      -7.4      2.374      5.358
REMARK  9 active torsions:
REMARK  status: ('A' for Active; 'I' for Inactive)
REMARK    1  A    between atoms: N_1  and  C_16 
REMARK       I    between atoms: N_1  and  C_2 
REMARK    2  A    between atoms: C_2  and  C_3 
REMARK    3  A    between atoms: C_3  and  C_4 
REMARK    4  A    between atoms: C_3  and  N_8 
REMARK    5  A    between atoms: C_4  and  C_5 
REMARK    6  A    between atoms: O_13  and  C_14 
REMARK    7  A    between atoms: C_15  and  C_26 
REMARK    8  A    between atoms: C_15  and  C_16 
REMARK    9  A    between atoms: C_16  and  C_17 
ROOT
HETATM    1  N           1     -35.790  -2.031 -10.466  0.00  0.00    -0.344 N 
HETATM    2  C           1     -34.460  -2.304 -10.633  0.00  0.00     0.249 C 
HETATM    3  O           1     -33.665  -1.399 -10.727  0.00  0.00    -0.271 OA
HETATM    4  H           1     -36.457  -2.789 -10.388  0.00  0.00     0.163 HD
ENDROOT
BRANCH   1   5
HETATM    5  C           1     -36.247  -0.656 -10.402  0.00  0.00     0.189 C 
BRANCH   5   6
HETATM    6  C           1     -37.501  -0.498 -11.252  0.00  0.00     0.074 C 
BRANCH   6   7
HETATM    7  C           1     -37.113  -0.142 -12.653  0.00  0.00    -0.056 A 
HETATM    8  C           1     -38.067  -0.175 -13.670  0.00  0.00     0.010 A 
HETATM    9  C           1     -37.704   0.156 -14.976  0.00  0.00     0.037 A 
HETATM   10  C           1     -36.390   0.522 -15.265  0.00  0.00     0.065 A 
HETATM   11  C           1     -35.436   0.555 -14.248  0.00  0.00     0.037 A 
HETATM   12  C           1     -35.797   0.223 -12.942  0.00  0.00     0.010 A 
BRANCH  10  13
HETATM   13  O           1     -36.039   0.844 -16.533  0.00  0.00    -0.361 OA
HETATM   14  H           1     -36.851   0.909 -17.063  0.00  0.00     0.217 HD
ENDBRANCH  10  13
ENDBRANCH   6   7
ENDBRANCH   5   6
BRANCH   5  15
HETATM   15  C           1     -36.561  -0.298  -8.970  0.00  0.00     0.197 C 
HETATM   16  O           1     -35.654   0.118  -8.217  0.00  0.00    -0.646 OA
HETATM   17  O           1     -37.728  -0.417  -8.537  0.00  0.00    -0.646 OA
ENDBRANCH   5  15
ENDBRANCH   1   5
BRANCH   2  18
HETATM   18  C           1     -33.986  -3.734 -10.700  0.00  0.00     0.284 C 
BRANCH  18  19
HETATM   19  C           1     -33.273  -3.972 -12.025  0.00  0.00     0.155 C 
BRANCH  19  20
HETATM   20  C           1     -34.286  -4.012 -13.143  0.00  0.00     0.175 C 
HETATM   21  O           1     -34.937  -5.056 -13.359  0.00  0.00    -0.648 OA
HETATM   22  O           1     -34.475  -2.999 -13.851  0.00  0.00    -0.648 OA
ENDBRANCH  19  20
ENDBRANCH  18  19
BRANCH  18  23
HETATM   23  N           1     -35.164  -4.657 -10.595  0.00  0.00    -0.066 N 
HETATM   24  H           1     -35.574  -4.592  -9.637  0.00  0.00     0.275 HD
HETATM   25  H           1     -35.884  -4.382 -11.301  0.00  0.00     0.275 HD
HETATM   26  H           1     -34.855  -5.638 -10.775  0.00  0.00     0.275 HD
ENDBRANCH  18  23
ENDBRANCH   2  18
TORSDOF 9
ENDMDL
MODEL 4
REMARK VINA RESULT:      -7.1     13.832     17.411
REMARK  9 active torsions:
REMARK  status: ('A' for Active; 'I' for Inactive)
REMARK    1  A    between atoms: N_1  and  C_16 
REMARK       I    between atoms: N_1  and  C_2 
REMARK    2  A    between atoms: C_2  and  C_3 
REMARK    3  A    between atoms: C_3  and  C_4 
REMARK    4  A    between atoms: C_3  and  N_8 
REMARK    5  A    between atoms: C_4  and  C_5 
REMARK    6  A    between atoms: O_13  and  C_14 
REMARK    7  A    between atoms: C_15  and  C_26 
REMARK    8  A    between atoms: C_15  and  C_16 
REMARK    9  A    between atoms: C_16  and  C_17 
ROOT
HETATM    1  N           1     -21.012  -5.145  -5.148  0.00  0.00    -0.344 N 
HETATM    2  C           1     -21.315  -6.248  -4.397  0.00  0.00     0.249 C 
HETATM    3  O           1     -21.599  -7.290  -4.942  0.00  0.00    -0.271 OA
HETATM    4  H           1     -20.775  -4.273  -4.693  0.00  0.00     0.163 HD
ENDROOT
BRANCH   1   5
HETATM    5  C           1     -21.034  -5.224  -6.596  0.00  0.00     0.189 C 
BRANCH   5   6
HETATM    6  C           1     -21.501  -3.892  -7.170  0.00  0.00     0.074 C 
BRANCH   6   7
HETATM    7  C           1     -22.058  -4.108  -8.542  0.00  0.00    -0.056 A 
HETATM    8  C           1     -23.421  -4.353  -8.710  0.00  0.00     0.010 A 
HETATM    9  C           1     -23.941  -4.555  -9.989  0.00  0.00     0.037 A 
HETATM   10  C           1     -23.099  -4.510 -11.099  0.00  0.00     0.065 A 
HETATM   11  C           1     -21.736  -4.264 -10.932  0.00  0.00     0.037 A 
HETATM   12  C           1     -21.215  -4.063  -9.653  0.00  0.00     0.010 A 
BRANCH  10  13
HETATM   13  O           1     -23.604  -4.704 -12.341  0.00  0.00    -0.361 OA
HETATM   14  H           1     -23.071  -5.389 -12.779  0.00  0.00     0.217 HD
ENDBRANCH  10  13
ENDBRANCH   6   7
ENDBRANCH   5   6
BRANCH   5  15
HETATM   15  C           1     -19.646  -5.531  -7.102  0.00  0.00     0.197 C 
HETATM   16  O           1     -18.814  -4.608  -7.244  0.00  0.00    -0.646 OA
HETATM   17  O           1     -19.327  -6.708  -7.378  0.00  0.00    -0.646 OA
ENDBRANCH   5  15
ENDBRANCH   1   5
BRANCH   2  18
HETATM   18  C           1     -21.293  -6.166  -2.891  0.00  0.00     0.284 C 
BRANCH  18  19
HETATM   19  C           1     -20.705  -7.449  -2.320  0.00  0.00     0.155 C 
BRANCH  19  20
HETATM   20  C           1     -21.654  -8.028  -1.300  0.00  0.00     0.175 C 
HETATM   21  O           1     -21.783  -7.481  -0.184  0.00  0.00    -0.648 OA
HETATM   22  O           1     -22.312  -9.055  -1.572  0.00  0.00    -0.648 OA
ENDBRANCH  19  20
ENDBRANCH  18  19
BRANCH  18  23
HETATM   23  N           1     -22.693  -5.989  -2.380  0.00  0.00    -0.066 N 
HETATM   24  H           1     -22.725  -5.173  -1.729  0.00  0.00     0.275 HD
HETATM   25  H           1     -23.337  -5.817  -3.185  0.00  0.00     0.275 HD
HETATM   26  H           1     -22.990  -6.851  -1.872  0.00  0.00     0.275 HD
ENDBRANCH  18  23
ENDBRANCH   2  18
TORSDOF 9
ENDMDL
MODEL 5
REMARK VINA RESULT:      -7.0     13.630     17.070
REMARK  9 active torsions:
REMARK  status: ('A' for Active; 'I' for Inactive)
REMARK    1  A    between atoms: N_1  and  C_16 
REMARK       I    between atoms: N_1  and  C_2 
REMARK    2  A    between atoms: C_2  and  C_3 
REMARK    3  A    between atoms: C_3  and  C_4 
REMARK    4  A    between atoms: C_3  and  N_8 
REMARK    5  A    between atoms: C_4  and  C_5 
REMARK    6  A    between atoms: O_13  and  C_14 
REMARK    7  A    between atoms: C_15  and  C_26 
REMARK    8  A    between atoms: C_15  and  C_16 
REMARK    9  A    between atoms: C_16  and  C_17 
ROOT
HETATM    1  N           1     -21.522  -5.464  -5.777  0.00  0.00    -0.344 N 
HETATM    2  C           1     -21.501  -6.797  -5.465  0.00  0.00     0.249 C 
HETATM    3  O           1     -21.069  -7.597  -6.261  0.00  0.00    -0.271 OA
HETATM    4  H           1     -21.884  -4.794  -5.111  0.00  0.00     0.163 HD
ENDROOT
BRANCH   1   5
HETATM    5  C           1     -21.027  -5.013  -7.064  0.00  0.00     0.189 C 
BRANCH   5   6
HETATM    6  C           1     -21.846  -3.815  -7.530  0.00  0.00     0.074 C 
BRANCH   6   7
HETATM    7  C           1     -22.352  -4.066  -8.916  0.00  0.00    -0.056 A 
HETATM    8  C           1     -21.457  -4.125  -9.985  0.00  0.00     0.010 A 
HETATM    9  C           1     -21.928  -4.358 -11.277  0.00  0.00     0.037 A 
HETATM   10  C           1     -23.293  -4.535 -11.500  0.00  0.00     0.065 A 
HETATM   11  C           1     -24.188  -4.477 -10.432  0.00  0.00     0.037 A 
HETATM   12  C           1     -23.718  -4.243  -9.140  0.00  0.00     0.010 A 
BRANCH  10  13
HETATM   13  O           1     -23.751  -4.763 -12.755  0.00  0.00    -0.361 OA
HETATM   14  H           1     -24.721  -4.720 -12.733  0.00  0.00     0.217 HD
ENDBRANCH  10  13
ENDBRANCH   6   7
ENDBRANCH   5   6
BRANCH   5  15
HETATM   15  C           1     -19.579  -4.611  -6.931  0.00  0.00     0.197 C 
HETATM   16  O           1     -19.067  -4.484  -5.797  0.00  0.00    -0.646 OA
HETATM   17  O           1     -18.890  -4.406  -7.954  0.00  0.00    -0.646 OA
ENDBRANCH   5  15
ENDBRANCH   1   5
BRANCH   2  18
HETATM   18  C           1     -22.016  -7.266  -4.128  0.00  0.00     0.284 C 
BRANCH  18  19
HETATM   19  C           1     -21.417  -6.407  -3.021  0.00  0.00     0.155 C 
BRANCH  19  20
HETATM   20  C           1     -21.712  -7.035  -1.681  0.00  0.00     0.175 C 
HETATM   21  O           1     -22.730  -6.693  -1.041  0.00  0.00    -0.648 OA
HETATM   22  O           1     -20.939  -7.897  -1.211  0.00  0.00    -0.648 OA
ENDBRANCH  19  20
ENDBRANCH  18  19
BRANCH  18  23
HETATM   23  N           1     -21.622  -8.698  -3.915  0.00  0.00    -0.066 N 
HETATM   24  H           1     -21.468  -8.870  -2.896  0.00  0.00     0.275 HD
HETATM   25  H           1     -22.385  -9.323  -4.262  0.00  0.00     0.275 HD
HETATM   26  H           1     -20.741  -8.898  -4.439  0.00  0.00     0.275 HD
ENDBRANCH  18  23
ENDBRANCH   2  18
TORSDOF 9
ENDMDL
MODEL 6
REMARK VINA RESULT:      -6.8     12.898     15.339
REMARK  9 active torsions:
REMARK  status: ('A' for Active; 'I' for Inactive)
REMARK    1  A    between atoms: N_1  and  C_16 
REMARK       I    between atoms: N_1  and  C_2 
REMARK    2  A    between atoms: C_2  and  C_3 
REMARK    3  A    between atoms: C_3  and  C_4 
REMARK    4  A    between atoms: C_3  and  N_8 
REMARK    5  A    between atoms: C_4  and  C_5 
REMARK    6  A    between atoms: O_13  and  C_14 
REMARK    7  A    between atoms: C_15  and  C_26 
REMARK    8  A    between atoms: C_15  and  C_16 
REMARK    9  A    between atoms: C_16  and  C_17 
ROOT
HETATM    1  N           1     -21.946  -5.026  -8.756  0.00  0.00    -0.344 N 
HETATM    2  C           1     -23.227  -4.583  -8.563  0.00  0.00     0.249 C 
HETATM    3  O           1     -23.562  -4.157  -7.483  0.00  0.00    -0.271 OA
HETATM    4  H           1     -21.665  -5.383  -9.660  0.00  0.00     0.163 HD
ENDROOT
BRANCH   1   5
HETATM    5  C           1     -20.992  -4.984  -7.664  0.00  0.00     0.189 C 
BRANCH   5   6
HETATM    6  C           1     -20.579  -6.404  -7.297  0.00  0.00     0.074 C 
BRANCH   6   7
HETATM    7  C           1     -20.921  -6.668  -5.864  0.00  0.00    -0.056 A 
HETATM    8  C           1     -20.904  -5.623  -4.940  0.00  0.00     0.010 A 
HETATM    9  C           1     -21.222  -5.869  -3.604  0.00  0.00     0.037 A 
HETATM   10  C           1     -21.559  -7.158  -3.193  0.00  0.00     0.065 A 
HETATM   11  C           1     -21.577  -8.203  -4.117  0.00  0.00     0.037 A 
HETATM   12  C           1     -21.258  -7.958  -5.453  0.00  0.00     0.010 A 
BRANCH  10  13
HETATM   13  O           1     -21.870  -7.397  -1.895  0.00  0.00    -0.361 OA
HETATM   14  H           1     -21.077  -7.748  -1.457  0.00  0.00     0.217 HD
ENDBRANCH  10  13
ENDBRANCH   6   7
ENDBRANCH   5   6
BRANCH   5  15
HETATM   15  C           1     -19.775  -4.201  -8.092  0.00  0.00     0.197 C 
HETATM   16  O           1     -19.838  -3.441  -9.083  0.00  0.00    -0.646 OA
HETATM   17  O           1     -18.705  -4.310  -7.455  0.00  0.00    -0.646 OA
ENDBRANCH   5  15
ENDBRANCH   1   5
BRANCH   2  18
HETATM   18  C           1     -24.219  -4.628  -9.698  0.00  0.00     0.284 C 
BRANCH  18  19
HETATM   19  C           1     -23.474  -4.615 -11.026  0.00  0.00     0.155 C 
BRANCH  19  20
HETATM   20  C           1     -23.829  -3.363 -11.790  0.00  0.00     0.175 C 
HETATM   21  O           1     -23.039  -2.394 -11.802  0.00  0.00    -0.648 OA
HETATM   22  O           1     -24.911  -3.295 -12.410  0.00  0.00    -0.648 OA
ENDBRANCH  19  20
ENDBRANCH  18  19
BRANCH  18  23
HETATM   23  N           1     -25.121  -3.431  -9.620  0.00  0.00    -0.066 N 
HETATM   24  H           1     -25.635  -3.441  -8.711  0.00  0.00     0.275 HD
HETATM   25  H           1     -24.548  -2.560  -9.687  0.00  0.00     0.275 HD
HETATM   26  H           1     -25.807  -3.461 -10.408  0.00  0.00     0.275 HD
ENDBRANCH  18  23
ENDBRANCH   2  18
TORSDOF 9
ENDMDL
MODEL 7
REMARK VINA RESULT:      -6.7     14.999     17.953
REMARK  9 active torsions:
REMARK  status: ('A' for Active; 'I' for Inactive)
REMARK    1  A    between atoms: N_1  and  C_16 
REMARK       I    between atoms: N_1  and  C_2 
REMARK    2  A    between atoms: C_2  and  C_3 
REMARK    3  A    between atoms: C_3  and  C_4 
REMARK    4  A    between atoms: C_3  and  N_8 
REMARK    5  A    between atoms: C_4  and  C_5 
REMARK    6  A    between atoms: O_13  and  C_14 
REMARK    7  A    between atoms: C_15  and  C_26 
REMARK    8  A    between atoms: C_15  and  C_16 
REMARK    9  A    between atoms: C_16  and  C_17 
ROOT
HETATM    1  N           1     -20.038  -6.929  -6.034  0.00  0.00    -0.344 N 
HETATM    2  C           1     -20.182  -5.568  -6.034  0.00  0.00     0.249 C 
HETATM    3  O           1     -20.317  -4.976  -4.989  0.00  0.00    -0.271 OA
HETATM    4  H           1     -19.926  -7.425  -6.909  0.00  0.00     0.163 HD
ENDROOT
BRANCH   1   5
HETATM    5  C           1     -20.049  -7.661  -4.782  0.00  0.00     0.189 C 
BRANCH   5   6
HETATM    6  C           1     -21.466  -8.134  -4.484  0.00  0.00     0.074 C 
BRANCH   6   7
HETATM    7  C           1     -21.718  -8.056  -3.010  0.00  0.00    -0.056 A 
HETATM    8  C           1     -21.720  -9.220  -2.241  0.00  0.00     0.010 A 
HETATM    9  C           1     -21.956  -9.146  -0.868  0.00  0.00     0.037 A 
HETATM   10  C           1     -22.186  -7.911  -0.264  0.00  0.00     0.065 A 
HETATM   11  C           1     -22.182  -6.747  -1.033  0.00  0.00     0.037 A 
HETATM   12  C           1     -21.949  -6.819  -2.406  0.00  0.00     0.010 A 
BRANCH  10  13
HETATM   13  O           1     -22.413  -7.840   1.070  0.00  0.00    -0.361 OA
HETATM   14  H           1     -22.562  -6.908   1.300  0.00  0.00     0.217 HD
ENDBRANCH  10  13
ENDBRANCH   6   7
ENDBRANCH   5   6
BRANCH   5  15
HETATM   15  C           1     -19.132  -8.854  -4.892  0.00  0.00     0.197 C 
HETATM   16  O           1     -18.471  -9.228  -3.898  0.00  0.00    -0.646 OA
HETATM   17  O           1     -19.034  -9.470  -5.975  0.00  0.00    -0.646 OA
ENDBRANCH   5  15
ENDBRANCH   1   5
BRANCH   2  18
HETATM   18  C           1     -20.172  -4.807  -7.336  0.00  0.00     0.284 C 
BRANCH  18  19
HETATM   19  C           1     -21.092  -3.598  -7.227  0.00  0.00     0.155 C 
BRANCH  19  20
HETATM   20  C           1     -22.407  -3.904  -7.900  0.00  0.00     0.175 C 
HETATM   21  O           1     -23.310  -4.494  -7.268  0.00  0.00    -0.648 OA
HETATM   22  O           1     -22.594  -3.566  -9.088  0.00  0.00    -0.648 OA
ENDBRANCH  19  20
ENDBRANCH  18  19
BRANCH  18  23
HETATM   23  N           1     -20.653  -5.701  -8.441  0.00  0.00    -0.066 N 
HETATM   24  H           1     -20.971  -5.118  -9.247  0.00  0.00     0.275 HD
HETATM   25  H           1     -19.872  -6.324  -8.748  0.00  0.00     0.275 HD
HETATM   26  H           1     -21.449  -6.283  -8.096  0.00  0.00     0.275 HD
ENDBRANCH  18  23
ENDBRANCH   2  18
TORSDOF 9
ENDMDL
MODEL 8
REMARK VINA RESULT:      -6.7      9.822     11.742
REMARK  9 active torsions:
REMARK  status: ('A' for Active; 'I' for Inactive)
REMARK    1  A    between atoms: N_1  and  C_16 
REMARK       I    between atoms: N_1  and  C_2 
REMARK    2  A    between atoms: C_2  and  C_3 
REMARK    3  A    between atoms: C_3  and  C_4 
REMARK    4  A    between atoms: C_3  and  N_8 
REMARK    5  A    between atoms: C_4  and  C_5 
REMARK    6  A    between atoms: O_13  and  C_14 
REMARK    7  A    between atoms: C_15  and  C_26 
REMARK    8  A    between atoms: C_15  and  C_16 
REMARK    9  A    between atoms: C_16  and  C_17 
ROOT
HETATM    1  N           1     -26.326  -6.683 -18.181  0.00  0.00    -0.344 N 
HETATM    2  C           1     -27.026  -6.102 -19.203  0.00  0.00     0.249 C 
HETATM    3  O           1     -27.943  -5.353 -18.957  0.00  0.00    -0.271 OA
HETATM    4  H           1     -25.558  -7.310 -18.386  0.00  0.00     0.163 HD
ENDROOT
BRANCH   1   5
HETATM    5  C           1     -26.683  -6.401 -16.804  0.00  0.00     0.189 C 
BRANCH   5   6
HETATM    6  C           1     -27.700  -7.429 -16.323  0.00  0.00     0.074 C 
BRANCH   6   7
HETATM    7  C           1     -29.083  -6.884 -16.503  0.00  0.00    -0.056 A 
HETATM    8  C           1     -29.495  -5.773 -15.769  0.00  0.00     0.010 A 
HETATM    9  C           1     -30.783  -5.265 -15.937  0.00  0.00     0.037 A 
HETATM   10  C           1     -31.658  -5.868 -16.840  0.00  0.00     0.065 A 
HETATM   11  C           1     -31.246  -6.979 -17.575  0.00  0.00     0.037 A 
HETATM   12  C           1     -29.958  -7.488 -17.407  0.00  0.00     0.010 A 
BRANCH  10  13
HETATM   13  O           1     -32.910  -5.374 -17.003  0.00  0.00    -0.361 OA
HETATM   14  H           1     -33.446  -5.656 -16.244  0.00  0.00     0.217 HD
ENDBRANCH  10  13
ENDBRANCH   6   7
ENDBRANCH   5   6
BRANCH   5  15
HETATM   15  C           1     -25.448  -6.474 -15.941  0.00  0.00     0.197 C 
HETATM   16  O           1     -24.977  -5.433 -15.433  0.00  0.00    -0.646 OA
HETATM   17  O           1     -24.894  -7.576 -15.732  0.00  0.00    -0.646 OA
ENDBRANCH   5  15
ENDBRANCH   1   5
BRANCH   2  18
HETATM   18  C           1     -26.655  -6.396 -20.635  0.00  0.00     0.284 C 
BRANCH  18  19
HETATM   19  C           1     -26.319  -7.875 -20.780  0.00  0.00     0.155 C 
BRANCH  19  20
HETATM   20  C           1     -24.863  -8.027 -21.145  0.00  0.00     0.175 C 
HETATM   21  O           1     -24.533  -8.214 -22.335  0.00  0.00    -0.648 OA
HETATM   22  O           1     -23.987  -7.965 -20.256  0.00  0.00    -0.648 OA
ENDBRANCH  19  20
ENDBRANCH  18  19
BRANCH  18  23
HETATM   23  N           1     -25.461  -5.573 -21.021  0.00  0.00    -0.066 N 
HETATM   24  H           1     -24.588  -6.093 -20.781  0.00  0.00     0.275 HD
HETATM   25  H           1     -25.486  -5.388 -22.049  0.00  0.00     0.275 HD
HETATM   26  H           1     -25.481  -4.667 -20.502  0.00  0.00     0.275 HD
ENDBRANCH  18  23
ENDBRANCH   2  18
TORSDOF 9
ENDMDL
MODEL 9
REMARK VINA RESULT:      -6.2     17.091     19.304
REMARK  9 active torsions:
REMARK  status: ('A' for Active; 'I' for Inactive)
REMARK    1  A    between atoms: N_1  and  C_16 
REMARK       I    between atoms: N_1  and  C_2 
REMARK    2  A    between atoms: C_2  and  C_3 
REMARK    3  A    between atoms: C_3  and  C_4 
REMARK    4  A    between atoms: C_3  and  N_8 
REMARK    5  A    between atoms: C_4  and  C_5 
REMARK    6  A    between atoms: O_13  and  C_14 
REMARK    7  A    between atoms: C_15  and  C_26 
REMARK    8  A    between atoms: C_15  and  C_16 
REMARK    9  A    between atoms: C_16  and  C_17 
ROOT
HETATM    1  N           1     -21.218  -8.338  -2.376  0.00  0.00    -0.344 N 
HETATM    2  C           1     -21.306  -9.128  -3.490  0.00  0.00     0.249 C 
HETATM    3  O           1     -22.092 -10.047  -3.519  0.00  0.00    -0.271 OA
HETATM    4  H           1     -20.560  -7.570  -2.351  0.00  0.00     0.163 HD
ENDROOT
BRANCH   1   5
HETATM    5  C           1     -22.067  -8.603  -1.230  0.00  0.00     0.189 C 
BRANCH   5   6
HETATM    6  C           1     -21.255  -9.306  -0.149  0.00  0.00     0.074 C 
BRANCH   6   7
HETATM    7  C           1     -21.879 -10.631   0.161  0.00  0.00    -0.056 A 
HETATM    8  C           1     -21.129 -11.624   0.790  0.00  0.00     0.010 A 
HETATM    9  C           1     -21.711 -12.859   1.078  0.00  0.00     0.037 A 
HETATM   10  C           1     -23.042 -13.100   0.740  0.00  0.00     0.065 A 
HETATM   11  C           1     -23.792 -12.106   0.111  0.00  0.00     0.037 A 
HETATM   12  C           1     -23.211 -10.871  -0.179  0.00  0.00     0.010 A 
BRANCH  10  13
HETATM   13  O           1     -23.607 -14.299   1.021  0.00  0.00    -0.361 OA
HETATM   14  H           1     -23.318 -14.566   1.910  0.00  0.00     0.217 HD
ENDBRANCH  10  13
ENDBRANCH   6   7
ENDBRANCH   5   6
BRANCH   5  15
HETATM   15  C           1     -22.600  -7.299  -0.690  0.00  0.00     0.197 C 
HETATM   16  O           1     -22.383  -6.232  -1.305  0.00  0.00    -0.646 OA
HETATM   17  O           1     -23.259  -7.284   0.373  0.00  0.00    -0.646 OA
ENDBRANCH   5  15
ENDBRANCH   1   5
BRANCH   2  18
HETATM   18  C           1     -20.423  -8.854  -4.681  0.00  0.00     0.284 C 
BRANCH  18  19
HETATM   19  C           1     -20.221  -7.351  -4.830  0.00  0.00     0.155 C 
BRANCH  19  20
HETATM   20  C           1     -21.251  -6.797  -5.783  0.00  0.00     0.175 C 
HETATM   21  O           1     -20.971  -6.654  -6.992  0.00  0.00    -0.648 OA
HETATM   22  O           1     -22.385  -6.481  -5.363  0.00  0.00    -0.648 OA
ENDBRANCH  19  20
ENDBRANCH  18  19
BRANCH  18  23
HETATM   23  N           1     -21.073  -9.395  -5.921  0.00  0.00    -0.066 N 
HETATM   24  H           1     -20.337  -9.639  -6.622  0.00  0.00     0.275 HD
HETATM   25  H           1     -21.621 -10.251  -5.679  0.00  0.00     0.275 HD
HETATM   26  H           1     -21.711  -8.672  -6.323  0.00  0.00     0.275 HD
ENDBRANCH  18  23
ENDBRANCH   2  18
TORSDOF 9
ENDMDL
