MODEL 1
REMARK VINA RESULT:      -7.5      0.000      0.000
REMARK  7 active torsions:
REMARK  status: ('A' for Active; 'I' for Inactive)
REMARK    1  A    between atoms: C_7  and  C_10 
REMARK    2  A    between atoms: C_7  and  C_14 
REMARK    3  A    between atoms: C_7  and  N_22 
REMARK    4  A    between atoms: C_9  and  C_13 
REMARK    5  A    between atoms: C_11  and  C_14 
REMARK    6  A    between atoms: C_13  and  C_23 
REMARK    7  A    between atoms: C_13  and  N_19 
REMARK       I    between atoms: N_22  and  C_23 
ROOT
HETATM    1  H           1     -36.343  -1.754  -9.261  0.00  0.00     0.163 HD
HETATM    2  O           1     -33.585  -1.744  -9.896  0.00  0.00    -0.271 OA
HETATM    3  N           1     -35.790  -1.419 -10.039  0.00  0.00    -0.344 N 
HETATM    4  C           1     -34.638  -2.069 -10.392  0.00  0.00     0.249 C 
ENDROOT
BRANCH   3   5
HETATM    5  C           1     -36.218  -0.248 -10.781  0.00  0.00     0.189 C 
BRANCH   5   6
HETATM    6  C           1     -36.928   0.704  -9.852  0.00  0.00     0.197 C 
HETATM    7  O           1     -38.075   1.114 -10.133  0.00  0.00    -0.646 OA
HETATM    8  O           1     -36.370   1.083  -8.799  0.00  0.00    -0.646 OA
ENDBRANCH   5   6
BRANCH   5   9
HETATM    9  C           1     -37.165  -0.672 -11.895  0.00  0.00     0.074 C 
BRANCH   9  10
HETATM   10  C           1     -36.710  -0.078 -13.192  0.00  0.00    -0.056 A 
HETATM   11  C           1     -35.431   0.468 -13.297  0.00  0.00     0.007 A 
HETATM   12  C           1     -35.007   1.022 -14.506  0.00  0.00     0.001 A 
HETATM   13  C           1     -35.862   1.028 -15.608  0.00  0.00     0.000 A 
HETATM   14  C           1     -37.140   0.481 -15.502  0.00  0.00     0.001 A 
HETATM   15  C           1     -37.565  -0.072 -14.294  0.00  0.00     0.007 A 
ENDBRANCH   9  10
ENDBRANCH   5   9
ENDBRANCH   3   5
BRANCH   4  16
HETATM   16  C           1     -34.684  -3.191 -11.400  0.00  0.00     0.278 C 
BRANCH  16  17
HETATM   17  C           1     -33.708  -4.285 -10.986  0.00  0.00     0.017 C 
HETATM   18  C           1     -34.449  -5.611 -10.867  0.00  0.00     0.012 C 
HETATM   19  C           1     -32.611  -4.410 -12.035  0.00  0.00     0.012 C 
ENDBRANCH  16  17
BRANCH  16  20
HETATM   20  N           1     -34.301  -2.666 -12.750  0.00  0.00    -0.066 N 
HETATM   21  H           1     -34.725  -3.268 -13.492  0.00  0.00     0.275 HD
HETATM   22  H           1     -34.652  -1.686 -12.855  0.00  0.00     0.275 HD
HETATM   23  H           1     -33.260  -2.676 -12.846  0.00  0.00     0.275 HD
ENDBRANCH  16  20
ENDBRANCH   4  16
TORSDOF 7
ENDMDL
MODEL 2
REMARK VINA RESULT:      -7.3      2.167      5.587
REMARK  7 active torsions:
REMARK  status: ('A' for Active; 'I' for Inactive)
REMARK    1  A    between atoms: C_7  and  C_10 
REMARK    2  A    between atoms: C_7  and  C_14 
REMARK    3  A    between atoms: C_7  and  N_22 
REMARK    4  A    between atoms: C_9  and  C_13 
REMARK    5  A    between atoms: C_11  and  C_14 
REMARK    6  A    between atoms: C_13  and  C_23 
REMARK    7  A    between atoms: C_13  and  N_19 
REMARK       I    between atoms: N_22  and  C_23 
ROOT
HETATM    1  H           1     -34.265  -1.591 -14.028  0.00  0.00     0.163 HD
HETATM    2  O           1     -34.461   1.195 -13.566  0.00  0.00    -0.271 OA
HETATM    3  N           1     -34.880  -0.998 -13.485  0.00  0.00    -0.344 N 
HETATM    4  C           1     -35.160   0.272 -13.913  0.00  0.00     0.249 C 
ENDROOT
BRANCH   3   5
HETATM    5  C           1     -35.464  -1.493 -12.254  0.00  0.00     0.189 C 
BRANCH   5   6
HETATM    6  C           1     -36.431  -0.470 -11.709  0.00  0.00     0.197 C 
HETATM    7  O           1     -36.032   0.401 -10.907  0.00  0.00    -0.646 OA
HETATM    8  O           1     -37.630  -0.493 -12.062  0.00  0.00    -0.646 OA
ENDBRANCH   5   6
BRANCH   5   9
HETATM    9  C           1     -34.363  -1.744 -11.234  0.00  0.00     0.074 C 
BRANCH   9  10
HETATM   10  C           1     -34.052  -3.208 -11.184  0.00  0.00    -0.056 A 
HETATM   11  C           1     -34.961  -4.094 -10.606  0.00  0.00     0.007 A 
HETATM   12  C           1     -34.672  -5.459 -10.560  0.00  0.00     0.001 A 
HETATM   13  C           1     -33.474  -5.936 -11.093  0.00  0.00     0.000 A 
HETATM   14  C           1     -32.566  -5.049 -11.671  0.00  0.00     0.001 A 
HETATM   15  C           1     -32.855  -3.686 -11.717  0.00  0.00     0.007 A 
ENDBRANCH   9  10
ENDBRANCH   5   9
ENDBRANCH   3   5
BRANCH   4  16
HETATM   16  C           1     -36.342   0.519 -14.818  0.00  0.00     0.278 C 
BRANCH  16  17
HETATM   17  C           1     -36.651  -0.747 -15.607  0.00  0.00     0.017 C 
HETATM   18  C           1     -38.075  -0.679 -16.143  0.00  0.00     0.012 C 
HETATM   19  C           1     -35.676  -0.870 -16.771  0.00  0.00     0.012 C 
ENDBRANCH  16  17
BRANCH  16  20
HETATM   20  N           1     -36.019   1.633 -15.769  0.00  0.00    -0.066 N 
HETATM   21  H           1     -35.089   1.454 -16.212  0.00  0.00     0.275 HD
HETATM   22  H           1     -36.754   1.681 -16.511  0.00  0.00     0.275 HD
HETATM   23  H           1     -35.989   2.538 -15.248  0.00  0.00     0.275 HD
ENDBRANCH  16  20
ENDBRANCH   4  16
TORSDOF 7
ENDMDL
MODEL 3
REMARK VINA RESULT:      -7.2      1.550      5.156
REMARK  7 active torsions:
REMARK  status: ('A' for Active; 'I' for Inactive)
REMARK    1  A    between atoms: C_7  and  C_10 
REMARK    2  A    between atoms: C_7  and  C_14 
REMARK    3  A    between atoms: C_7  and  N_22 
REMARK    4  A    between atoms: C_9  and  C_13 
REMARK    5  A    between atoms: C_11  and  C_14 
REMARK    6  A    between atoms: C_13  and  C_23 
REMARK    7  A    between atoms: C_13  and  N_19 
REMARK       I    between atoms: N_22  and  C_23 
ROOT
HETATM    1  H           1     -36.971   1.003 -11.535  0.00  0.00     0.163 HD
HETATM    2  O           1     -37.998  -0.767 -13.490  0.00  0.00    -0.271 OA
HETATM    3  N           1     -36.781   0.045 -11.802  0.00  0.00    -0.344 N 
HETATM    4  C           1     -36.933  -0.345 -13.106  0.00  0.00     0.249 C 
ENDROOT
BRANCH   3   5
HETATM    5  C           1     -36.349  -0.914 -10.804  0.00  0.00     0.189 C 
BRANCH   5   6
HETATM    6  C           1     -36.738  -0.422  -9.432  0.00  0.00     0.197 C 
HETATM    7  O           1     -35.854  -0.134  -8.597  0.00  0.00    -0.646 OA
HETATM    8  O           1     -37.946  -0.302  -9.130  0.00  0.00    -0.646 OA
ENDBRANCH   5   6
BRANCH   5   9
HETATM    9  C           1     -34.837  -1.075 -10.876  0.00  0.00     0.074 C 
BRANCH   9  10
HETATM   10  C           1     -34.495  -2.527 -11.007  0.00  0.00    -0.056 A 
HETATM   11  C           1     -35.480  -3.496 -10.816  0.00  0.00     0.007 A 
HETATM   12  C           1     -35.161  -4.849 -10.937  0.00  0.00     0.001 A 
HETATM   13  C           1     -33.857  -5.232 -11.251  0.00  0.00     0.000 A 
HETATM   14  C           1     -32.872  -4.263 -11.443  0.00  0.00     0.001 A 
HETATM   15  C           1     -33.191  -2.911 -11.321  0.00  0.00     0.007 A 
ENDBRANCH   9  10
ENDBRANCH   5   9
ENDBRANCH   3   5
BRANCH   4  16
HETATM   16  C           1     -35.770  -0.247 -14.062  0.00  0.00     0.278 C 
BRANCH  16  17
HETATM   17  C           1     -36.271   0.211 -15.426  0.00  0.00     0.017 C 
HETATM   18  C           1     -35.706   1.590 -15.740  0.00  0.00     0.012 C 
HETATM   19  C           1     -35.817  -0.779 -16.491  0.00  0.00     0.012 C 
ENDBRANCH  16  17
BRANCH  16  20
HETATM   20  N           1     -35.118  -1.590 -14.195  0.00  0.00    -0.066 N 
HETATM   21  H           1     -35.091  -1.867 -15.203  0.00  0.00     0.275 HD
HETATM   22  H           1     -34.143  -1.543 -13.822  0.00  0.00     0.275 HD
HETATM   23  H           1     -35.665  -2.298 -13.654  0.00  0.00     0.275 HD
ENDBRANCH  16  20
ENDBRANCH   4  16
TORSDOF 7
ENDMDL
MODEL 4
REMARK VINA RESULT:      -6.4      1.689      2.393
REMARK  7 active torsions:
REMARK  status: ('A' for Active; 'I' for Inactive)
REMARK    1  A    between atoms: C_7  and  C_10 
REMARK    2  A    between atoms: C_7  and  C_14 
REMARK    3  A    between atoms: C_7  and  N_22 
REMARK    4  A    between atoms: C_9  and  C_13 
REMARK    5  A    between atoms: C_11  and  C_14 
REMARK    6  A    between atoms: C_13  and  C_23 
REMARK    7  A    between atoms: C_13  and  N_19 
REMARK       I    between atoms: N_22  and  C_23 
ROOT
HETATM    1  H           1     -32.748  -2.494 -12.042  0.00  0.00     0.163 HD
HETATM    2  O           1     -34.393  -3.528 -14.099  0.00  0.00    -0.271 OA
HETATM    3  N           1     -33.741  -2.485 -12.235  0.00  0.00    -0.344 N 
HETATM    4  C           1     -34.320  -3.537 -12.893  0.00  0.00     0.249 C 
ENDROOT
BRANCH   3   5
HETATM    5  C           1     -34.553  -1.360 -11.813  0.00  0.00     0.189 C 
BRANCH   5   6
HETATM    6  C           1     -34.744  -1.410 -10.318  0.00  0.00     0.197 C 
HETATM    7  O           1     -33.814  -1.803  -9.581  0.00  0.00    -0.646 OA
HETATM    8  O           1     -35.833  -1.058  -9.814  0.00  0.00    -0.646 OA
ENDBRANCH   5   6
BRANCH   5   9
HETATM    9  C           1     -35.909  -1.426 -12.501  0.00  0.00     0.074 C 
BRANCH   9  10
HETATM   10  C           1     -35.958  -0.419 -13.608  0.00  0.00    -0.056 A 
HETATM   11  C           1     -34.912   0.489 -13.771  0.00  0.00     0.007 A 
HETATM   12  C           1     -34.958   1.428 -14.803  0.00  0.00     0.001 A 
HETATM   13  C           1     -36.050   1.457 -15.671  0.00  0.00     0.000 A 
HETATM   14  C           1     -37.095   0.548 -15.508  0.00  0.00     0.001 A 
HETATM   15  C           1     -37.049  -0.390 -14.477  0.00  0.00     0.007 A 
ENDBRANCH   9  10
ENDBRANCH   5   9
ENDBRANCH   3   5
BRANCH   4  16
HETATM   16  C           1     -34.865  -4.708 -12.112  0.00  0.00     0.278 C 
BRANCH  16  17
HETATM   17  C           1     -33.914  -5.043 -10.970  0.00  0.00     0.017 C 
HETATM   18  C           1     -34.459  -6.229 -10.184  0.00  0.00     0.012 C 
HETATM   19  C           1     -32.545  -5.397 -11.537  0.00  0.00     0.012 C 
ENDBRANCH  16  17
BRANCH  16  20
HETATM   20  N           1     -34.996  -5.895 -13.018  0.00  0.00    -0.066 N 
HETATM   21  H           1     -34.358  -5.780 -13.838  0.00  0.00     0.275 HD
HETATM   22  H           1     -34.736  -6.762 -12.494  0.00  0.00     0.275 HD
HETATM   23  H           1     -35.983  -5.972 -13.352  0.00  0.00     0.275 HD
ENDBRANCH  16  20
ENDBRANCH   4  16
TORSDOF 7
ENDMDL
MODEL 5
REMARK VINA RESULT:      -6.4     17.523     19.578
REMARK  7 active torsions:
REMARK  status: ('A' for Active; 'I' for Inactive)
REMARK    1  A    between atoms: C_7  and  C_10 
REMARK    2  A    between atoms: C_7  and  C_14 
REMARK    3  A    between atoms: C_7  and  N_22 
REMARK    4  A    between atoms: C_9  and  C_13 
REMARK    5  A    between atoms: C_11  and  C_14 
REMARK    6  A    between atoms: C_13  and  C_23 
REMARK    7  A    between atoms: C_13  and  N_19 
REMARK       I    between atoms: N_22  and  C_23 
ROOT
HETATM    1  H           1     -19.247  -7.114  -3.162  0.00  0.00     0.163 HD
HETATM    2  O           1     -19.587  -8.421  -5.649  0.00  0.00    -0.271 OA
HETATM    3  N           1     -19.891  -7.806  -3.524  0.00  0.00    -0.344 N 
HETATM    4  C           1     -19.476  -8.696  -4.478  0.00  0.00     0.249 C 
ENDROOT
BRANCH   3   5
HETATM    5  C           1     -21.254  -7.854  -3.032  0.00  0.00     0.189 C 
BRANCH   5   6
HETATM    6  C           1     -21.885  -6.490  -3.165  0.00  0.00     0.197 C 
HETATM    7  O           1     -22.353  -5.917  -2.158  0.00  0.00    -0.646 OA
HETATM    8  O           1     -21.939  -5.932  -4.283  0.00  0.00    -0.646 OA
ENDBRANCH   5   6
BRANCH   5   9
HETATM    9  C           1     -21.251  -8.272  -1.568  0.00  0.00     0.074 C 
BRANCH   9  10
HETATM   10  C           1     -22.197  -9.416  -1.372  0.00  0.00    -0.056 A 
HETATM   11  C           1     -22.258 -10.439  -2.318  0.00  0.00     0.007 A 
HETATM   12  C           1     -23.139 -11.506  -2.135  0.00  0.00     0.001 A 
HETATM   13  C           1     -23.958 -11.549  -1.007  0.00  0.00     0.000 A 
HETATM   14  C           1     -23.895 -10.525  -0.061  0.00  0.00     0.001 A 
HETATM   15  C           1     -23.015  -9.459  -0.244  0.00  0.00     0.007 A 
ENDBRANCH   9  10
ENDBRANCH   5   9
ENDBRANCH   3   5
BRANCH   4  16
HETATM   16  C           1     -18.880 -10.020  -4.066  0.00  0.00     0.278 C 
BRANCH  16  17
HETATM   17  C           1     -18.156  -9.858  -2.735  0.00  0.00     0.017 C 
HETATM   18  C           1     -18.391 -11.092  -1.874  0.00  0.00     0.012 C 
HETATM   19  C           1     -16.663  -9.691  -2.986  0.00  0.00     0.012 C 
ENDBRANCH  16  17
BRANCH  16  20
HETATM   20  N           1     -17.906 -10.475  -5.111  0.00  0.00    -0.066 N 
HETATM   21  H           1     -18.202 -10.112  -6.045  0.00  0.00     0.275 HD
HETATM   22  H           1     -16.954 -10.111  -4.881  0.00  0.00     0.275 HD
HETATM   23  H           1     -17.884 -11.520  -5.134  0.00  0.00     0.275 HD
ENDBRANCH  16  20
ENDBRANCH   4  16
TORSDOF 7
ENDMDL
MODEL 6
REMARK VINA RESULT:      -6.3     17.479     19.647
REMARK  7 active torsions:
REMARK  status: ('A' for Active; 'I' for Inactive)
REMARK    1  A    between atoms: C_7  and  C_10 
REMARK    2  A    between atoms: C_7  and  C_14 
REMARK    3  A    between atoms: C_7  and  N_22 
REMARK    4  A    between atoms: C_9  and  C_13 
REMARK    5  A    between atoms: C_11  and  C_14 
REMARK    6  A    between atoms: C_13  and  C_23 
REMARK    7  A    between atoms: C_13  and  N_19 
REMARK       I    between atoms: N_22  and  C_23 
ROOT
HETATM    1  H           1     -22.483  -8.222  -4.065  0.00  0.00     0.163 HD
HETATM    2  O           1     -22.187  -5.965  -2.384  0.00  0.00    -0.271 OA
HETATM    3  N           1     -21.696  -7.726  -3.667  0.00  0.00    -0.344 N 
HETATM    4  C           1     -21.818  -7.114  -2.448  0.00  0.00     0.249 C 
ENDROOT
BRANCH   3   5
HETATM    5  C           1     -20.439  -7.663  -4.386  0.00  0.00     0.189 C 
BRANCH   5   6
HETATM    6  C           1     -20.550  -6.656  -5.505  0.00  0.00     0.197 C 
HETATM    7  O           1     -20.752  -7.042  -6.676  0.00  0.00    -0.646 OA
HETATM    8  O           1     -20.440  -5.434  -5.259  0.00  0.00    -0.646 OA
ENDBRANCH   5   6
BRANCH   5   9
HETATM    9  C           1     -20.117  -9.033  -4.966  0.00  0.00     0.074 C 
BRANCH   9  10
HETATM   10  C           1     -18.663  -9.331  -4.768  0.00  0.00    -0.056 A 
HETATM   11  C           1     -18.115  -9.306  -3.486  0.00  0.00     0.007 A 
HETATM   12  C           1     -16.759  -9.584  -3.302  0.00  0.00     0.001 A 
HETATM   13  C           1     -15.954  -9.887  -4.400  0.00  0.00     0.000 A 
HETATM   14  C           1     -16.504  -9.913  -5.681  0.00  0.00     0.001 A 
HETATM   15  C           1     -17.857  -9.635  -5.866  0.00  0.00     0.007 A 
ENDBRANCH   9  10
ENDBRANCH   5   9
ENDBRANCH   3   5
BRANCH   4  16
HETATM   16  C           1     -21.492  -7.875  -1.186  0.00  0.00     0.278 C 
BRANCH  16  17
HETATM   17  C           1     -21.876  -9.339  -1.363  0.00  0.00     0.017 C 
HETATM   18  C           1     -20.669 -10.221  -1.072  0.00  0.00     0.012 C 
HETATM   19  C           1     -23.003  -9.687  -0.399  0.00  0.00     0.012 C 
ENDBRANCH  16  17
BRANCH  16  20
HETATM   20  N           1     -22.262  -7.292  -0.039  0.00  0.00    -0.066 N 
HETATM   21  H           1     -23.236  -7.073  -0.348  0.00  0.00     0.275 HD
HETATM   22  H           1     -22.294  -7.983   0.745  0.00  0.00     0.275 HD
HETATM   23  H           1     -21.794  -6.416   0.286  0.00  0.00     0.275 HD
ENDBRANCH  16  20
ENDBRANCH   4  16
TORSDOF 7
ENDMDL
MODEL 7
REMARK VINA RESULT:      -6.3     14.206     16.202
REMARK  7 active torsions:
REMARK  status: ('A' for Active; 'I' for Inactive)
REMARK    1  A    between atoms: C_7  and  C_10 
REMARK    2  A    between atoms: C_7  and  C_14 
REMARK    3  A    between atoms: C_7  and  N_22 
REMARK    4  A    between atoms: C_9  and  C_13 
REMARK    5  A    between atoms: C_11  and  C_14 
REMARK    6  A    between atoms: C_13  and  C_23 
REMARK    7  A    between atoms: C_13  and  N_19 
REMARK       I    between atoms: N_22  and  C_23 
ROOT
HETATM    1  H           1     -23.321  -5.494  -5.654  0.00  0.00     0.163 HD
HETATM    2  O           1     -21.229  -5.679  -3.757  0.00  0.00    -0.271 OA
HETATM    3  N           1     -22.346  -5.762  -5.689  0.00  0.00    -0.344 N 
HETATM    4  C           1     -21.760  -6.357  -4.604  0.00  0.00     0.249 C 
ENDROOT
BRANCH   3   5
HETATM    5  C           1     -21.569  -5.517  -6.889  0.00  0.00     0.189 C 
BRANCH   5   6
HETATM    6  C           1     -20.099  -5.578  -6.556  0.00  0.00     0.197 C 
HETATM    7  O           1     -19.448  -6.620  -6.785  0.00  0.00    -0.646 OA
HETATM    8  O           1     -19.530  -4.585  -6.051  0.00  0.00    -0.646 OA
ENDBRANCH   5   6
BRANCH   5   9
HETATM    9  C           1     -21.909  -4.140  -7.441  0.00  0.00     0.074 C 
BRANCH   9  10
HETATM   10  C           1     -21.851  -4.173  -8.937  0.00  0.00    -0.056 A 
HETATM   11  C           1     -23.017  -4.374  -9.675  0.00  0.00     0.007 A 
HETATM   12  C           1     -22.963  -4.404 -11.070  0.00  0.00     0.001 A 
HETATM   13  C           1     -21.743  -4.233 -11.724  0.00  0.00     0.000 A 
HETATM   14  C           1     -20.578  -4.031 -10.985  0.00  0.00     0.001 A 
HETATM   15  C           1     -20.631  -4.001  -9.592  0.00  0.00     0.007 A 
ENDBRANCH   9  10
ENDBRANCH   5   9
ENDBRANCH   3   5
BRANCH   4  16
HETATM   16  C           1     -21.777  -7.860  -4.467  0.00  0.00     0.278 C 
BRANCH  16  17
HETATM   17  C           1     -20.841  -8.278  -3.340  0.00  0.00     0.017 C 
HETATM   18  C           1     -21.531  -9.315  -2.463  0.00  0.00     0.012 C 
HETATM   19  C           1     -19.571  -8.877  -3.931  0.00  0.00     0.012 C 
ENDBRANCH  16  17
BRANCH  16  20
HETATM   20  N           1     -21.321  -8.483  -5.752  0.00  0.00    -0.066 N 
HETATM   21  H           1     -22.118  -8.513  -6.428  0.00  0.00     0.275 HD
HETATM   22  H           1     -20.543  -7.915  -6.157  0.00  0.00     0.275 HD
HETATM   23  H           1     -20.984  -9.455  -5.567  0.00  0.00     0.275 HD
ENDBRANCH  16  20
ENDBRANCH   4  16
TORSDOF 7
ENDMDL
MODEL 8
REMARK VINA RESULT:      -6.2     16.923     19.559
REMARK  7 active torsions:
REMARK  status: ('A' for Active; 'I' for Inactive)
REMARK    1  A    between atoms: C_7  and  C_10 
REMARK    2  A    between atoms: C_7  and  C_14 
REMARK    3  A    between atoms: C_7  and  N_22 
REMARK    4  A    between atoms: C_9  and  C_13 
REMARK    5  A    between atoms: C_11  and  C_14 
REMARK    6  A    between atoms: C_13  and  C_23 
REMARK    7  A    between atoms: C_13  and  N_19 
REMARK       I    between atoms: N_22  and  C_23 
ROOT
HETATM    1  H           1     -18.995  -7.499  -4.953  0.00  0.00     0.163 HD
HETATM    2  O           1     -19.514 -10.082  -5.987  0.00  0.00    -0.271 OA
HETATM    3  N           1     -19.653  -8.237  -4.736  0.00  0.00    -0.344 N 
HETATM    4  C           1     -19.300  -9.547  -4.926  0.00  0.00     0.249 C 
ENDROOT
BRANCH   3   5
HETATM    5  C           1     -20.969  -7.908  -4.224  0.00  0.00     0.189 C 
BRANCH   5   6
HETATM    6  C           1     -21.703  -7.060  -5.233  0.00  0.00     0.197 C 
HETATM    7  O           1     -22.674  -6.360  -4.874  0.00  0.00    -0.646 OA
HETATM    8  O           1     -21.339  -7.056  -6.430  0.00  0.00    -0.646 OA
ENDBRANCH   5   6
BRANCH   5   9
HETATM    9  C           1     -20.828  -7.138  -2.919  0.00  0.00     0.074 C 
BRANCH   9  10
HETATM   10  C           1     -21.602  -7.833  -1.842  0.00  0.00    -0.056 A 
HETATM   11  C           1     -22.254  -7.087  -0.861  0.00  0.00     0.007 A 
HETATM   12  C           1     -22.976  -7.734   0.143  0.00  0.00     0.001 A 
HETATM   13  C           1     -23.045  -9.127   0.164  0.00  0.00     0.000 A 
HETATM   14  C           1     -22.394  -9.873  -0.819  0.00  0.00     0.001 A 
HETATM   15  C           1     -21.672  -9.226  -1.821  0.00  0.00     0.007 A 
ENDBRANCH   9  10
ENDBRANCH   5   9
ENDBRANCH   3   5
BRANCH   4  16
HETATM   16  C           1     -18.644 -10.320  -3.808  0.00  0.00     0.278 C 
BRANCH  16  17
HETATM   17  C           1     -17.271  -9.727  -3.518  0.00  0.00     0.017 C 
HETATM   18  C           1     -16.657 -10.430  -2.315  0.00  0.00     0.012 C 
HETATM   19  C           1     -16.370  -9.917  -4.731  0.00  0.00     0.012 C 
ENDBRANCH  16  17
BRANCH  16  20
HETATM   20  N           1     -18.492 -11.755  -4.217  0.00  0.00    -0.066 N 
HETATM   21  H           1     -18.486 -12.361  -3.365  0.00  0.00     0.275 HD
HETATM   22  H           1     -19.291 -12.028  -4.832  0.00  0.00     0.275 HD
HETATM   23  H           1     -17.594 -11.875  -4.737  0.00  0.00     0.275 HD
ENDBRANCH  16  20
ENDBRANCH   4  16
TORSDOF 7
ENDMDL
MODEL 9
REMARK VINA RESULT:      -6.2      5.062      7.792
REMARK  7 active torsions:
REMARK  status: ('A' for Active; 'I' for Inactive)
REMARK    1  A    between atoms: C_7  and  C_10 
REMARK    2  A    between atoms: C_7  and  C_14 
REMARK    3  A    between atoms: C_7  and  N_22 
REMARK    4  A    between atoms: C_9  and  C_13 
REMARK    5  A    between atoms: C_11  and  C_14 
REMARK    6  A    between atoms: C_13  and  C_23 
REMARK    7  A    between atoms: C_13  and  N_19 
REMARK       I    between atoms: N_22  and  C_23 
ROOT
HETATM    1  H           1     -34.566  -5.154 -15.997  0.00  0.00     0.163 HD
HETATM    2  O           1     -34.599  -2.704 -14.580  0.00  0.00    -0.271 OA
HETATM    3  N           1     -33.860  -4.552 -15.593  0.00  0.00    -0.344 N 
HETATM    4  C           1     -34.144  -3.818 -14.473  0.00  0.00     0.249 C 
ENDROOT
BRANCH   3   5
HETATM    5  C           1     -32.546  -4.467 -16.201  0.00  0.00     0.189 C 
BRANCH   5   6
HETATM    6  C           1     -32.523  -3.329 -17.191  0.00  0.00     0.197 C 
HETATM    7  O           1     -33.593  -2.801 -17.561  0.00  0.00    -0.646 OA
HETATM    8  O           1     -31.432  -2.915 -17.642  0.00  0.00    -0.646 OA
ENDBRANCH   5   6
BRANCH   5   9
HETATM    9  C           1     -32.233  -5.773 -16.918  0.00  0.00     0.074 C 
BRANCH   9  10
HETATM   10  C           1     -30.760  -6.035 -16.860  0.00  0.00    -0.056 A 
HETATM   11  C           1     -30.066  -5.849 -15.665  0.00  0.00     0.007 A 
HETATM   12  C           1     -28.693  -6.094 -15.611  0.00  0.00     0.001 A 
HETATM   13  C           1     -28.016  -6.525 -16.751  0.00  0.00     0.000 A 
HETATM   14  C           1     -28.712  -6.712 -17.946  0.00  0.00     0.001 A 
HETATM   15  C           1     -30.083  -6.467 -18.001  0.00  0.00     0.007 A 
ENDBRANCH   9  10
ENDBRANCH   5   9
ENDBRANCH   3   5
BRANCH   4  16
HETATM   16  C           1     -33.890  -4.401 -13.105  0.00  0.00     0.278 C 
BRANCH  16  17
HETATM   17  C           1     -34.496  -3.491 -12.044  0.00  0.00     0.017 C 
HETATM   18  C           1     -35.351  -4.318 -11.092  0.00  0.00     0.012 C 
HETATM   19  C           1     -33.381  -2.810 -11.262  0.00  0.00     0.012 C 
ENDBRANCH  16  17
BRANCH  16  20
HETATM   20  N           1     -32.412  -4.516 -12.878  0.00  0.00    -0.066 N 
HETATM   21  H           1     -32.089  -5.469 -13.160  0.00  0.00     0.275 HD
HETATM   22  H           1     -31.915  -3.796 -13.452  0.00  0.00     0.275 HD
HETATM   23  H           1     -32.202  -4.362 -11.866  0.00  0.00     0.275 HD
ENDBRANCH  16  20
ENDBRANCH   4  16
TORSDOF 7
ENDMDL
