MODEL 1
REMARK VINA RESULT:      -6.6      0.000      0.000
REMARK  8 active torsions:
REMARK  status: ('A' for Active; 'I' for Inactive)
REMARK    1  A    between atoms: C_2  and  C_3 
REMARK    2  A    between atoms: C_2  and  C_14 
REMARK    3  A    between atoms: C_2  and  N_10 
REMARK       I    between atoms: C_3  and  N_4 
REMARK    4  A    between atoms: N_4  and  C_8 
REMARK    5  A    between atoms: C_7  and  C_8 
REMARK    6  A    between atoms: C_8  and  C_12 
REMARK    7  A    between atoms: C_12  and  C_20 
REMARK    8  A    between atoms: C_14  and  C_16 
ROOT
HETATM    1  C           1     -34.547  -2.442 -12.577  0.00  0.00     0.249 C 
HETATM    2  N           1     -35.175  -1.235 -12.420  0.00  0.00    -0.344 N 
HETATM    3  H           1     -35.149  -0.764 -11.524  0.00  0.00     0.163 HD
HETATM    4  O           1     -34.577  -3.003 -13.646  0.00  0.00    -0.271 OA
ENDROOT
BRANCH   1   5
HETATM    5  C           1     -33.820  -3.071 -11.414  0.00  0.00     0.275 C 
BRANCH   5   6
HETATM    6  C           1     -34.714  -4.117 -10.762  0.00  0.00     0.046 C 
BRANCH   6   7
HETATM    7  C           1     -34.268  -5.508 -11.193  0.00  0.00    -0.020 C 
HETATM    8  C           1     -34.602  -6.510 -10.096  0.00  0.00     0.009 C 
HETATM    9  C           1     -32.766  -5.507 -11.440  0.00  0.00     0.009 C 
ENDBRANCH   6   7
ENDBRANCH   5   6
BRANCH   5  10
HETATM   10  N           1     -33.474  -2.012 -10.409  0.00  0.00    -0.066 N 
HETATM   11  H           1     -32.565  -1.568 -10.671  0.00  0.00     0.275 HD
HETATM   12  H           1     -33.390  -2.446  -9.461  0.00  0.00     0.275 HD
HETATM   13  H           1     -34.226  -1.288 -10.395  0.00  0.00     0.275 HD
ENDBRANCH   5  10
ENDBRANCH   1   5
BRANCH   2  14
HETATM   14  C           1     -35.874  -0.630 -13.537  0.00  0.00     0.195 C 
BRANCH  14  15
HETATM   15  C           1     -34.977   0.385 -14.201  0.00  0.00     0.197 C 
HETATM   16  O           1     -34.567   0.190 -15.367  0.00  0.00    -0.646 OA
HETATM   17  O           1     -34.644   1.422 -13.588  0.00  0.00    -0.646 OA
ENDBRANCH  14  15
BRANCH  14  18
HETATM   18  C           1     -37.135   0.059 -13.033  0.00  0.00     0.149 C 
BRANCH  18  19
HETATM   19  C           1     -37.254  -0.135 -11.541  0.00  0.00     0.175 C 
HETATM   20  O           1     -36.557   0.554 -10.764  0.00  0.00    -0.648 OA
HETATM   21  O           1     -38.048  -0.984 -11.083  0.00  0.00    -0.648 OA
ENDBRANCH  18  19
ENDBRANCH  14  18
ENDBRANCH   2  14
TORSDOF 8
ENDMDL
MODEL 2
REMARK VINA RESULT:      -6.3      2.090      3.374
REMARK  8 active torsions:
REMARK  status: ('A' for Active; 'I' for Inactive)
REMARK    1  A    between atoms: C_2  and  C_3 
REMARK    2  A    between atoms: C_2  and  C_14 
REMARK    3  A    between atoms: C_2  and  N_10 
REMARK       I    between atoms: C_3  and  N_4 
REMARK    4  A    between atoms: N_4  and  C_8 
REMARK    5  A    between atoms: C_7  and  C_8 
REMARK    6  A    between atoms: C_8  and  C_12 
REMARK    7  A    between atoms: C_12  and  C_20 
REMARK    8  A    between atoms: C_14  and  C_16 
ROOT
HETATM    1  C           1     -35.614  -1.234 -12.858  0.00  0.00     0.249 C 
HETATM    2  N           1     -35.010  -0.844 -14.023  0.00  0.00    -0.344 N 
HETATM    3  H           1     -34.010  -0.955 -14.137  0.00  0.00     0.163 HD
HETATM    4  O           1     -36.807  -1.102 -12.723  0.00  0.00    -0.271 OA
ENDROOT
BRANCH   1   5
HETATM    5  C           1     -34.789  -1.826 -11.741  0.00  0.00     0.275 C 
BRANCH   5   6
HETATM    6  C           1     -35.017  -3.331 -11.684  0.00  0.00     0.046 C 
BRANCH   6   7
HETATM    7  C           1     -33.854  -3.995 -10.959  0.00  0.00    -0.020 C 
HETATM    8  C           1     -32.656  -4.081 -11.896  0.00  0.00     0.009 C 
HETATM    9  C           1     -34.259  -5.396 -10.523  0.00  0.00     0.009 C 
ENDBRANCH   6   7
ENDBRANCH   5   6
BRANCH   5  10
HETATM   10  N           1     -35.198  -1.209 -10.437  0.00  0.00    -0.066 N 
HETATM   11  H           1     -34.350  -0.853  -9.940  0.00  0.00     0.275 HD
HETATM   12  H           1     -35.673  -1.928  -9.845  0.00  0.00     0.275 HD
HETATM   13  H           1     -35.855  -0.418 -10.618  0.00  0.00     0.275 HD
ENDBRANCH   5  10
ENDBRANCH   1   5
BRANCH   2  14
HETATM   14  C           1     -35.802  -0.275 -15.096  0.00  0.00     0.195 C 
BRANCH  14  15
HETATM   15  C           1     -35.598  -1.082 -16.354  0.00  0.00     0.197 C 
HETATM   16  O           1     -36.482  -1.097 -17.238  0.00  0.00    -0.646 OA
HETATM   17  O           1     -34.544  -1.735 -16.515  0.00  0.00    -0.646 OA
ENDBRANCH  14  15
BRANCH  14  18
HETATM   18  C           1     -35.368   1.164 -15.339  0.00  0.00     0.149 C 
BRANCH  18  19
HETATM   19  C           1     -36.461   1.904 -16.071  0.00  0.00     0.175 C 
HETATM   20  O           1     -37.643   1.502 -15.999  0.00  0.00    -0.648 OA
HETATM   21  O           1     -36.185   2.917 -16.748  0.00  0.00    -0.648 OA
ENDBRANCH  18  19
ENDBRANCH  14  18
ENDBRANCH   2  14
TORSDOF 8
ENDMDL
MODEL 3
REMARK VINA RESULT:      -6.1     12.518     14.501
REMARK  8 active torsions:
REMARK  status: ('A' for Active; 'I' for Inactive)
REMARK    1  A    between atoms: C_2  and  C_3 
REMARK    2  A    between atoms: C_2  and  C_14 
REMARK    3  A    between atoms: C_2  and  N_10 
REMARK       I    between atoms: C_3  and  N_4 
REMARK    4  A    between atoms: N_4  and  C_8 
REMARK    5  A    between atoms: C_7  and  C_8 
REMARK    6  A    between atoms: C_8  and  C_12 
REMARK    7  A    between atoms: C_12  and  C_20 
REMARK    8  A    between atoms: C_14  and  C_16 
ROOT
HETATM    1  C           1     -21.690  -4.669  -7.683  0.00  0.00     0.249 C 
HETATM    2  N           1     -22.255  -4.866  -8.916  0.00  0.00    -0.344 N 
HETATM    3  H           1     -22.298  -5.797  -9.309  0.00  0.00     0.163 HD
HETATM    4  O           1     -21.639  -3.558  -7.214  0.00  0.00    -0.271 OA
ENDROOT
BRANCH   1   5
HETATM    5  C           1     -21.131  -5.841  -6.914  0.00  0.00     0.275 C 
BRANCH   5   6
HETATM    6  C           1     -20.977  -5.458  -5.448  0.00  0.00     0.046 C 
BRANCH   6   7
HETATM    7  C           1     -21.826  -6.384  -4.588  0.00  0.00    -0.020 C 
HETATM    8  C           1     -21.461  -6.191  -3.122  0.00  0.00     0.009 C 
HETATM    9  C           1     -21.569  -7.830  -4.989  0.00  0.00     0.009 C 
ENDBRANCH   6   7
ENDBRANCH   5   6
BRANCH   5  10
HETATM   10  N           1     -19.792  -6.215  -7.476  0.00  0.00    -0.066 N 
HETATM   11  H           1     -19.924  -6.866  -8.283  0.00  0.00     0.275 HD
HETATM   12  H           1     -19.223  -6.687  -6.737  0.00  0.00     0.275 HD
HETATM   13  H           1     -19.298  -5.354  -7.799  0.00  0.00     0.275 HD
ENDBRANCH   5  10
ENDBRANCH   1   5
BRANCH   2  14
HETATM   14  C           1     -22.792  -3.740  -9.655  0.00  0.00     0.195 C 
BRANCH  14  15
HETATM   15  C           1     -24.298  -3.822  -9.672  0.00  0.00     0.197 C 
HETATM   16  O           1     -24.863  -4.922  -9.861  0.00  0.00    -0.646 OA
HETATM   17  O           1     -24.983  -2.791  -9.495  0.00  0.00    -0.646 OA
ENDBRANCH  14  15
BRANCH  14  18
HETATM   18  C           1     -22.265  -3.774 -11.084  0.00  0.00     0.149 C 
BRANCH  18  19
HETATM   19  C           1     -20.760  -3.661 -11.069  0.00  0.00     0.175 C 
HETATM   20  O           1     -20.215  -2.559 -11.296  0.00  0.00    -0.648 OA
HETATM   21  O           1     -20.060  -4.668 -10.829  0.00  0.00    -0.648 OA
ENDBRANCH  18  19
ENDBRANCH  14  18
ENDBRANCH   2  14
TORSDOF 8
ENDMDL
MODEL 4
REMARK VINA RESULT:      -5.9     12.056     13.878
REMARK  8 active torsions:
REMARK  status: ('A' for Active; 'I' for Inactive)
REMARK    1  A    between atoms: C_2  and  C_3 
REMARK    2  A    between atoms: C_2  and  C_14 
REMARK    3  A    between atoms: C_2  and  N_10 
REMARK       I    between atoms: C_3  and  N_4 
REMARK    4  A    between atoms: N_4  and  C_8 
REMARK    5  A    between atoms: C_7  and  C_8 
REMARK    6  A    between atoms: C_8  and  C_12 
REMARK    7  A    between atoms: C_12  and  C_20 
REMARK    8  A    between atoms: C_14  and  C_16 
ROOT
HETATM    1  C           1     -21.381  -4.509  -8.398  0.00  0.00     0.249 C 
HETATM    2  N           1     -22.235  -4.047  -9.364  0.00  0.00    -0.344 N 
HETATM    3  H           1     -23.046  -3.501  -9.103  0.00  0.00     0.163 HD
HETATM    4  O           1     -20.413  -5.161  -8.709  0.00  0.00    -0.271 OA
ENDROOT
BRANCH   1   5
HETATM    5  C           1     -21.650  -4.205  -6.944  0.00  0.00     0.275 C 
BRANCH   5   6
HETATM    6  C           1     -20.743  -5.060  -6.070  0.00  0.00     0.046 C 
BRANCH   6   7
HETATM    7  C           1     -21.579  -6.096  -5.330  0.00  0.00    -0.020 C 
HETATM    8  C           1     -21.288  -6.009  -3.838  0.00  0.00     0.009 C 
HETATM    9  C           1     -21.227  -7.489  -5.836  0.00  0.00     0.009 C 
ENDBRANCH   6   7
ENDBRANCH   5   6
BRANCH   5  10
HETATM   10  N           1     -23.084  -4.511  -6.628  0.00  0.00    -0.066 N 
HETATM   11  H           1     -23.421  -5.279  -7.251  0.00  0.00     0.275 HD
HETATM   12  H           1     -23.665  -3.656  -6.782  0.00  0.00     0.275 HD
HETATM   13  H           1     -23.163  -4.810  -5.630  0.00  0.00     0.275 HD
ENDBRANCH   5  10
ENDBRANCH   1   5
BRANCH   2  14
HETATM   14  C           1     -21.976  -4.339 -10.760  0.00  0.00     0.195 C 
BRANCH  14  15
HETATM   15  C           1     -21.375  -3.126 -11.425  0.00  0.00     0.197 C 
HETATM   16  O           1     -22.073  -2.418 -12.183  0.00  0.00    -0.646 OA
HETATM   17  O           1     -20.178  -2.828 -11.217  0.00  0.00    -0.646 OA
ENDBRANCH  14  15
BRANCH  14  18
HETATM   18  C           1     -23.283  -4.703 -11.453  0.00  0.00     0.149 C 
BRANCH  18  19
HETATM   19  C           1     -24.446  -4.233 -10.614  0.00  0.00     0.175 C 
HETATM   20  O           1     -24.884  -4.956  -9.693  0.00  0.00    -0.648 OA
HETATM   21  O           1     -24.971  -3.122 -10.840  0.00  0.00    -0.648 OA
ENDBRANCH  18  19
ENDBRANCH  14  18
ENDBRANCH   2  14
TORSDOF 8
ENDMDL
MODEL 5
REMARK VINA RESULT:      -5.7     11.842     13.824
REMARK  8 active torsions:
REMARK  status: ('A' for Active; 'I' for Inactive)
REMARK    1  A    between atoms: C_2  and  C_3 
REMARK    2  A    between atoms: C_2  and  C_14 
REMARK    3  A    between atoms: C_2  and  N_10 
REMARK       I    between atoms: C_3  and  N_4 
REMARK    4  A    between atoms: N_4  and  C_8 
REMARK    5  A    between atoms: C_7  and  C_8 
REMARK    6  A    between atoms: C_8  and  C_12 
REMARK    7  A    between atoms: C_12  and  C_20 
REMARK    8  A    between atoms: C_14  and  C_16 
ROOT
HETATM    1  C           1     -21.644  -4.490  -8.152  0.00  0.00     0.249 C 
HETATM    2  N           1     -22.226  -4.922  -9.314  0.00  0.00    -0.344 N 
HETATM    3  H           1     -22.181  -5.900  -9.569  0.00  0.00     0.163 HD
HETATM    4  O           1     -21.698  -3.322  -7.848  0.00  0.00    -0.271 OA
ENDROOT
BRANCH   1   5
HETATM    5  C           1     -20.934  -5.472  -7.253  0.00  0.00     0.275 C 
BRANCH   5   6
HETATM    6  C           1     -21.446  -5.317  -5.827  0.00  0.00     0.046 C 
BRANCH   6   7
HETATM    7  C           1     -20.905  -6.450  -4.965  0.00  0.00    -0.020 C 
HETATM    8  C           1     -21.415  -7.781  -5.501  0.00  0.00     0.009 C 
HETATM    9  C           1     -21.374  -6.267  -3.529  0.00  0.00     0.009 C 
ENDBRANCH   6   7
ENDBRANCH   5   6
BRANCH   5  10
HETATM   10  N           1     -19.459  -5.204  -7.286  0.00  0.00    -0.066 N 
HETATM   11  H           1     -19.238  -4.397  -6.661  0.00  0.00     0.275 HD
HETATM   12  H           1     -19.169  -4.976  -8.265  0.00  0.00     0.275 HD
HETATM   13  H           1     -18.944  -6.051  -6.960  0.00  0.00     0.275 HD
ENDBRANCH   5  10
ENDBRANCH   1   5
BRANCH   2  14
HETATM   14  C           1     -22.908  -3.979 -10.178  0.00  0.00     0.195 C 
BRANCH  14  15
HETATM   15  C           1     -24.368  -3.921  -9.807  0.00  0.00     0.197 C 
HETATM   16  O           1     -24.893  -2.829  -9.499  0.00  0.00    -0.646 OA
HETATM   17  O           1     -25.056  -4.966  -9.808  0.00  0.00    -0.646 OA
ENDBRANCH  14  15
BRANCH  14  18
HETATM   18  C           1     -22.769  -4.427 -11.627  0.00  0.00     0.149 C 
BRANCH  18  19
HETATM   19  C           1     -23.399  -3.399 -12.535  0.00  0.00     0.175 C 
HETATM   20  O           1     -23.025  -2.207 -12.484  0.00  0.00    -0.648 OA
HETATM   21  O           1     -24.294  -3.739 -13.337  0.00  0.00    -0.648 OA
ENDBRANCH  18  19
ENDBRANCH  14  18
ENDBRANCH   2  14
TORSDOF 8
ENDMDL
MODEL 6
REMARK VINA RESULT:      -5.6     11.946     13.970
REMARK  8 active torsions:
REMARK  status: ('A' for Active; 'I' for Inactive)
REMARK    1  A    between atoms: C_2  and  C_3 
REMARK    2  A    between atoms: C_2  and  C_14 
REMARK    3  A    between atoms: C_2  and  N_10 
REMARK       I    between atoms: C_3  and  N_4 
REMARK    4  A    between atoms: N_4  and  C_8 
REMARK    5  A    between atoms: C_7  and  C_8 
REMARK    6  A    between atoms: C_8  and  C_12 
REMARK    7  A    between atoms: C_12  and  C_20 
REMARK    8  A    between atoms: C_14  and  C_16 
ROOT
HETATM    1  C           1     -22.404  -4.070  -7.850  0.00  0.00     0.249 C 
HETATM    2  N           1     -23.286  -4.331  -8.864  0.00  0.00    -0.344 N 
HETATM    3  H           1     -23.986  -5.053  -8.753  0.00  0.00     0.163 HD
HETATM    4  O           1     -21.568  -3.208  -7.983  0.00  0.00    -0.271 OA
ENDROOT
BRANCH   1   5
HETATM    5  C           1     -22.474  -4.862  -6.567  0.00  0.00     0.275 C 
BRANCH   5   6
HETATM    6  C           1     -21.734  -6.181  -6.743  0.00  0.00     0.046 C 
BRANCH   6   7
HETATM    7  C           1     -20.337  -6.065  -6.148  0.00  0.00    -0.020 C 
HETATM    8  C           1     -20.318  -4.946  -5.115  0.00  0.00     0.009 C 
HETATM    9  C           1     -19.337  -5.753  -7.253  0.00  0.00     0.009 C 
ENDBRANCH   6   7
ENDBRANCH   5   6
BRANCH   5  10
HETATM   10  N           1     -23.909  -5.135  -6.226  0.00  0.00    -0.066 N 
HETATM   11  H           1     -23.954  -5.774  -5.401  0.00  0.00     0.275 HD
HETATM   12  H           1     -24.381  -5.586  -7.043  0.00  0.00     0.275 HD
HETATM   13  H           1     -24.389  -4.236  -5.999  0.00  0.00     0.275 HD
ENDBRANCH   5  10
ENDBRANCH   1   5
BRANCH   2  14
HETATM   14  C           1     -23.219  -3.571 -10.097  0.00  0.00     0.195 C 
BRANCH  14  15
HETATM   15  C           1     -24.616  -3.298 -10.597  0.00  0.00     0.197 C 
HETATM   16  O           1     -25.565  -3.213  -9.786  0.00  0.00    -0.646 OA
HETATM   17  O           1     -24.826  -3.156 -11.821  0.00  0.00    -0.646 OA
ENDBRANCH  14  15
BRANCH  14  18
HETATM   18  C           1     -22.451  -4.368 -11.143  0.00  0.00     0.149 C 
BRANCH  18  19
HETATM   19  C           1     -21.061  -3.801 -11.289  0.00  0.00     0.175 C 
HETATM   20  O           1     -20.069  -4.560 -11.245  0.00  0.00    -0.648 OA
HETATM   21  O           1     -20.901  -2.572 -11.453  0.00  0.00    -0.648 OA
ENDBRANCH  18  19
ENDBRANCH  14  18
ENDBRANCH   2  14
TORSDOF 8
ENDMDL
MODEL 7
REMARK VINA RESULT:      -5.5     25.262     26.720
REMARK  8 active torsions:
REMARK  status: ('A' for Active; 'I' for Inactive)
REMARK    1  A    between atoms: C_2  and  C_3 
REMARK    2  A    between atoms: C_2  and  C_14 
REMARK    3  A    between atoms: C_2  and  N_10 
REMARK       I    between atoms: C_3  and  N_4 
REMARK    4  A    between atoms: N_4  and  C_8 
REMARK    5  A    between atoms: C_7  and  C_8 
REMARK    6  A    between atoms: C_8  and  C_12 
REMARK    7  A    between atoms: C_12  and  C_20 
REMARK    8  A    between atoms: C_14  and  C_16 
ROOT
HETATM    1  C           1     -11.519   6.079 -19.989  0.00  0.00     0.249 C 
HETATM    2  N           1     -11.322   7.277 -20.623  0.00  0.00    -0.344 N 
HETATM    3  H           1     -10.450   7.459 -21.103  0.00  0.00     0.163 HD
HETATM    4  O           1     -12.560   5.863 -19.416  0.00  0.00    -0.271 OA
ENDROOT
BRANCH   1   5
HETATM    5  C           1     -10.434   5.030 -20.005  0.00  0.00     0.275 C 
BRANCH   5   6
HETATM    6  C           1     -11.046   3.662 -19.738  0.00  0.00     0.046 C 
BRANCH   6   7
HETATM    7  C           1     -11.310   2.955 -21.060  0.00  0.00    -0.020 C 
HETATM    8  C           1     -10.742   3.788 -22.201  0.00  0.00     0.009 C 
HETATM    9  C           1     -12.811   2.783 -21.255  0.00  0.00     0.009 C 
ENDBRANCH   6   7
ENDBRANCH   5   6
BRANCH   5  10
HETATM   10  N           1      -9.423   5.342 -18.942  0.00  0.00    -0.066 N 
HETATM   11  H           1      -9.263   4.493 -18.354  0.00  0.00     0.275 HD
HETATM   12  H           1      -9.778   6.120 -18.340  0.00  0.00     0.275 HD
HETATM   13  H           1      -8.525   5.631 -19.389  0.00  0.00     0.275 HD
ENDBRANCH   5  10
ENDBRANCH   1   5
BRANCH   2  14
HETATM   14  C           1     -12.365   8.285 -20.608  0.00  0.00     0.195 C 
BRANCH  14  15
HETATM   15  C           1     -12.735   8.647 -22.025  0.00  0.00     0.197 C 
HETATM   16  O           1     -12.005   9.418 -22.685  0.00  0.00    -0.646 OA
HETATM   17  O           1     -13.771   8.174 -22.541  0.00  0.00    -0.646 OA
ENDBRANCH  14  15
BRANCH  14  18
HETATM   18  C           1     -11.860   9.525 -19.882  0.00  0.00     0.149 C 
BRANCH  18  19
HETATM   19  C           1     -10.412   9.335 -19.505  0.00  0.00     0.175 C 
HETATM   20  O           1      -9.510   9.649 -20.312  0.00  0.00    -0.648 OA
HETATM   21  O           1     -10.114   8.864 -18.387  0.00  0.00    -0.648 OA
ENDBRANCH  18  19
ENDBRANCH  14  18
ENDBRANCH   2  14
TORSDOF 8
ENDMDL
MODEL 8
REMARK VINA RESULT:      -5.3     14.471     16.992
REMARK  8 active torsions:
REMARK  status: ('A' for Active; 'I' for Inactive)
REMARK    1  A    between atoms: C_2  and  C_3 
REMARK    2  A    between atoms: C_2  and  C_14 
REMARK    3  A    between atoms: C_2  and  N_10 
REMARK       I    between atoms: C_3  and  N_4 
REMARK    4  A    between atoms: N_4  and  C_8 
REMARK    5  A    between atoms: C_7  and  C_8 
REMARK    6  A    between atoms: C_8  and  C_12 
REMARK    7  A    between atoms: C_12  and  C_20 
REMARK    8  A    between atoms: C_14  and  C_16 
ROOT
HETATM    1  C           1     -21.719  -5.781  -5.515  0.00  0.00     0.249 C 
HETATM    2  N           1     -20.936  -6.538  -4.684  0.00  0.00    -0.344 N 
HETATM    3  H           1     -19.930  -6.437  -4.706  0.00  0.00     0.163 HD
HETATM    4  O           1     -22.920  -5.902  -5.488  0.00  0.00    -0.271 OA
ENDROOT
BRANCH   1   5
HETATM    5  C           1     -21.080  -4.799  -6.466  0.00  0.00     0.275 C 
BRANCH   5   6
HETATM    6  C           1     -21.339  -5.239  -7.901  0.00  0.00     0.046 C 
BRANCH   6   7
HETATM    7  C           1     -21.761  -4.036  -8.734  0.00  0.00    -0.020 C 
HETATM    8  C           1     -23.275  -4.037  -8.893  0.00  0.00     0.009 C 
HETATM    9  C           1     -21.106  -4.112 -10.106  0.00  0.00     0.009 C 
ENDBRANCH   6   7
ENDBRANCH   5   6
BRANCH   5  10
HETATM   10  N           1     -19.602  -4.752  -6.217  0.00  0.00    -0.066 N 
HETATM   11  H           1     -19.379  -5.285  -5.346  0.00  0.00     0.275 HD
HETATM   12  H           1     -19.299  -3.758  -6.104  0.00  0.00     0.275 HD
HETATM   13  H           1     -19.099  -5.179  -7.026  0.00  0.00     0.275 HD
ENDBRANCH   5  10
ENDBRANCH   1   5
BRANCH   2  14
HETATM   14  C           1     -21.550  -7.482  -3.770  0.00  0.00     0.195 C 
BRANCH  14  15
HETATM   15  C           1     -21.584  -6.890  -2.383  0.00  0.00     0.197 C 
HETATM   16  O           1     -22.300  -5.893  -2.146  0.00  0.00    -0.646 OA
HETATM   17  O           1     -20.896  -7.397  -1.470  0.00  0.00    -0.646 OA
ENDBRANCH  14  15
BRANCH  14  18
HETATM   18  C           1     -20.740  -8.771  -3.753  0.00  0.00     0.149 C 
BRANCH  18  19
HETATM   19  C           1     -20.293  -9.104  -5.156  0.00  0.00     0.175 C 
HETATM   20  O           1     -19.107  -8.906  -5.497  0.00  0.00    -0.648 OA
HETATM   21  O           1     -21.109  -9.578  -5.975  0.00  0.00    -0.648 OA
ENDBRANCH  18  19
ENDBRANCH  14  18
ENDBRANCH   2  14
TORSDOF 8
ENDMDL
MODEL 9
REMARK VINA RESULT:      -5.2     15.970     17.918
REMARK  8 active torsions:
REMARK  status: ('A' for Active; 'I' for Inactive)
REMARK    1  A    between atoms: C_2  and  C_3 
REMARK    2  A    between atoms: C_2  and  C_14 
REMARK    3  A    between atoms: C_2  and  N_10 
REMARK       I    between atoms: C_3  and  N_4 
REMARK    4  A    between atoms: N_4  and  C_8 
REMARK    5  A    between atoms: C_7  and  C_8 
REMARK    6  A    between atoms: C_8  and  C_12 
REMARK    7  A    between atoms: C_12  and  C_20 
REMARK    8  A    between atoms: C_14  and  C_16 
ROOT
HETATM    1  C           1     -20.826  -7.498  -4.387  0.00  0.00     0.249 C 
HETATM    2  N           1     -21.512  -7.863  -3.260  0.00  0.00    -0.344 N 
HETATM    3  H           1     -22.449  -7.515  -3.104  0.00  0.00     0.163 HD
HETATM    4  O           1     -19.707  -7.914  -4.574  0.00  0.00    -0.271 OA
ENDROOT
BRANCH   1   5
HETATM    5  C           1     -21.465  -6.575  -5.395  0.00  0.00     0.275 C 
BRANCH   5   6
HETATM    6  C           1     -20.627  -5.311  -5.531  0.00  0.00     0.046 C 
BRANCH   6   7
HETATM    7  C           1     -20.559  -4.900  -6.995  0.00  0.00    -0.020 C 
HETATM    8  C           1     -19.114  -4.601  -7.371  0.00  0.00     0.009 C 
HETATM    9  C           1     -21.408  -3.656  -7.215  0.00  0.00     0.009 C 
ENDBRANCH   6   7
ENDBRANCH   5   6
BRANCH   5  10
HETATM   10  N           1     -22.846  -6.212  -4.934  0.00  0.00    -0.066 N 
HETATM   11  H           1     -22.823  -5.275  -4.473  0.00  0.00     0.275 HD
HETATM   12  H           1     -23.185  -6.929  -4.252  0.00  0.00     0.275 HD
HETATM   13  H           1     -23.490  -6.182  -5.755  0.00  0.00     0.275 HD
ENDBRANCH   5  10
ENDBRANCH   1   5
BRANCH   2  14
HETATM   14  C           1     -20.898  -8.750  -2.292  0.00  0.00     0.195 C 
BRANCH  14  15
HETATM   15  C           1     -21.675 -10.041  -2.228  0.00  0.00     0.197 C 
HETATM   16  O           1     -21.563 -10.790  -1.232  0.00  0.00    -0.646 OA
HETATM   17  O           1     -22.433 -10.363  -3.169  0.00  0.00    -0.646 OA
ENDBRANCH  14  15
BRANCH  14  18
HETATM   18  C           1     -20.902  -8.086  -0.921  0.00  0.00     0.149 C 
BRANCH  18  19
HETATM   19  C           1     -22.252  -7.462  -0.668  0.00  0.00     0.175 C 
HETATM   20  O           1     -22.527  -6.347  -1.161  0.00  0.00    -0.648 OA
HETATM   21  O           1     -23.095  -8.059   0.035  0.00  0.00    -0.648 OA
ENDBRANCH  18  19
ENDBRANCH  14  18
ENDBRANCH   2  14
TORSDOF 8
ENDMDL
