MODEL 1
REMARK VINA RESULT:      -5.9      0.000      0.000
REMARK  9 active torsions:
REMARK  status: ('A' for Active; 'I' for Inactive)
REMARK    1  A    between atoms: Se_7  and  C_8 
REMARK    2  A    between atoms: C_8  and  C_9 
REMARK    3  A    between atoms: C_9  and  C_10 
REMARK    4  A    between atoms: C_10  and  C_11 
REMARK    5  A    between atoms: C_10  and  N_23 
REMARK    6  A    between atoms: N_16  and  C_21 
REMARK       I    between atoms: N_18  and  C_19 
REMARK    7  A    between atoms: C_19  and  C_20 
REMARK    8  A    between atoms: C_20  and  C_21 
REMARK    9  A    between atoms: C_21  and  C_22 
REMARK       I    between atoms: C_22  and  N_23 
ROOT
HETATM    1  H           1     -34.720  -0.903 -11.294  0.00  0.00     0.163 HD
HETATM    2  O           1     -34.437  -3.112 -13.503  0.00  0.00    -0.271 OA
HETATM    3  C           1     -34.241  -2.550 -12.453  0.00  0.00     0.249 C 
HETATM    4  N           1     -34.885  -1.374 -12.174  0.00  0.00    -0.345 N 
ENDROOT
BRANCH   3   5
HETATM    5  C           1     -33.283  -3.142 -11.447  0.00  0.00     0.283 C 
BRANCH   5   6
HETATM    6  N           1     -33.959  -3.237 -10.111  0.00  0.00    -0.066 N 
HETATM    7  H           1     -33.841  -2.335  -9.596  0.00  0.00     0.275 HD
HETATM    8  H           1     -34.978  -3.427 -10.249  0.00  0.00     0.275 HD
HETATM    9  H           1     -33.530  -4.013  -9.557  0.00  0.00     0.275 HD
ENDBRANCH   5   6
BRANCH   5  10
HETATM   10  C           1     -32.865  -4.534 -11.903  0.00  0.00     0.145 C 
BRANCH  10  11
HETATM   11  C           1     -33.931  -5.531 -11.521  0.00  0.00     0.217 C 
HETATM   12  O           1     -33.948  -6.000 -10.407  0.00  0.00    -0.274 OA
HETATM   13  N           1     -34.877  -5.906 -12.436  0.00  0.00    -0.370 N 
HETATM   14  H           1     -35.591  -6.577 -12.180  0.00  0.00     0.159 HD
HETATM   15  H           1     -34.862  -5.515 -13.369  0.00  0.00     0.159 HD
ENDBRANCH  10  11
ENDBRANCH   5  10
ENDBRANCH   3   5
BRANCH   4  16
HETATM   16  C           1     -35.804  -0.805 -13.140  0.00  0.00     0.185 C 
BRANCH  16  17
HETATM   17  C           1     -36.945  -0.111 -12.406  0.00  0.00     0.036 C 
BRANCH  17  18
HETATM   18  C           1     -37.025  -0.637 -10.979  0.00  0.00     0.003 C 
BRANCH  18  19
HETATM   19 Se           1     -37.210   0.858  -9.743  0.00  0.00     0.000 Se
HETATM   20  C           1     -37.497  -0.262  -8.174  0.00  0.00     0.000 C 
ENDBRANCH  18  19
ENDBRANCH  17  18
ENDBRANCH  16  17
BRANCH  16  21
HETATM   21  C           1     -35.073   0.198 -13.997  0.00  0.00     0.196 C 
HETATM   22  O           1     -34.703   1.288 -13.508  0.00  0.00    -0.646 OA
HETATM   23  O           1     -34.835  -0.060 -15.197  0.00  0.00    -0.646 OA
ENDBRANCH  16  21
ENDBRANCH   4  16
TORSDOF 9
ENDMDL
MODEL 2
REMARK VINA RESULT:      -5.9     12.161     14.049
REMARK  9 active torsions:
REMARK  status: ('A' for Active; 'I' for Inactive)
REMARK    1  A    between atoms: Se_7  and  C_8 
REMARK    2  A    between atoms: C_8  and  C_9 
REMARK    3  A    between atoms: C_9  and  C_10 
REMARK    4  A    between atoms: C_10  and  C_11 
REMARK    5  A    between atoms: C_10  and  N_23 
REMARK    6  A    between atoms: N_16  and  C_21 
REMARK       I    between atoms: N_18  and  C_19 
REMARK    7  A    between atoms: C_19  and  C_20 
REMARK    8  A    between atoms: C_20  and  C_21 
REMARK    9  A    between atoms: C_21  and  C_22 
REMARK       I    between atoms: C_22  and  N_23 
ROOT
HETATM    1  H           1     -22.220  -5.739  -8.948  0.00  0.00     0.163 HD
HETATM    2  O           1     -21.532  -3.204  -7.232  0.00  0.00    -0.271 OA
HETATM    3  C           1     -21.594  -4.375  -7.522  0.00  0.00     0.249 C 
HETATM    4  N           1     -22.167  -4.758  -8.705  0.00  0.00    -0.345 N 
ENDROOT
BRANCH   3   5
HETATM    5  C           1     -21.040  -5.417  -6.580  0.00  0.00     0.283 C 
BRANCH   5   6
HETATM    6  N           1     -19.970  -4.800  -5.729  0.00  0.00    -0.066 N 
HETATM    7  H           1     -19.191  -4.463  -6.338  0.00  0.00     0.275 HD
HETATM    8  H           1     -20.370  -3.994  -5.196  0.00  0.00     0.275 HD
HETATM    9  H           1     -19.604  -5.514  -5.058  0.00  0.00     0.275 HD
ENDBRANCH   5   6
BRANCH   5  10
HETATM   10  C           1     -22.158  -5.941  -5.690  0.00  0.00     0.145 C 
BRANCH  10  11
HETATM   11  C           1     -21.572  -6.482  -4.409  0.00  0.00     0.217 C 
HETATM   12  O           1     -20.632  -7.240  -4.448  0.00  0.00    -0.274 OA
HETATM   13  N           1     -22.105  -6.114  -3.203  0.00  0.00    -0.370 N 
HETATM   14  H           1     -21.712  -6.478  -2.344  0.00  0.00     0.159 HD
HETATM   15  H           1     -22.893  -5.479  -3.170  0.00  0.00     0.159 HD
ENDBRANCH  10  11
ENDBRANCH   5  10
ENDBRANCH   3   5
BRANCH   4  16
HETATM   16  C           1     -22.700  -3.758  -9.610  0.00  0.00     0.185 C 
BRANCH  16  17
HETATM   17  C           1     -22.158  -4.003 -11.012  0.00  0.00     0.036 C 
BRANCH  17  18
HETATM   18  C           1     -22.446  -2.790 -11.887  0.00  0.00     0.003 C 
BRANCH  18  19
HETATM   19 Se           1     -23.878  -3.216 -13.139  0.00  0.00     0.000 Se
HETATM   20  C           1     -22.901  -2.616 -14.715  0.00  0.00     0.000 C 
ENDBRANCH  18  19
ENDBRANCH  17  18
ENDBRANCH  16  17
BRANCH  16  21
HETATM   21  C           1     -24.206  -3.850  -9.629  0.00  0.00     0.196 C 
HETATM   22  O           1     -24.763  -4.946  -9.852  0.00  0.00    -0.646 OA
HETATM   23  O           1     -24.897  -2.830  -9.420  0.00  0.00    -0.646 OA
ENDBRANCH  16  21
ENDBRANCH   4  16
TORSDOF 9
ENDMDL
MODEL 3
REMARK VINA RESULT:      -5.8      2.597      3.556
REMARK  9 active torsions:
REMARK  status: ('A' for Active; 'I' for Inactive)
REMARK    1  A    between atoms: Se_7  and  C_8 
REMARK    2  A    between atoms: C_8  and  C_9 
REMARK    3  A    between atoms: C_9  and  C_10 
REMARK    4  A    between atoms: C_10  and  C_11 
REMARK    5  A    between atoms: C_10  and  N_23 
REMARK    6  A    between atoms: N_16  and  C_21 
REMARK       I    between atoms: N_18  and  C_19 
REMARK    7  A    between atoms: C_19  and  C_20 
REMARK    8  A    between atoms: C_20  and  C_21 
REMARK    9  A    between atoms: C_21  and  C_22 
REMARK       I    between atoms: C_22  and  N_23 
ROOT
HETATM    1  H           1     -35.862  -3.013 -12.552  0.00  0.00     0.163 HD
HETATM    2  O           1     -33.278  -2.254 -10.943  0.00  0.00    -0.271 OA
HETATM    3  C           1     -34.049  -2.954 -11.556  0.00  0.00     0.249 C 
HETATM    4  N           1     -35.216  -2.426 -12.040  0.00  0.00    -0.345 N 
ENDROOT
BRANCH   3   5
HETATM    5  C           1     -33.726  -4.410 -11.787  0.00  0.00     0.283 C 
BRANCH   5   6
HETATM    6  N           1     -32.294  -4.542 -12.211  0.00  0.00    -0.066 N 
HETATM    7  H           1     -32.176  -5.417 -12.771  0.00  0.00     0.275 HD
HETATM    8  H           1     -32.026  -3.717 -12.794  0.00  0.00     0.275 HD
HETATM    9  H           1     -31.682  -4.586 -11.365  0.00  0.00     0.275 HD
ENDBRANCH   5   6
BRANCH   5  10
HETATM   10  C           1     -33.946  -5.189 -10.497  0.00  0.00     0.145 C 
BRANCH  10  11
HETATM   11  C           1     -34.615  -6.505 -10.809  0.00  0.00     0.217 C 
HETATM   12  O           1     -34.806  -7.310  -9.929  0.00  0.00    -0.274 OA
HETATM   13  N           1     -35.006  -6.787 -12.091  0.00  0.00    -0.370 N 
HETATM   14  H           1     -35.454  -7.670 -12.300  0.00  0.00     0.159 HD
HETATM   15  H           1     -34.845  -6.113 -12.829  0.00  0.00     0.159 HD
ENDBRANCH  10  11
ENDBRANCH   5  10
ENDBRANCH   3   5
BRANCH   4  16
HETATM   16  C           1     -35.527  -1.027 -11.818  0.00  0.00     0.185 C 
BRANCH  16  17
HETATM   17  C           1     -36.144  -0.439 -13.080  0.00  0.00     0.036 C 
BRANCH  17  18
HETATM   18  C           1     -35.105   0.404 -13.808  0.00  0.00     0.003 C 
BRANCH  18  19
HETATM   19 Se           1     -35.813   0.962 -15.535  0.00  0.00     0.000 Se
HETATM   20  C           1     -35.818  -0.832 -16.297  0.00  0.00     0.000 C 
ENDBRANCH  18  19
ENDBRANCH  17  18
ENDBRANCH  16  17
BRANCH  16  21
HETATM   21  C           1     -36.505  -0.906 -10.676  0.00  0.00     0.196 C 
HETATM   22  O           1     -36.102  -0.582  -9.538  0.00  0.00    -0.646 OA
HETATM   23  O           1     -37.720  -1.130 -10.867  0.00  0.00    -0.646 OA
ENDBRANCH  16  21
ENDBRANCH   4  16
TORSDOF 9
ENDMDL
MODEL 4
REMARK VINA RESULT:      -5.7      3.114      5.014
REMARK  9 active torsions:
REMARK  status: ('A' for Active; 'I' for Inactive)
REMARK    1  A    between atoms: Se_7  and  C_8 
REMARK    2  A    between atoms: C_8  and  C_9 
REMARK    3  A    between atoms: C_9  and  C_10 
REMARK    4  A    between atoms: C_10  and  C_11 
REMARK    5  A    between atoms: C_10  and  N_23 
REMARK    6  A    between atoms: N_16  and  C_21 
REMARK       I    between atoms: N_18  and  C_19 
REMARK    7  A    between atoms: C_19  and  C_20 
REMARK    8  A    between atoms: C_20  and  C_21 
REMARK    9  A    between atoms: C_21  and  C_22 
REMARK       I    between atoms: C_22  and  N_23 
ROOT
HETATM    1  H           1     -34.930   0.068 -12.512  0.00  0.00     0.163 HD
HETATM    2  O           1     -37.712  -0.637 -13.778  0.00  0.00    -0.271 OA
HETATM    3  C           1     -36.582  -0.215 -13.726  0.00  0.00     0.249 C 
HETATM    4  N           1     -35.877  -0.286 -12.555  0.00  0.00    -0.345 N 
ENDROOT
BRANCH   3   5
HETATM    5  C           1     -35.946   0.393 -14.953  0.00  0.00     0.283 C 
BRANCH   5   6
HETATM    6  N           1     -34.486   0.619 -14.698  0.00  0.00    -0.066 N 
HETATM    7  H           1     -34.107   1.284 -15.410  0.00  0.00     0.275 HD
HETATM    8  H           1     -34.357   1.023 -13.743  0.00  0.00     0.275 HD
HETATM    9  H           1     -33.975  -0.290 -14.764  0.00  0.00     0.275 HD
ENDBRANCH   5   6
BRANCH   5  10
HETATM   10  C           1     -36.114  -0.555 -16.133  0.00  0.00     0.145 C 
BRANCH  10  11
HETATM   11  C           1     -35.115  -1.680 -16.023  0.00  0.00     0.217 C 
HETATM   12  O           1     -34.983  -2.270 -14.976  0.00  0.00    -0.274 OA
HETATM   13  N           1     -34.359  -2.034 -17.107  0.00  0.00    -0.370 N 
HETATM   14  H           1     -33.688  -2.788 -17.032  0.00  0.00     0.159 HD
HETATM   15  H           1     -34.469  -1.539 -17.983  0.00  0.00     0.159 HD
ENDBRANCH  10  11
ENDBRANCH   5  10
ENDBRANCH   3   5
BRANCH   4  16
HETATM   16  C           1     -36.487  -0.870 -11.375  0.00  0.00     0.185 C 
BRANCH  16  17
HETATM   17  C           1     -35.466  -1.743 -10.656  0.00  0.00     0.036 C 
BRANCH  17  18
HETATM   18  C           1     -35.168  -2.975 -11.500  0.00  0.00     0.003 C 
BRANCH  18  19
HETATM   19 Se           1     -33.255  -3.346 -11.457  0.00  0.00     0.000 Se
HETATM   20  C           1     -33.467  -5.260 -11.161  0.00  0.00     0.000 C 
ENDBRANCH  18  19
ENDBRANCH  17  18
ENDBRANCH  16  17
BRANCH  16  21
HETATM   21  C           1     -36.947   0.231 -10.453  0.00  0.00     0.196 C 
HETATM   22  O           1     -36.245   0.562  -9.473  0.00  0.00    -0.646 OA
HETATM   23  O           1     -38.032   0.814 -10.668  0.00  0.00    -0.646 OA
ENDBRANCH  16  21
ENDBRANCH   4  16
TORSDOF 9
ENDMDL
MODEL 5
REMARK VINA RESULT:      -5.5      3.413      5.805
REMARK  9 active torsions:
REMARK  status: ('A' for Active; 'I' for Inactive)
REMARK    1  A    between atoms: Se_7  and  C_8 
REMARK    2  A    between atoms: C_8  and  C_9 
REMARK    3  A    between atoms: C_9  and  C_10 
REMARK    4  A    between atoms: C_10  and  C_11 
REMARK    5  A    between atoms: C_10  and  N_23 
REMARK    6  A    between atoms: N_16  and  C_21 
REMARK       I    between atoms: N_18  and  C_19 
REMARK    7  A    between atoms: C_19  and  C_20 
REMARK    8  A    between atoms: C_20  and  C_21 
REMARK    9  A    between atoms: C_21  and  C_22 
REMARK       I    between atoms: C_22  and  N_23 
ROOT
HETATM    1  H           1     -35.013  -0.077 -10.509  0.00  0.00     0.163 HD
HETATM    2  O           1     -38.030   0.363 -11.247  0.00  0.00    -0.271 OA
HETATM    3  C           1     -37.036   0.359 -10.561  0.00  0.00     0.249 C 
HETATM    4  N           1     -35.846  -0.073 -11.083  0.00  0.00    -0.345 N 
ENDROOT
BRANCH   3   5
HETATM    5  C           1     -37.104   0.829  -9.128  0.00  0.00     0.283 C 
BRANCH   5   6
HETATM    6  N           1     -37.913   2.090  -9.055  0.00  0.00    -0.066 N 
HETATM    7  H           1     -37.584   2.669  -8.249  0.00  0.00     0.275 HD
HETATM    8  H           1     -37.797   2.630  -9.942  0.00  0.00     0.275 HD
HETATM    9  H           1     -38.922   1.850  -8.922  0.00  0.00     0.275 HD
ENDBRANCH   5   6
BRANCH   5  10
HETATM   10  C           1     -37.762  -0.246  -8.273  0.00  0.00     0.145 C 
BRANCH  10  11
HETATM   11  C           1     -37.545   0.067  -6.813  0.00  0.00     0.217 C 
HETATM   12  O           1     -36.902   1.040  -6.493  0.00  0.00    -0.274 OA
HETATM   13  N           1     -38.075  -0.750  -5.851  0.00  0.00    -0.370 N 
HETATM   14  H           1     -37.928  -0.540  -4.872  0.00  0.00     0.159 HD
HETATM   15  H           1     -38.612  -1.564  -6.119  0.00  0.00     0.159 HD
ENDBRANCH  10  11
ENDBRANCH   5  10
ENDBRANCH   3   5
BRANCH   4  16
HETATM   16  C           1     -35.779  -0.525 -12.460  0.00  0.00     0.185 C 
BRANCH  16  17
HETATM   17  C           1     -34.766   0.319 -13.222  0.00  0.00     0.036 C 
BRANCH  17  18
HETATM   18  C           1     -35.443   0.961 -14.425  0.00  0.00     0.003 C 
BRANCH  18  19
HETATM   19 Se           1     -37.082  -0.007 -14.843  0.00  0.00     0.000 Se
HETATM   20  C           1     -36.392  -0.792 -16.489  0.00  0.00     0.000 C 
ENDBRANCH  18  19
ENDBRANCH  17  18
ENDBRANCH  16  17
BRANCH  16  21
HETATM   21  C           1     -35.355  -1.972 -12.492  0.00  0.00     0.196 C 
HETATM   22  O           1     -34.713  -2.415 -13.469  0.00  0.00    -0.646 OA
HETATM   23  O           1     -35.645  -2.730 -11.541  0.00  0.00    -0.646 OA
ENDBRANCH  16  21
ENDBRANCH   4  16
TORSDOF 9
ENDMDL
MODEL 6
REMARK VINA RESULT:      -5.4      3.137      5.489
REMARK  9 active torsions:
REMARK  status: ('A' for Active; 'I' for Inactive)
REMARK    1  A    between atoms: Se_7  and  C_8 
REMARK    2  A    between atoms: C_8  and  C_9 
REMARK    3  A    between atoms: C_9  and  C_10 
REMARK    4  A    between atoms: C_10  and  C_11 
REMARK    5  A    between atoms: C_10  and  N_23 
REMARK    6  A    between atoms: N_16  and  C_21 
REMARK       I    between atoms: N_18  and  C_19 
REMARK    7  A    between atoms: C_19  and  C_20 
REMARK    8  A    between atoms: C_20  and  C_21 
REMARK    9  A    between atoms: C_21  and  C_22 
REMARK       I    between atoms: C_22  and  N_23 
ROOT
HETATM    1  H           1     -33.912  -1.372 -13.483  0.00  0.00     0.163 HD
HETATM    2  O           1     -36.750  -0.961 -12.212  0.00  0.00    -0.271 OA
HETATM    3  C           1     -35.828  -0.780 -12.970  0.00  0.00     0.249 C 
HETATM    4  N           1     -34.685  -1.524 -12.848  0.00  0.00    -0.345 N 
ENDROOT
BRANCH   3   5
HETATM    5  C           1     -35.934   0.267 -14.053  0.00  0.00     0.283 C 
BRANCH   5   6
HETATM    6  N           1     -34.574   0.531 -14.625  0.00  0.00    -0.066 N 
HETATM    7  H           1     -33.867  -0.059 -14.131  0.00  0.00     0.275 HD
HETATM    8  H           1     -34.573   0.296 -15.644  0.00  0.00     0.275 HD
HETATM    9  H           1     -34.333   1.541 -14.500  0.00  0.00     0.275 HD
ENDBRANCH   5   6
BRANCH   5  10
HETATM   10  C           1     -36.859  -0.234 -15.154  0.00  0.00     0.145 C 
BRANCH  10  11
HETATM   11  C           1     -36.066  -1.040 -16.152  0.00  0.00     0.217 C 
HETATM   12  O           1     -35.319  -1.910 -15.769  0.00  0.00    -0.274 OA
HETATM   13  N           1     -36.191  -0.786 -17.491  0.00  0.00    -0.370 N 
HETATM   14  H           1     -35.657  -1.326 -18.161  0.00  0.00     0.159 HD
HETATM   15  H           1     -36.815  -0.057 -17.812  0.00  0.00     0.159 HD
ENDBRANCH  10  11
ENDBRANCH   5  10
ENDBRANCH   3   5
BRANCH   4  16
HETATM   16  C           1     -34.582  -2.530 -11.808  0.00  0.00     0.185 C 
BRANCH  16  17
HETATM   17  C           1     -33.558  -3.581 -12.219  0.00  0.00     0.036 C 
BRANCH  17  18
HETATM   18  C           1     -33.547  -4.707 -11.194  0.00  0.00     0.003 C 
BRANCH  18  19
HETATM   19 Se           1     -34.908  -6.023 -11.657  0.00  0.00     0.000 Se
HETATM   20  C           1     -34.737  -7.027  -9.996  0.00  0.00     0.000 C 
ENDBRANCH  18  19
ENDBRANCH  17  18
ENDBRANCH  16  17
BRANCH  16  21
HETATM   21  C           1     -34.145  -1.877 -10.521  0.00  0.00     0.196 C 
HETATM   22  O           1     -34.990  -1.592  -9.645  0.00  0.00    -0.646 OA
HETATM   23  O           1     -32.937  -1.620 -10.328  0.00  0.00    -0.646 OA
ENDBRANCH  16  21
ENDBRANCH   4  16
TORSDOF 9
ENDMDL
MODEL 7
REMARK VINA RESULT:      -5.3     12.642     14.659
REMARK  9 active torsions:
REMARK  status: ('A' for Active; 'I' for Inactive)
REMARK    1  A    between atoms: Se_7  and  C_8 
REMARK    2  A    between atoms: C_8  and  C_9 
REMARK    3  A    between atoms: C_9  and  C_10 
REMARK    4  A    between atoms: C_10  and  C_11 
REMARK    5  A    between atoms: C_10  and  N_23 
REMARK    6  A    between atoms: N_16  and  C_21 
REMARK       I    between atoms: N_18  and  C_19 
REMARK    7  A    between atoms: C_19  and  C_20 
REMARK    8  A    between atoms: C_20  and  C_21 
REMARK    9  A    between atoms: C_21  and  C_22 
REMARK       I    between atoms: C_22  and  N_23 
ROOT
HETATM    1  H           1     -21.186  -5.046  -9.360  0.00  0.00     0.163 HD
HETATM    2  O           1     -23.694  -4.134  -7.710  0.00  0.00    -0.271 OA
HETATM    3  C           1     -23.039  -4.417  -8.685  0.00  0.00     0.249 C 
HETATM    4  N           1     -21.735  -4.809  -8.543  0.00  0.00    -0.345 N 
ENDROOT
BRANCH   3   5
HETATM    5  C           1     -23.657  -4.336 -10.060  0.00  0.00     0.283 C 
BRANCH   5   6
HETATM    6  N           1     -25.128  -4.074  -9.930  0.00  0.00    -0.066 N 
HETATM    7  H           1     -25.559  -4.029 -10.881  0.00  0.00     0.275 HD
HETATM    8  H           1     -25.572  -4.846  -9.383  0.00  0.00     0.275 HD
HETATM    9  H           1     -25.278  -3.164  -9.437  0.00  0.00     0.275 HD
ENDBRANCH   5   6
BRANCH   5  10
HETATM   10  C           1     -23.007  -3.202 -10.842  0.00  0.00     0.145 C 
BRANCH  10  11
HETATM   11  C           1     -23.215  -3.425 -12.320  0.00  0.00     0.217 C 
HETATM   12  O           1     -24.335  -3.503 -12.767  0.00  0.00    -0.274 OA
HETATM   13  N           1     -22.136  -3.538 -13.154  0.00  0.00    -0.370 N 
HETATM   14  H           1     -22.276  -3.689 -14.145  0.00  0.00     0.159 HD
HETATM   15  H           1     -21.198  -3.473 -12.779  0.00  0.00     0.159 HD
ENDBRANCH  10  11
ENDBRANCH   5  10
ENDBRANCH   3   5
BRANCH   4  16
HETATM   16  C           1     -21.140  -4.887  -7.223  0.00  0.00     0.185 C 
BRANCH  16  17
HETATM   17  C           1     -21.204  -6.324  -6.722  0.00  0.00     0.036 C 
BRANCH  17  18
HETATM   18  C           1     -22.044  -6.382  -5.453  0.00  0.00     0.003 C 
BRANCH  18  19
HETATM   19 Se           1     -21.089  -7.392  -4.086  0.00  0.00     0.000 Se
HETATM   20  C           1     -21.607  -6.214  -2.622  0.00  0.00     0.000 C 
ENDBRANCH  18  19
ENDBRANCH  17  18
ENDBRANCH  16  17
BRANCH  16  21
HETATM   21  C           1     -19.700  -4.443  -7.295  0.00  0.00     0.196 C 
HETATM   22  O           1     -18.903  -4.752  -6.383  0.00  0.00    -0.646 OA
HETATM   23  O           1     -19.303  -3.765  -8.267  0.00  0.00    -0.646 OA
ENDBRANCH  16  21
ENDBRANCH   4  16
TORSDOF 9
ENDMDL
MODEL 8
REMARK VINA RESULT:      -5.3      3.118      5.708
REMARK  9 active torsions:
REMARK  status: ('A' for Active; 'I' for Inactive)
REMARK    1  A    between atoms: Se_7  and  C_8 
REMARK    2  A    between atoms: C_8  and  C_9 
REMARK    3  A    between atoms: C_9  and  C_10 
REMARK    4  A    between atoms: C_10  and  C_11 
REMARK    5  A    between atoms: C_10  and  N_23 
REMARK    6  A    between atoms: N_16  and  C_21 
REMARK       I    between atoms: N_18  and  C_19 
REMARK    7  A    between atoms: C_19  and  C_20 
REMARK    8  A    between atoms: C_20  and  C_21 
REMARK    9  A    between atoms: C_21  and  C_22 
REMARK       I    between atoms: C_22  and  N_23 
ROOT
HETATM    1  H           1     -35.713   0.030 -13.082  0.00  0.00     0.163 HD
HETATM    2  O           1     -34.785  -2.742 -14.221  0.00  0.00    -0.271 OA
HETATM    3  C           1     -35.085  -1.572 -14.232  0.00  0.00     0.249 C 
HETATM    4  N           1     -35.461  -0.950 -13.072  0.00  0.00    -0.345 N 
ENDROOT
BRANCH   3   5
HETATM    5  C           1     -35.046  -0.795 -15.526  0.00  0.00     0.283 C 
BRANCH   5   6
HETATM    6  N           1     -35.048  -1.751 -16.682  0.00  0.00    -0.066 N 
HETATM    7  H           1     -34.157  -2.297 -16.684  0.00  0.00     0.275 HD
HETATM    8  H           1     -35.857  -2.406 -16.590  0.00  0.00     0.275 HD
HETATM    9  H           1     -35.132  -1.216 -17.576  0.00  0.00     0.275 HD
ENDBRANCH   5   6
BRANCH   5  10
HETATM   10  C           1     -36.270   0.107 -15.612  0.00  0.00     0.145 C 
BRANCH  10  11
HETATM   11  C           1     -35.849   1.546 -15.442  0.00  0.00     0.217 C 
HETATM   12  O           1     -35.077   1.850 -14.563  0.00  0.00    -0.274 OA
HETATM   13  N           1     -36.341   2.508 -16.283  0.00  0.00    -0.370 N 
HETATM   14  H           1     -36.059   3.473 -16.167  0.00  0.00     0.159 HD
HETATM   15  H           1     -36.988   2.254 -17.018  0.00  0.00     0.159 HD
ENDBRANCH  10  11
ENDBRANCH   5  10
ENDBRANCH   3   5
BRANCH   4  16
HETATM   16  C           1     -35.499  -1.696 -11.828  0.00  0.00     0.185 C 
BRANCH  16  17
HETATM   17  C           1     -34.108  -1.716 -11.207  0.00  0.00     0.036 C 
BRANCH  17  18
HETATM   18  C           1     -33.885  -3.047 -10.503  0.00  0.00     0.003 C 
BRANCH  18  19
HETATM   19 Se           1     -33.037  -4.300 -11.731  0.00  0.00     0.000 Se
HETATM   20  C           1     -34.606  -5.442 -11.909  0.00  0.00     0.000 C 
ENDBRANCH  18  19
ENDBRANCH  17  18
ENDBRANCH  16  17
BRANCH  16  21
HETATM   21  C           1     -36.466  -1.036 -10.878  0.00  0.00     0.196 C 
HETATM   22  O           1     -37.697  -1.188 -11.032  0.00  0.00    -0.646 OA
HETATM   23  O           1     -36.037  -0.338  -9.934  0.00  0.00    -0.646 OA
ENDBRANCH  16  21
ENDBRANCH   4  16
TORSDOF 9
ENDMDL
MODEL 9
REMARK VINA RESULT:      -5.1     14.322     16.371
REMARK  9 active torsions:
REMARK  status: ('A' for Active; 'I' for Inactive)
REMARK    1  A    between atoms: Se_7  and  C_8 
REMARK    2  A    between atoms: C_8  and  C_9 
REMARK    3  A    between atoms: C_9  and  C_10 
REMARK    4  A    between atoms: C_10  and  C_11 
REMARK    5  A    between atoms: C_10  and  N_23 
REMARK    6  A    between atoms: N_16  and  C_21 
REMARK       I    between atoms: N_18  and  C_19 
REMARK    7  A    between atoms: C_19  and  C_20 
REMARK    8  A    between atoms: C_20  and  C_21 
REMARK    9  A    between atoms: C_21  and  C_22 
REMARK       I    between atoms: C_22  and  N_23 
ROOT
HETATM    1  H           1     -22.565  -6.322  -6.396  0.00  0.00     0.163 HD
HETATM    2  O           1     -19.736  -5.036  -6.824  0.00  0.00    -0.271 OA
HETATM    3  C           1     -20.889  -5.308  -7.062  0.00  0.00     0.249 C 
HETATM    4  N           1     -21.600  -6.094  -6.196  0.00  0.00    -0.345 N 
ENDROOT
BRANCH   3   5
HETATM    5  C           1     -21.545  -4.782  -8.316  0.00  0.00     0.283 C 
BRANCH   5   6
HETATM    6  N           1     -22.487  -3.672  -7.957  0.00  0.00    -0.066 N 
HETATM    7  H           1     -22.148  -2.777  -8.377  0.00  0.00     0.275 HD
HETATM    8  H           1     -23.440  -3.890  -8.327  0.00  0.00     0.275 HD
HETATM    9  H           1     -22.531  -3.573  -6.917  0.00  0.00     0.275 HD
ENDBRANCH   5   6
BRANCH   5  10
HETATM   10  C           1     -20.477  -4.254  -9.264  0.00  0.00     0.145 C 
BRANCH  10  11
HETATM   11  C           1     -21.067  -4.078 -10.641  0.00  0.00     0.217 C 
HETATM   12  O           1     -22.189  -4.464 -10.872  0.00  0.00    -0.274 OA
HETATM   13  N           1     -20.332  -3.482 -11.630  0.00  0.00    -0.370 N 
HETATM   14  H           1     -20.728  -3.365 -12.555  0.00  0.00     0.159 HD
HETATM   15  H           1     -19.392  -3.160 -11.438  0.00  0.00     0.159 HD
ENDBRANCH  10  11
ENDBRANCH   5  10
ENDBRANCH   3   5
BRANCH   4  16
HETATM   16  C           1     -20.970  -6.600  -4.992  0.00  0.00     0.185 C 
BRANCH  16  17
HETATM   17  C           1     -21.990  -6.630  -3.861  0.00  0.00     0.036 C 
BRANCH  17  18
HETATM   18  C           1     -21.265  -6.584  -2.522  0.00  0.00     0.003 C 
BRANCH  18  19
HETATM   19 Se           1     -21.500  -8.282  -1.596  0.00  0.00     0.000 Se
HETATM   20  C           1     -22.610  -7.541  -0.175  0.00  0.00     0.000 C 
ENDBRANCH  18  19
ENDBRANCH  17  18
ENDBRANCH  16  17
BRANCH  16  21
HETATM   21  C           1     -20.456  -7.996  -5.244  0.00  0.00     0.196 C 
HETATM   22  O           1     -21.164  -8.822  -5.859  0.00  0.00    -0.646 OA
HETATM   23  O           1     -19.320  -8.326  -4.839  0.00  0.00    -0.646 OA
ENDBRANCH  16  21
ENDBRANCH   4  16
TORSDOF 9
ENDMDL
