MODEL 1
REMARK VINA RESULT:      -7.6      0.000      0.000
REMARK  9 active torsions:
REMARK  status: ('A' for Active; 'I' for Inactive)
REMARK    1  A    between atoms: O_2  and  C_12 
REMARK    2  A    between atoms: O_2  and  P_3 
REMARK    3  A    between atoms: P_3  and  O_8 
REMARK    4  A    between atoms: C_4  and  C_6 
REMARK    5  A    between atoms: C_6  and  C_16 
REMARK    6  A    between atoms: C_6  and  N_19 
REMARK    7  A    between atoms: N_10  and  C_17 
REMARK    8  A    between atoms: C_15  and  C_16 
REMARK    9  A    between atoms: C_17  and  C_18 
REMARK       I    between atoms: C_18  and  N_19 
ROOT
HETATM    1  C           1     -21.562  -5.547  -6.670  0.00  0.00     0.189 C 
ENDROOT
BRANCH   1   2
HETATM    2  C           1     -20.068  -5.598  -6.466  0.00  0.00     0.197 C 
HETATM    3  O           1     -19.426  -6.617  -6.802  0.00  0.00    -0.646 OA
HETATM    4  O           1     -19.472  -4.622  -5.962  0.00  0.00    -0.646 OA
ENDBRANCH   1   2
BRANCH   1   5
HETATM    5  C           1     -21.964  -4.150  -7.129  0.00  0.00     0.074 C 
BRANCH   5   6
HETATM    6  C           1     -22.420  -4.205  -8.554  0.00  0.00    -0.056 A 
HETATM    7  C           1     -21.487  -4.367  -9.579  0.00  0.00     0.010 A 
HETATM    8  C           1     -21.911  -4.416 -10.907  0.00  0.00     0.038 A 
HETATM    9  C           1     -23.269  -4.307 -11.209  0.00  0.00     0.081 A 
HETATM   10  C           1     -24.201  -4.145 -10.185  0.00  0.00     0.038 A 
HETATM   11  C           1     -23.777  -4.095  -8.857  0.00  0.00     0.010 A 
BRANCH   9  12
HETATM   12  O           1     -23.682  -4.356 -12.499  0.00  0.00    -0.247 OA
BRANCH  12  13
HETATM   13  P           1     -23.978  -2.959 -13.255  0.00  0.00     0.411 P 
HETATM   14  O           1     -25.397  -2.587 -13.065  0.00  0.00    -0.624 OA
HETATM   15  O           1     -23.697  -3.112 -14.699  0.00  0.00    -0.624 OA
BRANCH  13  16
HETATM   16  O           1     -23.031  -1.804 -12.640  0.00  0.00    -0.300 OA
HETATM   17  H           1     -22.491  -1.523 -13.359  0.00  0.00     0.223 HD
ENDBRANCH  13  16
ENDBRANCH  12  13
ENDBRANCH   9  12
ENDBRANCH   5   6
ENDBRANCH   1   5
BRANCH   1  18
HETATM   18  N           1     -22.230  -5.854  -5.421  0.00  0.00    -0.344 N 
HETATM   19  C           1     -21.626  -6.676  -4.506  0.00  0.00     0.248 C 
HETATM   20  O           1     -20.906  -6.208  -3.656  0.00  0.00    -0.271 OA
HETATM   21  H           1     -23.142  -5.461  -5.224  0.00  0.00     0.163 HD
BRANCH  19  22
HETATM   22  C           1     -21.861  -8.166  -4.560  0.00  0.00     0.270 C 
HETATM   23  C           1     -21.463  -8.792  -3.229  0.00  0.00     0.050 C 
BRANCH  22  24
HETATM   24  N           1     -21.033  -8.762  -5.659  0.00  0.00    -0.067 N 
HETATM   25  H           1     -20.658  -7.999  -6.266  0.00  0.00     0.275 HD
HETATM   26  H           1     -20.238  -9.299  -5.244  0.00  0.00     0.275 HD
HETATM   27  H           1     -21.626  -9.404  -6.233  0.00  0.00     0.275 HD
ENDBRANCH  22  24
ENDBRANCH  19  22
ENDBRANCH   1  18
TORSDOF 9
ENDMDL
MODEL 2
REMARK VINA RESULT:      -7.4      1.135      2.105
REMARK  9 active torsions:
REMARK  status: ('A' for Active; 'I' for Inactive)
REMARK    1  A    between atoms: O_2  and  C_12 
REMARK    2  A    between atoms: O_2  and  P_3 
REMARK    3  A    between atoms: P_3  and  O_8 
REMARK    4  A    between atoms: C_4  and  C_6 
REMARK    5  A    between atoms: C_6  and  C_16 
REMARK    6  A    between atoms: C_6  and  N_19 
REMARK    7  A    between atoms: N_10  and  C_17 
REMARK    8  A    between atoms: C_15  and  C_16 
REMARK    9  A    between atoms: C_17  and  C_18 
REMARK       I    between atoms: C_18  and  N_19 
ROOT
HETATM    1  C           1     -21.147  -6.038  -7.315  0.00  0.00     0.189 C 
ENDROOT
BRANCH   1   2
HETATM    2  C           1     -19.688  -5.927  -6.946  0.00  0.00     0.197 C 
HETATM    3  O           1     -19.185  -4.805  -6.721  0.00  0.00    -0.646 OA
HETATM    4  O           1     -18.984  -6.957  -6.865  0.00  0.00    -0.646 OA
ENDBRANCH   1   2
BRANCH   1   5
HETATM    5  C           1     -21.809  -4.672  -7.187  0.00  0.00     0.074 C 
BRANCH   5   6
HETATM    6  C           1     -22.120  -4.138  -8.552  0.00  0.00    -0.056 A 
HETATM    7  C           1     -23.427  -3.770  -8.876  0.00  0.00     0.010 A 
HETATM    8  C           1     -23.717  -3.274 -10.146  0.00  0.00     0.038 A 
HETATM    9  C           1     -22.700  -3.144 -11.092  0.00  0.00     0.081 A 
HETATM   10  C           1     -21.395  -3.512 -10.769  0.00  0.00     0.038 A 
HETATM   11  C           1     -21.104  -4.008  -9.498  0.00  0.00     0.010 A 
BRANCH   9  12
HETATM   12  O           1     -22.982  -2.661 -12.328  0.00  0.00    -0.247 OA
BRANCH  12  13
HETATM   13  P           1     -24.027  -3.484 -13.244  0.00  0.00     0.411 P 
HETATM   14  O           1     -23.718  -3.254 -14.672  0.00  0.00    -0.624 OA
HETATM   15  O           1     -25.403  -3.023 -12.956  0.00  0.00    -0.624 OA
BRANCH  13  16
HETATM   16  O           1     -23.906  -5.060 -12.914  0.00  0.00    -0.300 OA
HETATM   17  H           1     -23.394  -5.419 -13.618  0.00  0.00     0.223 HD
ENDBRANCH  13  16
ENDBRANCH  12  13
ENDBRANCH   9  12
ENDBRANCH   5   6
ENDBRANCH   1   5
BRANCH   1  18
HETATM   18  N           1     -21.800  -6.975  -6.422  0.00  0.00    -0.344 N 
HETATM   19  C           1     -22.222  -6.563  -5.186  0.00  0.00     0.248 C 
HETATM   20  O           1     -23.337  -6.118  -5.046  0.00  0.00    -0.271 OA
HETATM   21  H           1     -21.944  -7.934  -6.712  0.00  0.00     0.163 HD
BRANCH  19  22
HETATM   22  C           1     -21.295  -6.662  -4.000  0.00  0.00     0.270 C 
HETATM   23  C           1     -21.010  -8.127  -3.698  0.00  0.00     0.050 C 
BRANCH  22  24
HETATM   24  N           1     -21.940  -6.023  -2.806  0.00  0.00    -0.067 N 
HETATM   25  H           1     -22.597  -5.275  -3.124  0.00  0.00     0.275 HD
HETATM   26  H           1     -22.469  -6.746  -2.268  0.00  0.00     0.275 HD
HETATM   27  H           1     -21.203  -5.603  -2.195  0.00  0.00     0.275 HD
ENDBRANCH  22  24
ENDBRANCH  19  22
ENDBRANCH   1  18
TORSDOF 9
ENDMDL
MODEL 3
REMARK VINA RESULT:      -7.4      1.876      2.530
REMARK  9 active torsions:
REMARK  status: ('A' for Active; 'I' for Inactive)
REMARK    1  A    between atoms: O_2  and  C_12 
REMARK    2  A    between atoms: O_2  and  P_3 
REMARK    3  A    between atoms: P_3  and  O_8 
REMARK    4  A    between atoms: C_4  and  C_6 
REMARK    5  A    between atoms: C_6  and  C_16 
REMARK    6  A    between atoms: C_6  and  N_19 
REMARK    7  A    between atoms: N_10  and  C_17 
REMARK    8  A    between atoms: C_15  and  C_16 
REMARK    9  A    between atoms: C_17  and  C_18 
REMARK       I    between atoms: C_18  and  N_19 
ROOT
HETATM    1  C           1     -21.718  -6.725  -5.437  0.00  0.00     0.189 C 
ENDROOT
BRANCH   1   2
HETATM    2  C           1     -20.939  -7.998  -5.212  0.00  0.00     0.197 C 
HETATM    3  O           1     -21.532  -9.098  -5.199  0.00  0.00    -0.646 OA
HETATM    4  O           1     -19.702  -7.952  -5.040  0.00  0.00    -0.646 OA
ENDBRANCH   1   2
BRANCH   1   5
HETATM    5  C           1     -20.757  -5.600  -5.801  0.00  0.00     0.074 C 
BRANCH   5   6
HETATM    6  C           1     -21.178  -4.984  -7.099  0.00  0.00    -0.056 A 
HETATM    7  C           1     -20.313  -5.006  -8.194  0.00  0.00     0.010 A 
HETATM    8  C           1     -20.704  -4.432  -9.403  0.00  0.00     0.038 A 
HETATM    9  C           1     -21.961  -3.838  -9.519  0.00  0.00     0.081 A 
HETATM   10  C           1     -22.825  -3.816  -8.425  0.00  0.00     0.038 A 
HETATM   11  C           1     -22.435  -4.390  -7.215  0.00  0.00     0.010 A 
BRANCH   9  12
HETATM   12  O           1     -22.342  -3.281 -10.694  0.00  0.00    -0.247 OA
BRANCH  12  13
HETATM   13  P           1     -23.660  -3.868 -11.420  0.00  0.00     0.411 P 
HETATM   14  O           1     -23.734  -5.330 -11.201  0.00  0.00    -0.624 OA
HETATM   15  O           1     -23.588  -3.590 -12.871  0.00  0.00    -0.624 OA
BRANCH  13  16
HETATM   16  O           1     -24.974  -3.164 -10.800  0.00  0.00    -0.300 OA
HETATM   17  H           1     -24.810  -3.112  -9.875  0.00  0.00     0.223 HD
ENDBRANCH  13  16
ENDBRANCH  12  13
ENDBRANCH   9  12
ENDBRANCH   5   6
ENDBRANCH   1   5
BRANCH   1  18
HETATM   18  N           1     -22.431  -6.376  -4.224  0.00  0.00    -0.344 N 
HETATM   19  C           1     -21.764  -6.321  -3.028  0.00  0.00     0.248 C 
HETATM   20  O           1     -21.256  -5.286  -2.668  0.00  0.00    -0.271 OA
HETATM   21  H           1     -23.422  -6.173  -4.260  0.00  0.00     0.163 HD
BRANCH  19  22
HETATM   22  C           1     -21.662  -7.553  -2.163  0.00  0.00     0.270 C 
HETATM   23  C           1     -22.347  -7.294  -0.828  0.00  0.00     0.050 C 
BRANCH  22  24
HETATM   24  N           1     -20.218  -7.881  -1.929  0.00  0.00    -0.067 N 
HETATM   25  H           1     -19.856  -7.312  -1.130  0.00  0.00     0.275 HD
HETATM   26  H           1     -20.124  -8.897  -1.702  0.00  0.00     0.275 HD
HETATM   27  H           1     -19.667  -7.664  -2.790  0.00  0.00     0.275 HD
ENDBRANCH  22  24
ENDBRANCH  19  22
ENDBRANCH   1  18
TORSDOF 9
ENDMDL
MODEL 4
REMARK VINA RESULT:      -6.8      3.888      7.945
REMARK  9 active torsions:
REMARK  status: ('A' for Active; 'I' for Inactive)
REMARK    1  A    between atoms: O_2  and  C_12 
REMARK    2  A    between atoms: O_2  and  P_3 
REMARK    3  A    between atoms: P_3  and  O_8 
REMARK    4  A    between atoms: C_4  and  C_6 
REMARK    5  A    between atoms: C_6  and  C_16 
REMARK    6  A    between atoms: C_6  and  N_19 
REMARK    7  A    between atoms: N_10  and  C_17 
REMARK    8  A    between atoms: C_15  and  C_16 
REMARK    9  A    between atoms: C_17  and  C_18 
REMARK       I    between atoms: C_18  and  N_19 
ROOT
HETATM    1  C           1     -23.440  -3.954 -11.249  0.00  0.00     0.189 C 
ENDROOT
BRANCH   1   2
HETATM    2  C           1     -24.369  -4.553 -10.222  0.00  0.00     0.197 C 
HETATM    3  O           1     -24.245  -5.752  -9.891  0.00  0.00    -0.646 OA
HETATM    4  O           1     -25.262  -3.849  -9.702  0.00  0.00    -0.646 OA
ENDBRANCH   1   2
BRANCH   1   5
HETATM    5  C           1     -22.482  -2.987 -10.565  0.00  0.00     0.074 C 
BRANCH   5   6
HETATM    6  C           1     -21.753  -3.699  -9.468  0.00  0.00    -0.056 A 
HETATM    7  C           1     -20.685  -4.544  -9.773  0.00  0.00     0.010 A 
HETATM    8  C           1     -20.006  -5.207  -8.752  0.00  0.00     0.038 A 
HETATM    9  C           1     -20.394  -5.025  -7.424  0.00  0.00     0.081 A 
HETATM   10  C           1     -21.461  -4.181  -7.119  0.00  0.00     0.038 A 
HETATM   11  C           1     -22.141  -3.517  -8.140  0.00  0.00     0.010 A 
BRANCH   9  12
HETATM   12  O           1     -19.734  -5.669  -6.431  0.00  0.00    -0.247 OA
BRANCH  12  13
HETATM   13  P           1     -20.533  -6.800  -5.598  0.00  0.00     0.411 P 
HETATM   14  O           1     -19.573  -7.799  -5.078  0.00  0.00    -0.624 OA
HETATM   15  O           1     -21.508  -7.469  -6.488  0.00  0.00    -0.624 OA
BRANCH  13  16
HETATM   16  O           1     -21.313  -6.109  -4.365  0.00  0.00    -0.300 OA
HETATM   17  H           1     -21.248  -5.183  -4.523  0.00  0.00     0.223 HD
ENDBRANCH  13  16
ENDBRANCH  12  13
ENDBRANCH   9  12
ENDBRANCH   5   6
ENDBRANCH   1   5
BRANCH   1  18
HETATM   18  N           1     -24.217  -3.240 -12.243  0.00  0.00    -0.344 N 
HETATM   19  C           1     -23.929  -3.390 -13.574  0.00  0.00     0.248 C 
HETATM   20  O           1     -24.471  -4.260 -14.215  0.00  0.00    -0.271 OA
HETATM   21  H           1     -24.973  -2.632 -11.954  0.00  0.00     0.163 HD
BRANCH  19  22
HETATM   22  C           1     -22.936  -2.469 -14.240  0.00  0.00     0.270 C 
HETATM   23  C           1     -23.674  -1.293 -14.867  0.00  0.00     0.050 C 
BRANCH  22  24
HETATM   24  N           1     -22.196  -3.220 -15.306  0.00  0.00    -0.067 N 
HETATM   25  H           1     -21.991  -2.579 -16.106  0.00  0.00     0.275 HD
HETATM   26  H           1     -21.298  -3.586 -14.914  0.00  0.00     0.275 HD
HETATM   27  H           1     -22.781  -4.019 -15.640  0.00  0.00     0.275 HD
ENDBRANCH  22  24
ENDBRANCH  19  22
ENDBRANCH   1  18
TORSDOF 9
ENDMDL
MODEL 5
REMARK VINA RESULT:      -6.7      4.623      8.733
REMARK  9 active torsions:
REMARK  status: ('A' for Active; 'I' for Inactive)
REMARK    1  A    between atoms: O_2  and  C_12 
REMARK    2  A    between atoms: O_2  and  P_3 
REMARK    3  A    between atoms: P_3  and  O_8 
REMARK    4  A    between atoms: C_4  and  C_6 
REMARK    5  A    between atoms: C_6  and  C_16 
REMARK    6  A    between atoms: C_6  and  N_19 
REMARK    7  A    between atoms: N_10  and  C_17 
REMARK    8  A    between atoms: C_15  and  C_16 
REMARK    9  A    between atoms: C_17  and  C_18 
REMARK       I    between atoms: C_18  and  N_19 
ROOT
HETATM    1  C           1     -20.763  -5.060  -6.186  0.00  0.00     0.189 C 
ENDROOT
BRANCH   1   2
HETATM    2  C           1     -19.626  -5.353  -7.134  0.00  0.00     0.197 C 
HETATM    3  O           1     -18.880  -4.428  -7.519  0.00  0.00    -0.646 OA
HETATM    4  O           1     -19.430  -6.522  -7.532  0.00  0.00    -0.646 OA
ENDBRANCH   1   2
BRANCH   1   5
HETATM    5  C           1     -21.576  -6.328  -5.960  0.00  0.00     0.074 C 
BRANCH   5   6
HETATM    6  C           1     -21.352  -6.824  -4.565  0.00  0.00    -0.056 A 
HETATM    7  C           1     -21.983  -6.196  -3.491  0.00  0.00     0.010 A 
HETATM    8  C           1     -21.774  -6.656  -2.192  0.00  0.00     0.038 A 
HETATM    9  C           1     -20.934  -7.747  -1.967  0.00  0.00     0.081 A 
HETATM   10  C           1     -20.302  -8.375  -3.039  0.00  0.00     0.038 A 
HETATM   11  C           1     -20.512  -7.915  -4.339  0.00  0.00     0.010 A 
BRANCH   9  12
HETATM   12  O           1     -20.730  -8.196  -0.703  0.00  0.00    -0.247 OA
BRANCH  12  13
HETATM   13  P           1     -21.893  -9.082  -0.017  0.00  0.00     0.411 P 
HETATM   14  O           1     -21.285 -10.054   0.919  0.00  0.00    -0.624 OA
HETATM   15  O           1     -22.642  -9.808  -1.066  0.00  0.00    -0.624 OA
BRANCH  13  16
HETATM   16  O           1     -22.900  -8.113   0.793  0.00  0.00    -0.300 OA
HETATM   17  H           1     -22.851  -8.403   1.687  0.00  0.00     0.223 HD
ENDBRANCH  13  16
ENDBRANCH  12  13
ENDBRANCH   9  12
ENDBRANCH   5   6
ENDBRANCH   1   5
BRANCH   1  18
HETATM   18  N           1     -21.616  -4.037  -6.759  0.00  0.00    -0.344 N 
HETATM   19  C           1     -22.795  -4.386  -7.362  0.00  0.00     0.248 C 
HETATM   20  O           1     -23.812  -4.443  -6.712  0.00  0.00    -0.271 OA
HETATM   21  H           1     -21.340  -3.064  -6.712  0.00  0.00     0.163 HD
BRANCH  19  22
HETATM   22  C           1     -22.824  -4.700  -8.837  0.00  0.00     0.270 C 
HETATM   23  C           1     -21.825  -3.811  -9.566  0.00  0.00     0.050 C 
BRANCH  22  24
HETATM   24  N           1     -24.201  -4.449  -9.374  0.00  0.00    -0.067 N 
HETATM   25  H           1     -24.751  -5.338  -9.354  0.00  0.00     0.275 HD
HETATM   26  H           1     -24.680  -3.731  -8.784  0.00  0.00     0.275 HD
HETATM   27  H           1     -24.134  -4.103 -10.358  0.00  0.00     0.275 HD
ENDBRANCH  22  24
ENDBRANCH  19  22
ENDBRANCH   1  18
TORSDOF 9
ENDMDL
MODEL 6
REMARK VINA RESULT:      -6.7      3.610      8.047
REMARK  9 active torsions:
REMARK  status: ('A' for Active; 'I' for Inactive)
REMARK    1  A    between atoms: O_2  and  C_12 
REMARK    2  A    between atoms: O_2  and  P_3 
REMARK    3  A    between atoms: P_3  and  O_8 
REMARK    4  A    between atoms: C_4  and  C_6 
REMARK    5  A    between atoms: C_6  and  C_16 
REMARK    6  A    between atoms: C_6  and  N_19 
REMARK    7  A    between atoms: N_10  and  C_17 
REMARK    8  A    between atoms: C_15  and  C_16 
REMARK    9  A    between atoms: C_17  and  C_18 
REMARK       I    between atoms: C_18  and  N_19 
ROOT
HETATM    1  C           1     -22.720  -4.419  -9.594  0.00  0.00     0.189 C 
ENDROOT
BRANCH   1   2
HETATM    2  C           1     -24.180  -4.058  -9.711  0.00  0.00     0.197 C 
HETATM    3  O           1     -24.553  -2.884  -9.497  0.00  0.00    -0.646 OA
HETATM    4  O           1     -25.017  -4.933 -10.022  0.00  0.00    -0.646 OA
ENDBRANCH   1   2
BRANCH   1   5
HETATM    5  C           1     -22.062  -3.540  -8.538  0.00  0.00     0.074 C 
BRANCH   5   6
HETATM    6  C           1     -21.705  -4.374  -7.346  0.00  0.00    -0.056 A 
HETATM    7  C           1     -22.672  -5.180  -6.743  0.00  0.00     0.010 A 
HETATM    8  C           1     -22.339  -5.956  -5.633  0.00  0.00     0.038 A 
HETATM    9  C           1     -21.040  -5.928  -5.127  0.00  0.00     0.081 A 
HETATM   10  C           1     -20.073  -5.123  -5.730  0.00  0.00     0.038 A 
HETATM   11  C           1     -20.405  -4.346  -6.840  0.00  0.00     0.010 A 
BRANCH   9  12
HETATM   12  O           1     -20.716  -6.683  -4.049  0.00  0.00    -0.247 OA
BRANCH  12  13
HETATM   13  P           1     -20.476  -8.264  -4.274  0.00  0.00     0.411 P 
HETATM   14  O           1     -19.954  -8.494  -5.640  0.00  0.00    -0.624 OA
HETATM   15  O           1     -21.757  -8.985  -4.107  0.00  0.00    -0.624 OA
BRANCH  13  16
HETATM   16  O           1     -19.407  -8.805  -3.191  0.00  0.00    -0.300 OA
HETATM   17  H           1     -19.309  -8.102  -2.573  0.00  0.00     0.223 HD
ENDBRANCH  13  16
ENDBRANCH  12  13
ENDBRANCH   9  12
ENDBRANCH   5   6
ENDBRANCH   1   5
BRANCH   1  18
HETATM   18  N           1     -22.068  -4.206 -10.872  0.00  0.00    -0.344 N 
HETATM   19  C           1     -22.553  -3.265 -11.740  0.00  0.00     0.248 C 
HETATM   20  O           1     -22.148  -2.128 -11.687  0.00  0.00    -0.271 OA
HETATM   21  H           1     -21.253  -4.753 -11.121  0.00  0.00     0.163 HD
BRANCH  19  22
HETATM   22  C           1     -23.593  -3.648 -12.764  0.00  0.00     0.270 C 
HETATM   23  C           1     -23.165  -3.148 -14.137  0.00  0.00     0.050 C 
BRANCH  22  24
HETATM   24  N           1     -24.909  -3.029 -12.395  0.00  0.00    -0.067 N 
HETATM   25  H           1     -25.146  -2.279 -13.082  0.00  0.00     0.275 HD
HETATM   26  H           1     -25.654  -3.762 -12.409  0.00  0.00     0.275 HD
HETATM   27  H           1     -24.843  -2.617 -11.437  0.00  0.00     0.275 HD
ENDBRANCH  22  24
ENDBRANCH  19  22
ENDBRANCH   1  18
TORSDOF 9
ENDMDL
MODEL 7
REMARK VINA RESULT:      -6.4      4.857      6.890
REMARK  9 active torsions:
REMARK  status: ('A' for Active; 'I' for Inactive)
REMARK    1  A    between atoms: O_2  and  C_12 
REMARK    2  A    between atoms: O_2  and  P_3 
REMARK    3  A    between atoms: P_3  and  O_8 
REMARK    4  A    between atoms: C_4  and  C_6 
REMARK    5  A    between atoms: C_6  and  C_16 
REMARK    6  A    between atoms: C_6  and  N_19 
REMARK    7  A    between atoms: N_10  and  C_17 
REMARK    8  A    between atoms: C_15  and  C_16 
REMARK    9  A    between atoms: C_17  and  C_18 
REMARK       I    between atoms: C_18  and  N_19 
ROOT
HETATM    1  C           1     -21.504 -10.621  -2.290  0.00  0.00     0.189 C 
ENDROOT
BRANCH   1   2
HETATM    2  C           1     -21.216 -12.011  -2.803  0.00  0.00     0.197 C 
HETATM    3  O           1     -21.986 -12.954  -2.517  0.00  0.00    -0.646 OA
HETATM    4  O           1     -20.209 -12.218  -3.514  0.00  0.00    -0.646 OA
ENDBRANCH   1   2
BRANCH   1   5
HETATM    5  C           1     -20.327  -9.708  -2.608  0.00  0.00     0.074 C 
BRANCH   5   6
HETATM    6  C           1     -20.797  -8.562  -3.451  0.00  0.00    -0.056 A 
HETATM    7  C           1     -20.979  -8.735  -4.824  0.00  0.00     0.010 A 
HETATM    8  C           1     -21.415  -7.668  -5.608  0.00  0.00     0.038 A 
HETATM    9  C           1     -21.672  -6.429  -5.020  0.00  0.00     0.081 A 
HETATM   10  C           1     -21.490  -6.257  -3.649  0.00  0.00     0.038 A 
HETATM   11  C           1     -21.054  -7.324  -2.863  0.00  0.00     0.010 A 
BRANCH   9  12
HETATM   12  O           1     -22.097  -5.392  -5.783  0.00  0.00    -0.247 OA
BRANCH  12  13
HETATM   13  P           1     -21.040  -4.712  -6.796  0.00  0.00     0.411 P 
HETATM   14  O           1     -21.442  -3.313  -7.064  0.00  0.00    -0.624 OA
HETATM   15  O           1     -21.017  -5.471  -8.066  0.00  0.00    -0.624 OA
BRANCH  13  16
HETATM   16  O           1     -19.568  -4.731  -6.131  0.00  0.00    -0.300 OA
HETATM   17  H           1     -19.682  -5.158  -5.299  0.00  0.00     0.223 HD
ENDBRANCH  13  16
ENDBRANCH  12  13
ENDBRANCH   9  12
ENDBRANCH   5   6
ENDBRANCH   1   5
BRANCH   1  18
HETATM   18  N           1     -21.703 -10.669  -0.855  0.00  0.00    -0.344 N 
HETATM   19  C           1     -22.693  -9.920  -0.275  0.00  0.00     0.248 C 
HETATM   20  O           1     -23.800 -10.384  -0.139  0.00  0.00    -0.271 OA
HETATM   21  H           1     -21.111 -11.255  -0.281  0.00  0.00     0.163 HD
BRANCH  19  22
HETATM   22  C           1     -22.401  -8.516   0.193  0.00  0.00     0.270 C 
HETATM   23  C           1     -21.292  -8.548   1.237  0.00  0.00     0.050 C 
BRANCH  22  24
HETATM   24  N           1     -23.639  -7.923   0.798  0.00  0.00    -0.067 N 
HETATM   25  H           1     -24.433  -8.595   0.695  0.00  0.00     0.275 HD
HETATM   26  H           1     -23.474  -7.733   1.813  0.00  0.00     0.275 HD
HETATM   27  H           1     -23.872  -7.029   0.309  0.00  0.00     0.275 HD
ENDBRANCH  22  24
ENDBRANCH  19  22
ENDBRANCH   1  18
TORSDOF 9
ENDMDL
MODEL 8
REMARK VINA RESULT:      -6.2      3.623      7.800
REMARK  9 active torsions:
REMARK  status: ('A' for Active; 'I' for Inactive)
REMARK    1  A    between atoms: O_2  and  C_12 
REMARK    2  A    between atoms: O_2  and  P_3 
REMARK    3  A    between atoms: P_3  and  O_8 
REMARK    4  A    between atoms: C_4  and  C_6 
REMARK    5  A    between atoms: C_6  and  C_16 
REMARK    6  A    between atoms: C_6  and  N_19 
REMARK    7  A    between atoms: N_10  and  C_17 
REMARK    8  A    between atoms: C_15  and  C_16 
REMARK    9  A    between atoms: C_17  and  C_18 
REMARK       I    between atoms: C_18  and  N_19 
ROOT
HETATM    1  C           1     -23.662  -4.480  -9.869  0.00  0.00     0.189 C 
ENDROOT
BRANCH   1   2
HETATM    2  C           1     -24.693  -3.435 -10.218  0.00  0.00     0.197 C 
HETATM    3  O           1     -25.143  -3.366 -11.382  0.00  0.00    -0.646 OA
HETATM    4  O           1     -25.097  -2.640  -9.342  0.00  0.00    -0.646 OA
ENDBRANCH   1   2
BRANCH   1   5
HETATM    5  C           1     -22.579  -3.855  -9.000  0.00  0.00     0.074 C 
BRANCH   5   6
HETATM    6  C           1     -22.326  -4.729  -7.811  0.00  0.00    -0.056 A 
HETATM    7  C           1     -21.095  -5.371  -7.666  0.00  0.00     0.010 A 
HETATM    8  C           1     -20.860  -6.186  -6.560  0.00  0.00     0.038 A 
HETATM    9  C           1     -21.854  -6.359  -5.597  0.00  0.00     0.081 A 
HETATM   10  C           1     -23.084  -5.718  -5.741  0.00  0.00     0.038 A 
HETATM   11  C           1     -23.320  -4.902  -6.848  0.00  0.00     0.010 A 
BRANCH   9  12
HETATM   12  O           1     -21.625  -7.151  -4.520  0.00  0.00    -0.247 OA
BRANCH  12  13
HETATM   13  P           1     -21.386  -6.438  -3.091  0.00  0.00     0.411 P 
HETATM   14  O           1     -22.693  -6.101  -2.483  0.00  0.00    -0.624 OA
HETATM   15  O           1     -20.598  -5.201  -3.284  0.00  0.00    -0.624 OA
BRANCH  13  16
HETATM   16  O           1     -20.582  -7.443  -2.116  0.00  0.00    -0.300 OA
HETATM   17  H           1     -20.981  -8.285  -2.251  0.00  0.00     0.223 HD
ENDBRANCH  13  16
ENDBRANCH  12  13
ENDBRANCH   9  12
ENDBRANCH   5   6
ENDBRANCH   1   5
BRANCH   1  18
HETATM   18  N           1     -23.065  -4.993 -11.087  0.00  0.00    -0.344 N 
HETATM   19  C           1     -21.924  -4.422 -11.585  0.00  0.00     0.248 C 
HETATM   20  O           1     -20.842  -4.835 -11.239  0.00  0.00    -0.271 OA
HETATM   21  H           1     -23.492  -5.774 -11.570  0.00  0.00     0.163 HD
BRANCH  19  22
HETATM   22  C           1     -22.018  -3.277 -12.563  0.00  0.00     0.270 C 
HETATM   23  C           1     -22.130  -1.964 -11.799  0.00  0.00     0.050 C 
BRANCH  22  24
HETATM   24  N           1     -23.229  -3.457 -13.428  0.00  0.00    -0.067 N 
HETATM   25  H           1     -22.931  -3.638 -14.413  0.00  0.00     0.275 HD
HETATM   26  H           1     -23.789  -4.268 -13.079  0.00  0.00     0.275 HD
HETATM   27  H           1     -23.813  -2.591 -13.395  0.00  0.00     0.275 HD
ENDBRANCH  22  24
ENDBRANCH  19  22
ENDBRANCH   1  18
TORSDOF 9
ENDMDL
MODEL 9
REMARK VINA RESULT:      -6.2      2.122      3.189
REMARK  9 active torsions:
REMARK  status: ('A' for Active; 'I' for Inactive)
REMARK    1  A    between atoms: O_2  and  C_12 
REMARK    2  A    between atoms: O_2  and  P_3 
REMARK    3  A    between atoms: P_3  and  O_8 
REMARK    4  A    between atoms: C_4  and  C_6 
REMARK    5  A    between atoms: C_6  and  C_16 
REMARK    6  A    between atoms: C_6  and  N_19 
REMARK    7  A    between atoms: N_10  and  C_17 
REMARK    8  A    between atoms: C_15  and  C_16 
REMARK    9  A    between atoms: C_17  and  C_18 
REMARK       I    between atoms: C_18  and  N_19 
ROOT
HETATM    1  C           1     -20.490  -6.007  -4.842  0.00  0.00     0.189 C 
ENDROOT
BRANCH   1   2
HETATM    2  C           1     -21.918  -6.141  -4.372  0.00  0.00     0.197 C 
HETATM    3  O           1     -22.836  -6.308  -5.203  0.00  0.00    -0.646 OA
HETATM    4  O           1     -22.182  -6.085  -3.151  0.00  0.00    -0.646 OA
ENDBRANCH   1   2
BRANCH   1   5
HETATM    5  C           1     -20.285  -4.628  -5.457  0.00  0.00     0.074 C 
BRANCH   5   6
HETATM    6  C           1     -20.717  -4.652  -6.891  0.00  0.00    -0.056 A 
HETATM    7  C           1     -22.029  -4.316  -7.230  0.00  0.00     0.010 A 
HETATM    8  C           1     -22.431  -4.339  -8.565  0.00  0.00     0.038 A 
HETATM    9  C           1     -21.523  -4.697  -9.561  0.00  0.00     0.081 A 
HETATM   10  C           1     -20.212  -5.033  -9.222  0.00  0.00     0.038 A 
HETATM   11  C           1     -19.809  -5.010  -7.887  0.00  0.00     0.010 A 
BRANCH   9  12
HETATM   12  O           1     -21.914  -4.719 -10.859  0.00  0.00    -0.247 OA
BRANCH  12  13
HETATM   13  P           1     -21.957  -3.318 -11.662  0.00  0.00     0.411 P 
HETATM   14  O           1     -20.829  -2.465 -11.226  0.00  0.00    -0.624 OA
HETATM   15  O           1     -23.235  -2.628 -11.380  0.00  0.00    -0.624 OA
BRANCH  13  16
HETATM   16  O           1     -21.835  -3.602 -13.247  0.00  0.00    -0.300 OA
HETATM   17  H           1     -20.939  -3.860 -13.380  0.00  0.00     0.223 HD
ENDBRANCH  13  16
ENDBRANCH  12  13
ENDBRANCH   9  12
ENDBRANCH   5   6
ENDBRANCH   1   5
BRANCH   1  18
HETATM   18  N           1     -20.213  -7.025  -5.836  0.00  0.00    -0.344 N 
HETATM   19  C           1     -20.169  -8.344  -5.472  0.00  0.00     0.248 C 
HETATM   20  O           1     -21.174  -9.014  -5.506  0.00  0.00    -0.271 OA
HETATM   21  H           1     -20.052  -6.760  -6.800  0.00  0.00     0.163 HD
BRANCH  19  22
HETATM   22  C           1     -18.866  -8.962  -5.027  0.00  0.00     0.270 C 
HETATM   23  C           1     -18.040  -9.343  -6.249  0.00  0.00     0.050 C 
BRANCH  22  24
HETATM   24  N           1     -19.147 -10.188  -4.211  0.00  0.00    -0.067 N 
HETATM   25  H           1     -18.629 -11.002  -4.614  0.00  0.00     0.275 HD
HETATM   26  H           1     -18.834 -10.031  -3.226  0.00  0.00     0.275 HD
HETATM   27  H           1     -20.173 -10.387  -4.223  0.00  0.00     0.275 HD
ENDBRANCH  22  24
ENDBRANCH  19  22
ENDBRANCH   1  18
TORSDOF 9
ENDMDL
