MODEL 1
REMARK VINA RESULT:      -5.7      0.000      0.000
REMARK  8 active torsions:
REMARK  status: ('A' for Active; 'I' for Inactive)
REMARK    1  A    between atoms: N_3  and  C_6 
REMARK    2  A    between atoms: Se_4  and  C_5 
REMARK    3  A    between atoms: C_5  and  C_6 
REMARK    4  A    between atoms: C_6  and  C_7 
REMARK       I    between atoms: C_7  and  N_8 
REMARK    5  A    between atoms: N_8  and  C_12 
REMARK    6  A    between atoms: C_11  and  C_12 
REMARK    7  A    between atoms: C_12  and  C_14 
REMARK    8  A    between atoms: C_14  and  C_15 
ROOT
HETATM    1  H           1     -34.936   0.219 -12.076  0.00  0.00     0.163 HD
HETATM    2  O           1     -37.563  -0.716 -13.513  0.00  0.00    -0.271 OA
HETATM    3  C           1     -36.501  -0.157 -13.377  0.00  0.00     0.249 C 
HETATM    4  N           1     -35.826  -0.250 -12.190  0.00  0.00    -0.344 N 
ENDROOT
BRANCH   3   5
HETATM    5  C           1     -35.919   0.644 -14.515  0.00  0.00     0.274 C 
BRANCH   5   6
HETATM    6  N           1     -34.445   0.379 -14.610  0.00  0.00    -0.067 N 
HETATM    7  H           1     -33.922   1.136 -14.112  0.00  0.00     0.275 HD
HETATM    8  H           1     -34.229  -0.543 -14.167  0.00  0.00     0.275 HD
HETATM    9  H           1     -34.158   0.360 -15.614  0.00  0.00     0.275 HD
ENDBRANCH   5   6
BRANCH   5  10
HETATM   10  C           1     -36.591   0.237 -15.820  0.00  0.00     0.045 C 
BRANCH  10  11
HETATM   11 Se           1     -35.626  -1.261 -16.609  0.00  0.00     0.000 Se
HETATM   12  H           1     -36.265  -1.129 -17.928  0.00  0.00     0.000 HD
ENDBRANCH  10  11
ENDBRANCH   5  10
ENDBRANCH   3   5
BRANCH   4  13
HETATM   13  C           1     -36.386  -1.019 -11.095  0.00  0.00     0.189 C 
BRANCH  13  14
HETATM   14  C           1     -36.815  -0.083  -9.992  0.00  0.00     0.197 C 
HETATM   15  O           1     -37.725   0.750 -10.198  0.00  0.00    -0.646 OA
HETATM   16  O           1     -36.262  -0.141  -8.873  0.00  0.00    -0.646 OA
ENDBRANCH  13  14
BRANCH  13  17
HETATM   17  C           1     -35.334  -1.983 -10.564  0.00  0.00     0.014 C 
HETATM   18  C           1     -35.807  -3.416 -10.774  0.00  0.00     0.012 C 
BRANCH  17  19
HETATM   19  C           1     -34.023  -1.765 -11.308  0.00  0.00     0.002 C 
HETATM   20  C           1     -33.196  -3.043 -11.264  0.00  0.00     0.005 C 
ENDBRANCH  17  19
ENDBRANCH  13  17
ENDBRANCH   4  13
TORSDOF 8
ENDMDL
MODEL 2
REMARK VINA RESULT:      -5.6     13.256     15.342
REMARK  8 active torsions:
REMARK  status: ('A' for Active; 'I' for Inactive)
REMARK    1  A    between atoms: N_3  and  C_6 
REMARK    2  A    between atoms: Se_4  and  C_5 
REMARK    3  A    between atoms: C_5  and  C_6 
REMARK    4  A    between atoms: C_6  and  C_7 
REMARK       I    between atoms: C_7  and  N_8 
REMARK    5  A    between atoms: N_8  and  C_12 
REMARK    6  A    between atoms: C_11  and  C_12 
REMARK    7  A    between atoms: C_12  and  C_14 
REMARK    8  A    between atoms: C_14  and  C_15 
ROOT
HETATM    1  H           1     -22.400  -5.800  -9.270  0.00  0.00     0.163 HD
HETATM    2  O           1     -21.699  -3.387  -7.391  0.00  0.00    -0.271 OA
HETATM    3  C           1     -21.756  -4.535  -7.764  0.00  0.00     0.249 C 
HETATM    4  N           1     -22.351  -4.839  -8.958  0.00  0.00    -0.344 N 
ENDROOT
BRANCH   3   5
HETATM    5  C           1     -21.170  -5.634  -6.911  0.00  0.00     0.274 C 
BRANCH   5   6
HETATM    6  N           1     -19.946  -6.187  -7.581  0.00  0.00    -0.067 N 
HETATM    7  H           1     -19.092  -5.782  -7.135  0.00  0.00     0.275 HD
HETATM    8  H           1     -19.934  -7.227  -7.478  0.00  0.00     0.275 HD
HETATM    9  H           1     -19.962  -5.937  -8.595  0.00  0.00     0.275 HD
ENDBRANCH   5   6
BRANCH   5  10
HETATM   10  C           1     -20.791  -5.073  -5.547  0.00  0.00     0.045 C 
BRANCH  10  11
HETATM   11 Se           1     -21.399  -6.290  -4.152  0.00  0.00     0.000 Se
HETATM   12  H           1     -22.582  -5.486  -3.804  0.00  0.00     0.000 HD
ENDBRANCH  10  11
ENDBRANCH   5  10
ENDBRANCH   3   5
BRANCH   4  13
HETATM   13  C           1     -22.915  -3.782  -9.776  0.00  0.00     0.189 C 
BRANCH  13  14
HETATM   14  C           1     -24.420  -3.813  -9.671  0.00  0.00     0.197 C 
HETATM   15  O           1     -25.033  -4.895  -9.799  0.00  0.00    -0.646 OA
HETATM   16  O           1     -25.053  -2.757  -9.455  0.00  0.00    -0.646 OA
ENDBRANCH  13  14
BRANCH  13  17
HETATM   17  C           1     -22.502  -3.991 -11.227  0.00  0.00     0.014 C 
HETATM   18  C           1     -22.789  -2.724 -12.023  0.00  0.00     0.012 C 
BRANCH  17  19
HETATM   19  C           1     -21.013  -4.306 -11.291  0.00  0.00     0.002 C 
HETATM   20  C           1     -20.215  -3.015 -11.172  0.00  0.00     0.005 C 
ENDBRANCH  17  19
ENDBRANCH  13  17
ENDBRANCH   4  13
TORSDOF 8
ENDMDL
MODEL 3
REMARK VINA RESULT:      -5.2      1.583      1.839
REMARK  8 active torsions:
REMARK  status: ('A' for Active; 'I' for Inactive)
REMARK    1  A    between atoms: N_3  and  C_6 
REMARK    2  A    between atoms: Se_4  and  C_5 
REMARK    3  A    between atoms: C_5  and  C_6 
REMARK    4  A    between atoms: C_6  and  C_7 
REMARK       I    between atoms: C_7  and  N_8 
REMARK    5  A    between atoms: N_8  and  C_12 
REMARK    6  A    between atoms: C_11  and  C_12 
REMARK    7  A    between atoms: C_12  and  C_14 
REMARK    8  A    between atoms: C_14  and  C_15 
ROOT
HETATM    1  H           1     -33.886  -1.214 -12.257  0.00  0.00     0.163 HD
HETATM    2  O           1     -36.680  -1.161 -13.682  0.00  0.00    -0.271 OA
HETATM    3  C           1     -35.509  -0.922 -13.507  0.00  0.00     0.249 C 
HETATM    4  N           1     -34.867  -1.415 -12.403  0.00  0.00    -0.344 N 
ENDROOT
BRANCH   3   5
HETATM    5  C           1     -34.754  -0.081 -14.506  0.00  0.00     0.274 C 
BRANCH   5   6
HETATM    6  N           1     -35.108  -0.520 -15.897  0.00  0.00    -0.067 N 
HETATM    7  H           1     -35.461  -1.503 -15.873  0.00  0.00     0.275 HD
HETATM    8  H           1     -35.851   0.108 -16.281  0.00  0.00     0.275 HD
HETATM    9  H           1     -34.260  -0.468 -16.505  0.00  0.00     0.275 HD
ENDBRANCH   5   6
BRANCH   5  10
HETATM   10  C           1     -35.130   1.384 -14.327  0.00  0.00     0.045 C 
BRANCH  10  11
HETATM   11 Se           1     -36.079   2.011 -15.909  0.00  0.00     0.000 Se
HETATM   12  H           1     -35.260   3.225 -16.062  0.00  0.00     0.000 HD
ENDBRANCH  10  11
ENDBRANCH   5  10
ENDBRANCH   3   5
BRANCH   4  13
HETATM   13  C           1     -35.593  -2.222 -11.443  0.00  0.00     0.189 C 
BRANCH  13  14
HETATM   14  C           1     -36.336  -1.321 -10.487  0.00  0.00     0.197 C 
HETATM   15  O           1     -35.709  -0.696  -9.603  0.00  0.00    -0.646 OA
HETATM   16  O           1     -37.576  -1.199 -10.579  0.00  0.00    -0.646 OA
ENDBRANCH  13  14
BRANCH  13  17
HETATM   17  C           1     -34.612  -3.089 -10.665  0.00  0.00     0.014 C 
HETATM   18  C           1     -35.001  -4.555 -10.815  0.00  0.00     0.012 C 
BRANCH  17  19
HETATM   19  C           1     -33.206  -2.879 -11.212  0.00  0.00     0.002 C 
HETATM   20  C           1     -32.728  -4.155 -11.892  0.00  0.00     0.005 C 
ENDBRANCH  17  19
ENDBRANCH  13  17
ENDBRANCH   4  13
TORSDOF 8
ENDMDL
MODEL 4
REMARK VINA RESULT:      -4.9      3.313      4.643
REMARK  8 active torsions:
REMARK  status: ('A' for Active; 'I' for Inactive)
REMARK    1  A    between atoms: N_3  and  C_6 
REMARK    2  A    between atoms: Se_4  and  C_5 
REMARK    3  A    between atoms: C_5  and  C_6 
REMARK    4  A    between atoms: C_6  and  C_7 
REMARK       I    between atoms: C_7  and  N_8 
REMARK    5  A    between atoms: N_8  and  C_12 
REMARK    6  A    between atoms: C_11  and  C_12 
REMARK    7  A    between atoms: C_12  and  C_14 
REMARK    8  A    between atoms: C_14  and  C_15 
ROOT
HETATM    1  H           1     -36.299  -2.570 -11.634  0.00  0.00     0.163 HD
HETATM    2  O           1     -34.698   0.097 -12.046  0.00  0.00    -0.271 OA
HETATM    3  C           1     -35.595  -0.624 -11.678  0.00  0.00     0.249 C 
HETATM    4  N           1     -35.547  -1.966 -11.942  0.00  0.00    -0.344 N 
ENDROOT
BRANCH   3   5
HETATM    5  C           1     -36.768  -0.044 -10.926  0.00  0.00     0.274 C 
BRANCH   5   6
HETATM    6  N           1     -38.014  -0.200 -11.748  0.00  0.00    -0.067 N 
HETATM    7  H           1     -38.304  -1.204 -11.754  0.00  0.00     0.275 HD
HETATM    8  H           1     -38.778   0.380 -11.333  0.00  0.00     0.275 HD
HETATM    9  H           1     -37.828   0.116 -12.726  0.00  0.00     0.275 HD
ENDBRANCH   5   6
BRANCH   5  10
HETATM   10  C           1     -36.939  -0.779  -9.603  0.00  0.00     0.045 C 
BRANCH  10  11
HETATM   11 Se           1     -36.829   0.495  -8.132  0.00  0.00     0.000 Se
HETATM   12  H           1     -35.482   0.969  -8.490  0.00  0.00     0.000 HD
ENDBRANCH  10  11
ENDBRANCH   5  10
ENDBRANCH   3   5
BRANCH   4  13
HETATM   13  C           1     -34.421  -2.523 -12.665  0.00  0.00     0.189 C 
BRANCH  13  14
HETATM   14  C           1     -34.761  -2.615 -14.133  0.00  0.00     0.197 C 
HETATM   15  O           1     -35.299  -1.645 -14.711  0.00  0.00    -0.646 OA
HETATM   16  O           1     -34.505  -3.659 -14.769  0.00  0.00    -0.646 OA
ENDBRANCH  13  14
BRANCH  13  17
HETATM   17  C           1     -34.111  -3.914 -12.128  0.00  0.00     0.014 C 
HETATM   18  C           1     -32.629  -4.008 -11.788  0.00  0.00     0.012 C 
BRANCH  17  19
HETATM   19  C           1     -34.937  -4.168 -10.873  0.00  0.00     0.002 C 
HETATM   20  C           1     -34.629  -5.560 -10.336  0.00  0.00     0.005 C 
ENDBRANCH  17  19
ENDBRANCH  13  17
ENDBRANCH   4  13
TORSDOF 8
ENDMDL
MODEL 5
REMARK VINA RESULT:      -4.9      1.649      2.217
REMARK  8 active torsions:
REMARK  status: ('A' for Active; 'I' for Inactive)
REMARK    1  A    between atoms: N_3  and  C_6 
REMARK    2  A    between atoms: Se_4  and  C_5 
REMARK    3  A    between atoms: C_5  and  C_6 
REMARK    4  A    between atoms: C_6  and  C_7 
REMARK       I    between atoms: C_7  and  N_8 
REMARK    5  A    between atoms: N_8  and  C_12 
REMARK    6  A    between atoms: C_11  and  C_12 
REMARK    7  A    between atoms: C_12  and  C_14 
REMARK    8  A    between atoms: C_14  and  C_15 
ROOT
HETATM    1  H           1     -34.378  -1.599 -13.374  0.00  0.00     0.163 HD
HETATM    2  O           1     -37.183  -0.510 -12.486  0.00  0.00    -0.271 OA
HETATM    3  C           1     -36.189  -0.619 -13.163  0.00  0.00     0.249 C 
HETATM    4  N           1     -35.211  -1.508 -12.806  0.00  0.00    -0.344 N 
ENDROOT
BRANCH   3   5
HETATM    5  C           1     -36.026   0.224 -14.404  0.00  0.00     0.274 C 
BRANCH   5   6
HETATM    6  N           1     -34.570   0.313 -14.760  0.00  0.00    -0.067 N 
HETATM    7  H           1     -34.469   0.736 -15.710  0.00  0.00     0.275 HD
HETATM    8  H           1     -34.077   0.911 -14.058  0.00  0.00     0.275 HD
HETATM    9  H           1     -34.152  -0.645 -14.757  0.00  0.00     0.275 HD
ENDBRANCH   5   6
BRANCH   5  10
HETATM   10  C           1     -36.791  -0.412 -15.557  0.00  0.00     0.045 C 
BRANCH  10  11
HETATM   11 Se           1     -35.552  -1.397 -16.694  0.00  0.00     0.000 Se
HETATM   12  H           1     -35.563  -2.607 -15.855  0.00  0.00     0.000 HD
ENDBRANCH  10  11
ENDBRANCH   5  10
ENDBRANCH   3   5
BRANCH   4  13
HETATM   13  C           1     -35.368  -2.318 -11.614  0.00  0.00     0.189 C 
BRANCH  13  14
HETATM   14  C           1     -34.550  -1.725 -10.492  0.00  0.00     0.197 C 
HETATM   15  O           1     -33.305  -1.666 -10.590  0.00  0.00    -0.646 OA
HETATM   16  O           1     -35.119  -1.292  -9.467  0.00  0.00    -0.646 OA
ENDBRANCH  13  14
BRANCH  13  17
HETATM   17  C           1     -34.889  -3.735 -11.897  0.00  0.00     0.014 C 
HETATM   18  C           1     -34.037  -3.739 -13.161  0.00  0.00     0.012 C 
BRANCH  17  19
HETATM   19  C           1     -34.059  -4.235 -10.722  0.00  0.00     0.002 C 
HETATM   20  C           1     -34.293  -5.728 -10.534  0.00  0.00     0.005 C 
ENDBRANCH  17  19
ENDBRANCH  13  17
ENDBRANCH   4  13
TORSDOF 8
ENDMDL
MODEL 6
REMARK VINA RESULT:      -4.9     13.289     15.047
REMARK  8 active torsions:
REMARK  status: ('A' for Active; 'I' for Inactive)
REMARK    1  A    between atoms: N_3  and  C_6 
REMARK    2  A    between atoms: Se_4  and  C_5 
REMARK    3  A    between atoms: C_5  and  C_6 
REMARK    4  A    between atoms: C_6  and  C_7 
REMARK       I    between atoms: C_7  and  N_8 
REMARK    5  A    between atoms: N_8  and  C_12 
REMARK    6  A    between atoms: C_11  and  C_12 
REMARK    7  A    between atoms: C_12  and  C_14 
REMARK    8  A    between atoms: C_14  and  C_15 
ROOT
HETATM    1  H           1     -20.355  -3.881  -9.607  0.00  0.00     0.163 HD
HETATM    2  O           1     -23.419  -4.423 -10.004  0.00  0.00    -0.271 OA
HETATM    3  C           1     -22.320  -3.986 -10.248  0.00  0.00     0.249 C 
HETATM    4  N           1     -21.275  -4.248  -9.403  0.00  0.00    -0.344 N 
ENDROOT
BRANCH   3   5
HETATM    5  C           1     -22.098  -3.151 -11.485  0.00  0.00     0.274 C 
BRANCH   5   6
HETATM    6  N           1     -21.248  -3.915 -12.458  0.00  0.00    -0.067 N 
HETATM    7  H           1     -20.887  -3.264 -13.192  0.00  0.00     0.275 HD
HETATM    8  H           1     -20.443  -4.348 -11.950  0.00  0.00     0.275 HD
HETATM    9  H           1     -21.820  -4.665 -12.907  0.00  0.00     0.275 HD
ENDBRANCH   5   6
BRANCH   5  10
HETATM   10  C           1     -23.440  -2.830 -12.131  0.00  0.00     0.045 C 
BRANCH  10  11
HETATM   11 Se           1     -23.217  -2.693 -14.061  0.00  0.00     0.000 Se
HETATM   12  H           1     -21.877  -2.089 -13.980  0.00  0.00     0.000 HD
ENDBRANCH  10  11
ENDBRANCH   5  10
ENDBRANCH   3   5
BRANCH   4  13
HETATM   13  C           1     -21.489  -5.050  -8.214  0.00  0.00     0.189 C 
BRANCH  13  14
HETATM   14  C           1     -22.189  -4.219  -7.166  0.00  0.00     0.197 C 
HETATM   15  O           1     -21.710  -3.117  -6.820  0.00  0.00    -0.646 OA
HETATM   16  O           1     -23.247  -4.633  -6.646  0.00  0.00    -0.646 OA
ENDBRANCH  13  14
BRANCH  13  17
HETATM   17  C           1     -20.145  -5.522  -7.674  0.00  0.00     0.014 C 
HETATM   18  C           1     -19.090  -4.453  -7.933  0.00  0.00     0.012 C 
BRANCH  17  19
HETATM   19  C           1     -20.260  -5.771  -6.175  0.00  0.00     0.002 C 
HETATM   20  C           1     -20.623  -7.229  -5.929  0.00  0.00     0.005 C 
ENDBRANCH  17  19
ENDBRANCH  13  17
ENDBRANCH   4  13
TORSDOF 8
ENDMDL
MODEL 7
REMARK VINA RESULT:      -4.8     15.829     17.441
REMARK  8 active torsions:
REMARK  status: ('A' for Active; 'I' for Inactive)
REMARK    1  A    between atoms: N_3  and  C_6 
REMARK    2  A    between atoms: Se_4  and  C_5 
REMARK    3  A    between atoms: C_5  and  C_6 
REMARK    4  A    between atoms: C_6  and  C_7 
REMARK       I    between atoms: C_7  and  N_8 
REMARK    5  A    between atoms: N_8  and  C_12 
REMARK    6  A    between atoms: C_11  and  C_12 
REMARK    7  A    between atoms: C_12  and  C_14 
REMARK    8  A    between atoms: C_14  and  C_15 
ROOT
HETATM    1  H           1     -22.458  -6.771  -5.760  0.00  0.00     0.163 HD
HETATM    2  O           1     -19.920  -4.941  -5.993  0.00  0.00    -0.271 OA
HETATM    3  C           1     -21.051  -5.316  -6.194  0.00  0.00     0.249 C 
HETATM    4  N           1     -21.511  -6.456  -5.592  0.00  0.00    -0.344 N 
ENDROOT
BRANCH   3   5
HETATM    5  C           1     -21.956  -4.527  -7.108  0.00  0.00     0.274 C 
BRANCH   5   6
HETATM    6  N           1     -21.573  -3.077  -7.059  0.00  0.00    -0.067 N 
HETATM    7  H           1     -22.404  -2.489  -7.299  0.00  0.00     0.275 HD
HETATM    8  H           1     -21.243  -2.837  -6.096  0.00  0.00     0.275 HD
HETATM    9  H           1     -20.807  -2.895  -7.745  0.00  0.00     0.275 HD
ENDBRANCH   5   6
BRANCH   5  10
HETATM   10  C           1     -21.812  -5.041  -8.535  0.00  0.00     0.045 C 
BRANCH  10  11
HETATM   11 Se           1     -23.093  -4.129  -9.686  0.00  0.00     0.000 Se
HETATM   12  H           1     -22.466  -2.806  -9.532  0.00  0.00     0.000 HD
ENDBRANCH  10  11
ENDBRANCH   5  10
ENDBRANCH   3   5
BRANCH   4  13
HETATM   13  C           1     -20.641  -7.214  -4.714  0.00  0.00     0.189 C 
BRANCH  13  14
HETATM   14  C           1     -20.222  -8.491  -5.402  0.00  0.00     0.197 C 
HETATM   15  O           1     -21.082  -9.343  -5.714  0.00  0.00    -0.646 OA
HETATM   16  O           1     -19.016  -8.696  -5.658  0.00  0.00    -0.646 OA
ENDBRANCH  13  14
BRANCH  13  17
HETATM   17  C           1     -21.385  -7.549  -3.429  0.00  0.00     0.014 C 
HETATM   18  C           1     -20.443  -8.267  -2.470  0.00  0.00     0.012 C 
BRANCH  17  19
HETATM   19  C           1     -21.886  -6.264  -2.783  0.00  0.00     0.002 C 
HETATM   20  C           1     -22.277  -6.541  -1.337  0.00  0.00     0.005 C 
ENDBRANCH  17  19
ENDBRANCH  13  17
ENDBRANCH   4  13
TORSDOF 8
ENDMDL
MODEL 8
REMARK VINA RESULT:      -4.7      2.781      5.566
REMARK  8 active torsions:
REMARK  status: ('A' for Active; 'I' for Inactive)
REMARK    1  A    between atoms: N_3  and  C_6 
REMARK    2  A    between atoms: Se_4  and  C_5 
REMARK    3  A    between atoms: C_5  and  C_6 
REMARK    4  A    between atoms: C_6  and  C_7 
REMARK       I    between atoms: C_7  and  N_8 
REMARK    5  A    between atoms: N_8  and  C_12 
REMARK    6  A    between atoms: C_11  and  C_12 
REMARK    7  A    between atoms: C_12  and  C_14 
REMARK    8  A    between atoms: C_14  and  C_15 
ROOT
HETATM    1  H           1     -34.076  -1.407 -14.333  0.00  0.00     0.163 HD
HETATM    2  O           1     -36.442  -1.596 -12.281  0.00  0.00    -0.271 OA
HETATM    3  C           1     -35.333  -1.766 -12.728  0.00  0.00     0.249 C 
HETATM    4  N           1     -35.005  -1.264 -13.959  0.00  0.00    -0.344 N 
ENDROOT
BRANCH   3   5
HETATM    5  C           1     -34.308  -2.533 -11.929  0.00  0.00     0.274 C 
BRANCH   5   6
HETATM    6  N           1     -33.757  -1.651 -10.847  0.00  0.00    -0.067 N 
HETATM    7  H           1     -33.678  -2.196  -9.959  0.00  0.00     0.275 HD
HETATM    8  H           1     -32.811  -1.306 -11.129  0.00  0.00     0.275 HD
HETATM    9  H           1     -34.395  -0.838 -10.702  0.00  0.00     0.275 HD
ENDBRANCH   5   6
BRANCH   5  10
HETATM   10  C           1     -34.963  -3.756 -11.300  0.00  0.00     0.045 C 
BRANCH  10  11
HETATM   11 Se           1     -33.644  -5.178 -11.116  0.00  0.00     0.000 Se
HETATM   12  H           1     -34.088  -5.904 -12.318  0.00  0.00     0.000 HD
ENDBRANCH  10  11
ENDBRANCH   5  10
ENDBRANCH   3   5
BRANCH   4  13
HETATM   13  C           1     -35.991  -0.528 -14.727  0.00  0.00     0.189 C 
BRANCH  13  14
HETATM   14  C           1     -35.922  -0.954 -16.173  0.00  0.00     0.197 C 
HETATM   15  O           1     -36.911  -0.791 -16.920  0.00  0.00    -0.646 OA
HETATM   16  O           1     -34.876  -1.471 -16.622  0.00  0.00    -0.646 OA
ENDBRANCH  13  14
BRANCH  13  17
HETATM   17  C           1     -35.703   0.964 -14.622  0.00  0.00     0.014 C 
HETATM   18  C           1     -34.482   1.184 -13.738  0.00  0.00     0.012 C 
BRANCH  17  19
HETATM   19  C           1     -35.433   1.527 -16.011  0.00  0.00     0.002 C 
HETATM   20  C           1     -36.315   2.747 -16.245  0.00  0.00     0.005 C 
ENDBRANCH  17  19
ENDBRANCH  13  17
ENDBRANCH   4  13
TORSDOF 8
ENDMDL
MODEL 9
REMARK VINA RESULT:      -4.6     14.399     16.574
REMARK  8 active torsions:
REMARK  status: ('A' for Active; 'I' for Inactive)
REMARK    1  A    between atoms: N_3  and  C_6 
REMARK    2  A    between atoms: Se_4  and  C_5 
REMARK    3  A    between atoms: C_5  and  C_6 
REMARK    4  A    between atoms: C_6  and  C_7 
REMARK       I    between atoms: C_7  and  N_8 
REMARK    5  A    between atoms: N_8  and  C_12 
REMARK    6  A    between atoms: C_11  and  C_12 
REMARK    7  A    between atoms: C_12  and  C_14 
REMARK    8  A    between atoms: C_14  and  C_15 
ROOT
HETATM    1  H           1     -22.194  -4.040  -6.783  0.00  0.00     0.163 HD
HETATM    2  O           1     -20.841  -6.852  -7.111  0.00  0.00    -0.271 OA
HETATM    3  C           1     -21.354  -5.917  -6.544  0.00  0.00     0.249 C 
HETATM    4  N           1     -21.765  -4.824  -7.258  0.00  0.00    -0.344 N 
ENDROOT
BRANCH   3   5
HETATM    5  C           1     -21.542  -5.954  -5.047  0.00  0.00     0.274 C 
BRANCH   5   6
HETATM    6  N           1     -22.992  -6.180  -4.731  0.00  0.00    -0.067 N 
HETATM    7  H           1     -23.549  -6.159  -5.616  0.00  0.00     0.275 HD
HETATM    8  H           1     -23.106  -7.111  -4.270  0.00  0.00     0.275 HD
HETATM    9  H           1     -23.329  -5.429  -4.089  0.00  0.00     0.275 HD
ENDBRANCH   5   6
BRANCH   5  10
HETATM   10  C           1     -20.713  -7.088  -4.458  0.00  0.00     0.045 C 
BRANCH  10  11
HETATM   11 Se           1     -21.264  -7.407  -2.616  0.00  0.00     0.000 Se
HETATM   12  H           1     -19.922  -7.808  -2.162  0.00  0.00     0.000 HD
ENDBRANCH  10  11
ENDBRANCH   5  10
ENDBRANCH   3   5
BRANCH   4  13
HETATM   13  C           1     -21.583  -4.788  -8.696  0.00  0.00     0.189 C 
BRANCH  13  14
HETATM   14  C           1     -20.150  -4.437  -9.013  0.00  0.00     0.197 C 
HETATM   15  O           1     -19.529  -3.630  -8.288  0.00  0.00    -0.646 OA
HETATM   16  O           1     -19.585  -4.955 -10.001  0.00  0.00    -0.646 OA
ENDBRANCH  13  14
BRANCH  13  17
HETATM   17  C           1     -22.508  -3.738  -9.297  0.00  0.00     0.014 C 
HETATM   18  C           1     -22.508  -3.871 -10.815  0.00  0.00     0.012 C 
BRANCH  17  19
HETATM   19  C           1     -23.922  -3.944  -8.768  0.00  0.00     0.002 C 
HETATM   20  C           1     -24.920  -3.306  -9.725  0.00  0.00     0.005 C 
ENDBRANCH  17  19
ENDBRANCH  13  17
ENDBRANCH   4  13
TORSDOF 8
ENDMDL
