MODEL 1
REMARK VINA RESULT:      -7.5      0.000      0.000
REMARK  11 active torsions:
REMARK  status: ('A' for Active; 'I' for Inactive)
REMARK    1  A    between atoms: C_1  and  C_15 
REMARK    2  A    between atoms: C_1  and  C_2 
REMARK    3  A    between atoms: C_2  and  C_3 
REMARK    4  A    between atoms: C_3  and  C_23 
REMARK    5  A    between atoms: N_8  and  C_15 
REMARK    6  A    between atoms: C_9  and  C_16 
REMARK    7  A    between atoms: N_11  and  C_16 
REMARK       I    between atoms: N_11  and  C_14 
REMARK    8  A    between atoms: C_13  and  C_25 
REMARK    9  A    between atoms: C_14  and  C_15 
REMARK   10  A    between atoms: C_16  and  C_25 
REMARK   11  A    between atoms: N_17  and  C_23 
ROOT
HETATM    1  N           1     -35.787  -1.268 -10.105  0.00  0.00    -0.344 N 
HETATM    2  H           1     -36.204  -1.615  -9.250  0.00  0.00     0.163 HD
HETATM    3  C           1     -34.749  -1.947 -10.685  0.00  0.00     0.249 C 
HETATM    4  O           1     -33.610  -1.685 -10.381  0.00  0.00    -0.271 OA
ENDROOT
BRANCH   3   5
HETATM    5  C           1     -35.030  -3.023 -11.706  0.00  0.00     0.274 C 
BRANCH   5   6
HETATM    6  C           1     -35.363  -4.326 -10.991  0.00  0.00     0.042 C 
BRANCH   6   7
HETATM    7  C           1     -34.663  -5.484 -11.691  0.00  0.00     0.004 C 
BRANCH   7   8
HETATM    8  C           1     -33.873  -6.292 -10.670  0.00  0.00     0.027 C 
BRANCH   8   9
HETATM    9  C           1     -34.619  -7.581 -10.353  0.00  0.00     0.229 C 
BRANCH   9  10
HETATM   10  N           1     -33.645  -8.720 -10.291  0.00  0.00    -0.079 N 
HETATM   11  H           1     -33.938  -9.389  -9.544  0.00  0.00     0.274 HD
HETATM   12  H           1     -32.691  -8.351 -10.074  0.00  0.00     0.274 HD
HETATM   13  H           1     -33.627  -9.214 -11.212  0.00  0.00     0.274 HD
ENDBRANCH   9  10
ENDBRANCH   8   9
ENDBRANCH   7   8
ENDBRANCH   6   7
ENDBRANCH   5   6
BRANCH   5  14
HETATM   14  N           1     -33.818  -3.222 -12.567  0.00  0.00    -0.067 N 
HETATM   15  H           1     -34.068  -3.824 -13.385  0.00  0.00     0.275 HD
HETATM   16  H           1     -33.066  -3.688 -12.010  0.00  0.00     0.275 HD
HETATM   17  H           1     -33.475  -2.296 -12.908  0.00  0.00     0.275 HD
ENDBRANCH   5  14
ENDBRANCH   3   5
BRANCH   1  18
HETATM   18  C           1     -36.289  -0.051 -10.713  0.00  0.00     0.189 C 
BRANCH  18  19
HETATM   19  C           1     -36.942   0.806  -9.657  0.00  0.00     0.197 C 
HETATM   20  O           1     -36.350   1.028  -8.579  0.00  0.00    -0.646 OA
HETATM   21  O           1     -38.074   1.294  -9.862  0.00  0.00    -0.646 OA
ENDBRANCH  18  19
BRANCH  18  22
HETATM   22  C           1     -37.311  -0.405 -11.785  0.00  0.00     0.074 C 
BRANCH  22  23
HETATM   23  C           1     -36.796   0.021 -13.125  0.00  0.00    -0.056 A 
HETATM   24  C           1     -35.490   0.489 -13.255  0.00  0.00     0.007 A 
HETATM   25  C           1     -35.011   0.887 -14.503  0.00  0.00     0.001 A 
HETATM   26  C           1     -35.839   0.813 -15.623  0.00  0.00     0.000 A 
HETATM   27  C           1     -37.147   0.344 -15.494  0.00  0.00     0.001 A 
HETATM   28  C           1     -37.625  -0.053 -14.245  0.00  0.00     0.007 A 
ENDBRANCH  22  23
ENDBRANCH  18  22
ENDBRANCH   1  18
TORSDOF 11
ENDMDL
MODEL 2
REMARK VINA RESULT:      -6.7     13.021     16.221
REMARK  11 active torsions:
REMARK  status: ('A' for Active; 'I' for Inactive)
REMARK    1  A    between atoms: C_1  and  C_15 
REMARK    2  A    between atoms: C_1  and  C_2 
REMARK    3  A    between atoms: C_2  and  C_3 
REMARK    4  A    between atoms: C_3  and  C_23 
REMARK    5  A    between atoms: N_8  and  C_15 
REMARK    6  A    between atoms: C_9  and  C_16 
REMARK    7  A    between atoms: N_11  and  C_16 
REMARK       I    between atoms: N_11  and  C_14 
REMARK    8  A    between atoms: C_13  and  C_25 
REMARK    9  A    between atoms: C_14  and  C_15 
REMARK   10  A    between atoms: C_16  and  C_25 
REMARK   11  A    between atoms: N_17  and  C_23 
ROOT
HETATM    1  N           1     -21.742  -3.787  -7.174  0.00  0.00    -0.344 N 
HETATM    2  H           1     -21.582  -2.789  -7.107  0.00  0.00     0.163 HD
HETATM    3  C           1     -22.960  -4.259  -7.583  0.00  0.00     0.249 C 
HETATM    4  O           1     -23.826  -4.482  -6.770  0.00  0.00    -0.271 OA
ENDROOT
BRANCH   3   5
HETATM    5  C           1     -23.221  -4.501  -9.049  0.00  0.00     0.274 C 
BRANCH   5   6
HETATM    6  C           1     -22.508  -3.437  -9.874  0.00  0.00     0.042 C 
BRANCH   6   7
HETATM    7  C           1     -22.467  -3.869 -11.335  0.00  0.00     0.004 C 
BRANCH   7   8
HETATM    8  C           1     -22.612  -2.645 -12.230  0.00  0.00     0.027 C 
BRANCH   8   9
HETATM    9  C           1     -23.419  -3.012 -13.467  0.00  0.00     0.229 C 
BRANCH   9  10
HETATM   10  N           1     -22.524  -2.999 -14.671  0.00  0.00    -0.079 N 
HETATM   11  H           1     -22.190  -2.025 -14.847  0.00  0.00     0.274 HD
HETATM   12  H           1     -23.056  -3.341 -15.504  0.00  0.00     0.274 HD
HETATM   13  H           1     -21.703  -3.624 -14.502  0.00  0.00     0.274 HD
ENDBRANCH   9  10
ENDBRANCH   8   9
ENDBRANCH   7   8
ENDBRANCH   6   7
ENDBRANCH   5   6
BRANCH   5  14
HETATM   14  N           1     -24.696  -4.431  -9.313  0.00  0.00    -0.067 N 
HETATM   15  H           1     -25.117  -5.380  -9.189  0.00  0.00     0.275 HD
HETATM   16  H           1     -24.861  -4.103 -10.291  0.00  0.00     0.275 HD
HETATM   17  H           1     -25.139  -3.763  -8.642  0.00  0.00     0.275 HD
ENDBRANCH   5  14
ENDBRANCH   3   5
BRANCH   1  18
HETATM   18  C           1     -20.680  -4.714  -6.836  0.00  0.00     0.189 C 
BRANCH  18  19
HETATM   19  C           1     -19.544  -4.555  -7.816  0.00  0.00     0.197 C 
HETATM   20  O           1     -18.410  -4.222  -7.410  0.00  0.00    -0.646 OA
HETATM   21  O           1     -19.738  -4.757  -9.034  0.00  0.00    -0.646 OA
ENDBRANCH  18  19
BRANCH  18  22
HETATM   22  C           1     -21.212  -6.140  -6.901  0.00  0.00     0.074 C 
BRANCH  22  23
HETATM   23  C           1     -21.265  -6.716  -5.520  0.00  0.00    -0.056 A 
HETATM   24  C           1     -21.259  -5.872  -4.411  0.00  0.00     0.007 A 
HETATM   25  C           1     -21.307  -6.410  -3.124  0.00  0.00     0.001 A 
HETATM   26  C           1     -21.362  -7.792  -2.948  0.00  0.00     0.000 A 
HETATM   27  C           1     -21.368  -8.638  -4.059  0.00  0.00     0.001 A 
HETATM   28  C           1     -21.320  -8.099  -5.345  0.00  0.00     0.007 A 
ENDBRANCH  22  23
ENDBRANCH  18  22
ENDBRANCH   1  18
TORSDOF 11
ENDMDL
MODEL 3
REMARK VINA RESULT:      -6.6     14.118     17.596
REMARK  11 active torsions:
REMARK  status: ('A' for Active; 'I' for Inactive)
REMARK    1  A    between atoms: C_1  and  C_15 
REMARK    2  A    between atoms: C_1  and  C_2 
REMARK    3  A    between atoms: C_2  and  C_3 
REMARK    4  A    between atoms: C_3  and  C_23 
REMARK    5  A    between atoms: N_8  and  C_15 
REMARK    6  A    between atoms: C_9  and  C_16 
REMARK    7  A    between atoms: N_11  and  C_16 
REMARK       I    between atoms: N_11  and  C_14 
REMARK    8  A    between atoms: C_13  and  C_25 
REMARK    9  A    between atoms: C_14  and  C_15 
REMARK   10  A    between atoms: C_16  and  C_25 
REMARK   11  A    between atoms: N_17  and  C_23 
ROOT
HETATM    1  N           1     -19.658  -7.097  -6.558  0.00  0.00    -0.344 N 
HETATM    2  H           1     -19.227  -7.653  -7.286  0.00  0.00     0.163 HD
HETATM    3  C           1     -20.095  -5.829  -6.835  0.00  0.00     0.249 C 
HETATM    4  O           1     -19.351  -4.889  -6.691  0.00  0.00    -0.271 OA
ENDROOT
BRANCH   3   5
HETATM    5  C           1     -21.508  -5.607  -7.317  0.00  0.00     0.274 C 
BRANCH   5   6
HETATM    6  C           1     -21.480  -4.836  -8.630  0.00  0.00     0.042 C 
BRANCH   6   7
HETATM    7  C           1     -22.836  -4.183  -8.865  0.00  0.00     0.004 C 
BRANCH   7   8
HETATM    8  C           1     -22.928  -3.708 -10.310  0.00  0.00     0.027 C 
BRANCH   8   9
HETATM    9  C           1     -24.380  -3.414 -10.658  0.00  0.00     0.229 C 
BRANCH   9  10
HETATM   10  N           1     -25.268  -3.899  -9.550  0.00  0.00    -0.079 N 
HETATM   11  H           1     -24.684  -4.168  -8.727  0.00  0.00     0.274 HD
HETATM   12  H           1     -25.812  -4.730  -9.878  0.00  0.00     0.274 HD
HETATM   13  H           1     -25.929  -3.137  -9.274  0.00  0.00     0.274 HD
ENDBRANCH   9  10
ENDBRANCH   8   9
ENDBRANCH   7   8
ENDBRANCH   6   7
ENDBRANCH   5   6
BRANCH   5  14
HETATM   14  N           1     -22.268  -4.819  -6.292  0.00  0.00    -0.067 N 
HETATM   15  H           1     -21.595  -4.294  -5.687  0.00  0.00     0.275 HD
HETATM   16  H           1     -22.832  -5.469  -5.699  0.00  0.00     0.275 HD
HETATM   17  H           1     -22.904  -4.144  -6.772  0.00  0.00     0.275 HD
ENDBRANCH   5  14
ENDBRANCH   3   5
BRANCH   1  18
HETATM   18  C           1     -19.812  -7.644  -5.224  0.00  0.00     0.189 C 
BRANCH  18  19
HETATM   19  C           1     -19.006  -8.913  -5.105  0.00  0.00     0.197 C 
HETATM   20  O           1     -18.369  -9.153  -4.057  0.00  0.00    -0.646 OA
HETATM   21  O           1     -18.977  -9.726  -6.055  0.00  0.00    -0.646 OA
ENDBRANCH  18  19
BRANCH  18  22
HETATM   22  C           1     -21.282  -7.948  -4.968  0.00  0.00     0.074 C 
BRANCH  22  23
HETATM   23  C           1     -21.602  -7.691  -3.528  0.00  0.00    -0.056 A 
HETATM   24  C           1     -21.617  -8.746  -2.617  0.00  0.00     0.007 A 
HETATM   25  C           1     -21.916  -8.507  -1.276  0.00  0.00     0.001 A 
HETATM   26  C           1     -22.198  -7.210  -0.846  0.00  0.00     0.000 A 
HETATM   27  C           1     -22.183  -6.153  -1.757  0.00  0.00     0.001 A 
HETATM   28  C           1     -21.884  -6.394  -3.098  0.00  0.00     0.007 A 
ENDBRANCH  22  23
ENDBRANCH  18  22
ENDBRANCH   1  18
TORSDOF 11
ENDMDL
MODEL 4
REMARK VINA RESULT:      -6.6      2.238      3.988
REMARK  11 active torsions:
REMARK  status: ('A' for Active; 'I' for Inactive)
REMARK    1  A    between atoms: C_1  and  C_15 
REMARK    2  A    between atoms: C_1  and  C_2 
REMARK    3  A    between atoms: C_2  and  C_3 
REMARK    4  A    between atoms: C_3  and  C_23 
REMARK    5  A    between atoms: N_8  and  C_15 
REMARK    6  A    between atoms: C_9  and  C_16 
REMARK    7  A    between atoms: N_11  and  C_16 
REMARK       I    between atoms: N_11  and  C_14 
REMARK    8  A    between atoms: C_13  and  C_25 
REMARK    9  A    between atoms: C_14  and  C_15 
REMARK   10  A    between atoms: C_16  and  C_25 
REMARK   11  A    between atoms: N_17  and  C_23 
ROOT
HETATM    1  N           1     -34.777  -1.112 -12.721  0.00  0.00    -0.344 N 
HETATM    2  H           1     -34.058  -0.437 -12.950  0.00  0.00     0.163 HD
HETATM    3  C           1     -34.499  -2.452 -12.771  0.00  0.00     0.249 C 
HETATM    4  O           1     -34.673  -3.068 -13.795  0.00  0.00    -0.271 OA
ENDROOT
BRANCH   3   5
HETATM    5  C           1     -33.976  -3.159 -11.545  0.00  0.00     0.274 C 
BRANCH   5   6
HETATM    6  C           1     -35.048  -4.097 -11.004  0.00  0.00     0.042 C 
BRANCH   6   7
HETATM    7  C           1     -34.698  -5.534 -11.371  0.00  0.00     0.004 C 
BRANCH   7   8
HETATM    8  C           1     -34.285  -6.292 -10.116  0.00  0.00     0.027 C 
BRANCH   8   9
HETATM    9  C           1     -34.792  -7.726 -10.198  0.00  0.00     0.229 C 
BRANCH   9  10
HETATM   10  N           1     -33.625  -8.667 -10.252  0.00  0.00    -0.079 N 
HETATM   11  H           1     -32.940  -8.417  -9.504  0.00  0.00     0.274 HD
HETATM   12  H           1     -33.163  -8.595 -11.187  0.00  0.00     0.274 HD
HETATM   13  H           1     -33.960  -9.646 -10.103  0.00  0.00     0.274 HD
ENDBRANCH   9  10
ENDBRANCH   8   9
ENDBRANCH   7   8
ENDBRANCH   6   7
ENDBRANCH   5   6
BRANCH   5  14
HETATM   14  N           1     -33.625  -2.146 -10.495  0.00  0.00    -0.067 N 
HETATM   15  H           1     -33.066  -1.376 -10.929  0.00  0.00     0.275 HD
HETATM   16  H           1     -33.060  -2.603  -9.744  0.00  0.00     0.275 HD
HETATM   17  H           1     -34.501  -1.752 -10.083  0.00  0.00     0.275 HD
ENDBRANCH   5  14
ENDBRANCH   3   5
BRANCH   1  18
HETATM   18  C           1     -36.101  -0.659 -12.341  0.00  0.00     0.189 C 
BRANCH  18  19
HETATM   19  C           1     -36.898  -0.340 -13.581  0.00  0.00     0.197 C 
HETATM   20  O           1     -38.075  -0.747 -13.690  0.00  0.00    -0.646 OA
HETATM   21  O           1     -36.381   0.331 -14.500  0.00  0.00    -0.646 OA
ENDBRANCH  18  19
BRANCH  18  22
HETATM   22  C           1     -35.981   0.590 -11.478  0.00  0.00     0.074 C 
BRANCH  22  23
HETATM   23  C           1     -36.688   0.368 -10.177  0.00  0.00    -0.056 A 
HETATM   24  C           1     -36.882  -0.927  -9.701  0.00  0.00     0.007 A 
HETATM   25  C           1     -37.542  -1.134  -8.489  0.00  0.00     0.001 A 
HETATM   26  C           1     -38.005  -0.044  -7.753  0.00  0.00     0.000 A 
HETATM   27  C           1     -37.811   1.253  -8.229  0.00  0.00     0.001 A 
HETATM   28  C           1     -37.151   1.459  -9.441  0.00  0.00     0.007 A 
ENDBRANCH  22  23
ENDBRANCH  18  22
ENDBRANCH   1  18
TORSDOF 11
ENDMDL
MODEL 5
REMARK VINA RESULT:      -6.5     13.796     16.077
REMARK  11 active torsions:
REMARK  status: ('A' for Active; 'I' for Inactive)
REMARK    1  A    between atoms: C_1  and  C_15 
REMARK    2  A    between atoms: C_1  and  C_2 
REMARK    3  A    between atoms: C_2  and  C_3 
REMARK    4  A    between atoms: C_3  and  C_23 
REMARK    5  A    between atoms: N_8  and  C_15 
REMARK    6  A    between atoms: C_9  and  C_16 
REMARK    7  A    between atoms: N_11  and  C_16 
REMARK       I    between atoms: N_11  and  C_14 
REMARK    8  A    between atoms: C_13  and  C_25 
REMARK    9  A    between atoms: C_14  and  C_15 
REMARK   10  A    between atoms: C_16  and  C_25 
REMARK   11  A    between atoms: N_17  and  C_23 
ROOT
HETATM    1  N           1     -22.201  -5.679  -5.724  0.00  0.00    -0.344 N 
HETATM    2  H           1     -23.148  -5.350  -5.592  0.00  0.00     0.163 HD
HETATM    3  C           1     -21.558  -6.340  -4.711  0.00  0.00     0.249 C 
HETATM    4  O           1     -20.907  -5.722  -3.904  0.00  0.00    -0.271 OA
ENDROOT
BRANCH   3   5
HETATM    5  C           1     -21.663  -7.842  -4.606  0.00  0.00     0.274 C 
BRANCH   5   6
HETATM    6  C           1     -20.699  -8.344  -3.539  0.00  0.00     0.042 C 
BRANCH   6   7
HETATM    7  C           1     -21.488  -8.858  -2.341  0.00  0.00     0.004 C 
BRANCH   7   8
HETATM    8  C           1     -21.116  -8.049  -1.105  0.00  0.00     0.027 C 
BRANCH   8   9
HETATM    9  C           1     -22.314  -7.222  -0.658  0.00  0.00     0.229 C 
BRANCH   9  10
HETATM   10  N           1     -22.330  -5.921  -1.405  0.00  0.00    -0.079 N 
HETATM   11  H           1     -22.814  -5.195  -0.830  0.00  0.00     0.274 HD
HETATM   12  H           1     -22.840  -6.046  -2.310  0.00  0.00     0.274 HD
HETATM   13  H           1     -21.349  -5.617  -1.597  0.00  0.00     0.274 HD
ENDBRANCH   9  10
ENDBRANCH   8   9
ENDBRANCH   7   8
ENDBRANCH   6   7
ENDBRANCH   5   6
BRANCH   5  14
HETATM   14  N           1     -21.312  -8.461  -5.927  0.00  0.00    -0.067 N 
HETATM   15  H           1     -22.186  -8.620  -6.479  0.00  0.00     0.275 HD
HETATM   16  H           1     -20.832  -9.376  -5.767  0.00  0.00     0.275 HD
HETATM   17  H           1     -20.678  -7.821  -6.455  0.00  0.00     0.275 HD
ENDBRANCH   5  14
ENDBRANCH   3   5
BRANCH   1  18
HETATM   18  C           1     -21.524  -5.451  -6.986  0.00  0.00     0.189 C 
BRANCH  18  19
HETATM   19  C           1     -20.032  -5.517  -6.775  0.00  0.00     0.197 C 
HETATM   20  O           1     -19.417  -6.584  -6.990  0.00  0.00    -0.646 OA
HETATM   21  O           1     -19.411  -4.505  -6.385  0.00  0.00    -0.646 OA
ENDBRANCH  18  19
BRANCH  18  22
HETATM   22  C           1     -21.902  -4.076  -7.522  0.00  0.00     0.074 C 
BRANCH  22  23
HETATM   23  C           1     -22.160  -4.168  -8.994  0.00  0.00    -0.056 A 
HETATM   24  C           1     -21.102  -4.071  -9.896  0.00  0.00     0.007 A 
HETATM   25  C           1     -21.343  -4.155 -11.267  0.00  0.00     0.001 A 
HETATM   26  C           1     -22.644  -4.338 -11.736  0.00  0.00     0.000 A 
HETATM   27  C           1     -23.704  -4.435 -10.833  0.00  0.00     0.001 A 
HETATM   28  C           1     -23.461  -4.351  -9.462  0.00  0.00     0.007 A 
ENDBRANCH  22  23
ENDBRANCH  18  22
ENDBRANCH   1  18
TORSDOF 11
ENDMDL
MODEL 6
REMARK VINA RESULT:      -6.5     15.345     18.245
REMARK  11 active torsions:
REMARK  status: ('A' for Active; 'I' for Inactive)
REMARK    1  A    between atoms: C_1  and  C_15 
REMARK    2  A    between atoms: C_1  and  C_2 
REMARK    3  A    between atoms: C_2  and  C_3 
REMARK    4  A    between atoms: C_3  and  C_23 
REMARK    5  A    between atoms: N_8  and  C_15 
REMARK    6  A    between atoms: C_9  and  C_16 
REMARK    7  A    between atoms: N_11  and  C_16 
REMARK       I    between atoms: N_11  and  C_14 
REMARK    8  A    between atoms: C_13  and  C_25 
REMARK    9  A    between atoms: C_14  and  C_15 
REMARK   10  A    between atoms: C_16  and  C_25 
REMARK   11  A    between atoms: N_17  and  C_23 
ROOT
HETATM    1  N           1     -20.930  -7.898  -5.851  0.00  0.00    -0.344 N 
HETATM    2  H           1     -21.657  -8.431  -6.310  0.00  0.00     0.163 HD
HETATM    3  C           1     -20.553  -6.681  -6.353  0.00  0.00     0.249 C 
HETATM    4  O           1     -19.666  -6.613  -7.170  0.00  0.00    -0.271 OA
ENDROOT
BRANCH   3   5
HETATM    5  C           1     -21.246  -5.425  -5.884  0.00  0.00     0.274 C 
BRANCH   5   6
HETATM    6  C           1     -22.179  -4.921  -6.978  0.00  0.00     0.042 C 
BRANCH   6   7
HETATM    7  C           1     -21.484  -3.824  -7.774  0.00  0.00     0.004 C 
BRANCH   7   8
HETATM    8  C           1     -21.728  -4.044  -9.262  0.00  0.00     0.027 C 
BRANCH   8   9
HETATM    9  C           1     -20.401  -4.293  -9.964  0.00  0.00     0.229 C 
BRANCH   9  10
HETATM   10  N           1     -20.431  -3.666 -11.327  0.00  0.00    -0.079 N 
HETATM   11  H           1     -19.664  -2.961 -11.404  0.00  0.00     0.274 HD
HETATM   12  H           1     -21.353  -3.195 -11.473  0.00  0.00     0.274 HD
HETATM   13  H           1     -20.299  -4.406 -12.054  0.00  0.00     0.274 HD
ENDBRANCH   9  10
ENDBRANCH   8   9
ENDBRANCH   7   8
ENDBRANCH   6   7
ENDBRANCH   5   6
BRANCH   5  14
HETATM   14  N           1     -20.220  -4.373  -5.580  0.00  0.00    -0.067 N 
HETATM   15  H           1     -19.621  -4.691  -4.784  0.00  0.00     0.275 HD
HETATM   16  H           1     -20.701  -3.482  -5.319  0.00  0.00     0.275 HD
HETATM   17  H           1     -19.624  -4.213  -6.423  0.00  0.00     0.275 HD
ENDBRANCH   5  14
ENDBRANCH   3   5
BRANCH   1  18
HETATM   18  C           1     -20.288  -8.423  -4.662  0.00  0.00     0.189 C 
BRANCH  18  19
HETATM   19  C           1     -19.114  -9.281  -5.063  0.00  0.00     0.197 C 
HETATM   20  O           1     -18.067  -9.267  -4.380  0.00  0.00    -0.646 OA
HETATM   21  O           1     -19.188 -10.006  -6.078  0.00  0.00    -0.646 OA
ENDBRANCH  18  19
BRANCH  18  22
HETATM   22  C           1     -21.287  -9.263  -3.876  0.00  0.00     0.074 C 
BRANCH  22  23
HETATM   23  C           1     -21.680  -8.533  -2.629  0.00  0.00    -0.056 A 
HETATM   24  C           1     -21.761  -7.141  -2.631  0.00  0.00     0.007 A 
HETATM   25  C           1     -22.127  -6.461  -1.469  0.00  0.00     0.001 A 
HETATM   26  C           1     -22.413  -7.175  -0.305  0.00  0.00     0.000 A 
HETATM   27  C           1     -22.332  -8.568  -0.303  0.00  0.00     0.001 A 
HETATM   28  C           1     -21.966  -9.247  -1.465  0.00  0.00     0.007 A 
ENDBRANCH  22  23
ENDBRANCH  18  22
ENDBRANCH   1  18
TORSDOF 11
ENDMDL
MODEL 7
REMARK VINA RESULT:      -6.2     17.162     19.597
REMARK  11 active torsions:
REMARK  status: ('A' for Active; 'I' for Inactive)
REMARK    1  A    between atoms: C_1  and  C_15 
REMARK    2  A    between atoms: C_1  and  C_2 
REMARK    3  A    between atoms: C_2  and  C_3 
REMARK    4  A    between atoms: C_3  and  C_23 
REMARK    5  A    between atoms: N_8  and  C_15 
REMARK    6  A    between atoms: C_9  and  C_16 
REMARK    7  A    between atoms: N_11  and  C_16 
REMARK       I    between atoms: N_11  and  C_14 
REMARK    8  A    between atoms: C_13  and  C_25 
REMARK    9  A    between atoms: C_14  and  C_15 
REMARK   10  A    between atoms: C_16  and  C_25 
REMARK   11  A    between atoms: N_17  and  C_23 
ROOT
HETATM    1  N           1     -20.065  -7.695  -3.781  0.00  0.00    -0.344 N 
HETATM    2  H           1     -19.367  -7.134  -3.309  0.00  0.00     0.163 HD
HETATM    3  C           1     -19.774  -8.279  -4.985  0.00  0.00     0.249 C 
HETATM    4  O           1     -19.995  -7.686  -6.013  0.00  0.00    -0.271 OA
ENDROOT
BRANCH   3   5
HETATM    5  C           1     -19.179  -9.665  -5.025  0.00  0.00     0.274 C 
BRANCH   5   6
HETATM    6  C           1     -18.321  -9.886  -3.786  0.00  0.00     0.042 C 
BRANCH   6   7
HETATM    7  C           1     -16.848  -9.824  -4.170  0.00  0.00     0.004 C 
BRANCH   7   8
HETATM    8  C           1     -16.014  -9.511  -2.934  0.00  0.00     0.027 C 
BRANCH   8   9
HETATM    9  C           1     -15.844 -10.774  -2.101  0.00  0.00     0.229 C 
BRANCH   9  10
HETATM   10  N           1     -15.058 -11.786  -2.882  0.00  0.00    -0.079 N 
HETATM   11  H           1     -14.045 -11.702  -2.641  0.00  0.00     0.274 HD
HETATM   12  H           1     -15.189 -11.614  -3.905  0.00  0.00     0.274 HD
HETATM   13  H           1     -15.394 -12.747  -2.645  0.00  0.00     0.274 HD
ENDBRANCH   9  10
ENDBRANCH   8   9
ENDBRANCH   7   8
ENDBRANCH   6   7
ENDBRANCH   5   6
BRANCH   5  14
HETATM   14  N           1     -18.328  -9.808  -6.252  0.00  0.00    -0.067 N 
HETATM   15  H           1     -18.920  -9.673  -7.104  0.00  0.00     0.275 HD
HETATM   16  H           1     -17.903 -10.762  -6.273  0.00  0.00     0.275 HD
HETATM   17  H           1     -17.570  -9.088  -6.237  0.00  0.00     0.275 HD
ENDBRANCH   5  14
ENDBRANCH   3   5
BRANCH   1  18
HETATM   18  C           1     -21.372  -7.879  -3.181  0.00  0.00     0.189 C 
BRANCH  18  19
HETATM   19  C           1     -22.132  -6.577  -3.223  0.00  0.00     0.197 C 
HETATM   20  O           1     -22.490  -6.097  -4.321  0.00  0.00    -0.646 OA
HETATM   21  O           1     -22.404  -5.977  -2.160  0.00  0.00    -0.646 OA
ENDBRANCH  18  19
BRANCH  18  22
HETATM   22  C           1     -21.208  -8.326  -1.734  0.00  0.00     0.074 C 
BRANCH  22  23
HETATM   23  C           1     -22.172  -9.433  -1.441  0.00  0.00    -0.056 A 
HETATM   24  C           1     -22.315 -10.490  -2.339  0.00  0.00     0.007 A 
HETATM   25  C           1     -23.214 -11.521  -2.066  0.00  0.00     0.001 A 
HETATM   26  C           1     -23.968 -11.496  -0.893  0.00  0.00     0.000 A 
HETATM   27  C           1     -23.825 -10.438   0.006  0.00  0.00     0.001 A 
HETATM   28  C           1     -22.926  -9.408  -0.268  0.00  0.00     0.007 A 
ENDBRANCH  22  23
ENDBRANCH  18  22
ENDBRANCH   1  18
TORSDOF 11
ENDMDL
MODEL 8
REMARK VINA RESULT:      -6.1     16.867     19.732
REMARK  11 active torsions:
REMARK  status: ('A' for Active; 'I' for Inactive)
REMARK    1  A    between atoms: C_1  and  C_15 
REMARK    2  A    between atoms: C_1  and  C_2 
REMARK    3  A    between atoms: C_2  and  C_3 
REMARK    4  A    between atoms: C_3  and  C_23 
REMARK    5  A    between atoms: N_8  and  C_15 
REMARK    6  A    between atoms: C_9  and  C_16 
REMARK    7  A    between atoms: N_11  and  C_16 
REMARK       I    between atoms: N_11  and  C_14 
REMARK    8  A    between atoms: C_13  and  C_25 
REMARK    9  A    between atoms: C_14  and  C_15 
REMARK   10  A    between atoms: C_16  and  C_25 
REMARK   11  A    between atoms: N_17  and  C_23 
ROOT
HETATM    1  N           1     -19.651  -8.215  -4.531  0.00  0.00    -0.344 N 
HETATM    2  H           1     -19.012  -7.468  -4.770  0.00  0.00     0.163 HD
HETATM    3  C           1     -19.239  -9.519  -4.607  0.00  0.00     0.249 C 
HETATM    4  O           1     -19.379 -10.138  -5.634  0.00  0.00    -0.271 OA
ENDROOT
BRANCH   3   5
HETATM    5  C           1     -18.612 -10.182  -3.405  0.00  0.00     0.274 C 
BRANCH   5   6
HETATM    6  C           1     -17.281  -9.511  -3.091  0.00  0.00     0.042 C 
BRANCH   6   7
HETATM    7  C           1     -16.142 -10.358  -3.644  0.00  0.00     0.004 C 
BRANCH   7   8
HETATM    8  C           1     -15.651  -9.757  -4.955  0.00  0.00     0.027 C 
BRANCH   8   9
HETATM    9  C           1     -15.772 -10.791  -6.066  0.00  0.00     0.229 C 
BRANCH   9  10
HETATM   10  N           1     -15.277 -12.118  -5.571  0.00  0.00    -0.079 N 
HETATM   11  H           1     -14.856 -12.651  -6.364  0.00  0.00     0.274 HD
HETATM   12  H           1     -16.077 -12.660  -5.171  0.00  0.00     0.274 HD
HETATM   13  H           1     -14.555 -11.966  -4.830  0.00  0.00     0.274 HD
ENDBRANCH   9  10
ENDBRANCH   8   9
ENDBRANCH   7   8
ENDBRANCH   6   7
ENDBRANCH   5   6
BRANCH   5  14
HETATM   14  N           1     -18.381 -11.635  -3.700  0.00  0.00    -0.067 N 
HETATM   15  H           1     -18.230 -12.152  -2.803  0.00  0.00     0.275 HD
HETATM   16  H           1     -17.536 -11.738  -4.306  0.00  0.00     0.275 HD
HETATM   17  H           1     -19.214 -12.028  -4.193  0.00  0.00     0.275 HD
ENDBRANCH   5  14
ENDBRANCH   3   5
BRANCH   1  18
HETATM   18  C           1     -21.003  -7.905  -4.109  0.00  0.00     0.189 C 
BRANCH  18  19
HETATM   19  C           1     -21.686  -7.085  -5.175  0.00  0.00     0.197 C 
HETATM   20  O           1     -21.366  -7.229  -6.375  0.00  0.00    -0.646 OA
HETATM   21  O           1     -22.571  -6.261  -4.859  0.00  0.00    -0.646 OA
ENDBRANCH  18  19
BRANCH  18  22
HETATM   22  C           1     -20.959  -7.113  -2.809  0.00  0.00     0.074 C 
BRANCH  22  23
HETATM   23  C           1     -21.730  -7.844  -1.753  0.00  0.00    -0.056 A 
HETATM   24  C           1     -21.858  -9.230  -1.817  0.00  0.00     0.007 A 
HETATM   25  C           1     -22.577  -9.911  -0.834  0.00  0.00     0.001 A 
HETATM   26  C           1     -23.166  -9.203   0.214  0.00  0.00     0.000 A 
HETATM   27  C           1     -23.038  -7.815   0.278  0.00  0.00     0.001 A 
HETATM   28  C           1     -22.318  -7.136  -0.705  0.00  0.00     0.007 A 
ENDBRANCH  22  23
ENDBRANCH  18  22
ENDBRANCH   1  18
TORSDOF 11
ENDMDL
MODEL 9
REMARK VINA RESULT:      -6.0     18.120     20.304
REMARK  11 active torsions:
REMARK  status: ('A' for Active; 'I' for Inactive)
REMARK    1  A    between atoms: C_1  and  C_15 
REMARK    2  A    between atoms: C_1  and  C_2 
REMARK    3  A    between atoms: C_2  and  C_3 
REMARK    4  A    between atoms: C_3  and  C_23 
REMARK    5  A    between atoms: N_8  and  C_15 
REMARK    6  A    between atoms: C_9  and  C_16 
REMARK    7  A    between atoms: N_11  and  C_16 
REMARK       I    between atoms: N_11  and  C_14 
REMARK    8  A    between atoms: C_13  and  C_25 
REMARK    9  A    between atoms: C_14  and  C_15 
REMARK   10  A    between atoms: C_16  and  C_25 
REMARK   11  A    between atoms: N_17  and  C_23 
ROOT
HETATM    1  N           1     -20.000  -8.120  -2.162  0.00  0.00    -0.344 N 
HETATM    2  H           1     -19.385  -7.376  -1.855  0.00  0.00     0.163 HD
HETATM    3  C           1     -19.560  -9.035  -3.082  0.00  0.00     0.249 C 
HETATM    4  O           1     -19.716  -8.830  -4.262  0.00  0.00    -0.271 OA
ENDROOT
BRANCH   3   5
HETATM    5  C           1     -18.881 -10.300  -2.619  0.00  0.00     0.274 C 
BRANCH   5   6
HETATM    6  C           1     -17.381 -10.058  -2.502  0.00  0.00     0.042 C 
BRANCH   6   7
HETATM    7  C           1     -16.655 -10.821  -3.603  0.00  0.00     0.004 C 
BRANCH   7   8
HETATM    8  C           1     -16.057  -9.833  -4.596  0.00  0.00     0.027 C 
BRANCH   8   9
HETATM    9  C           1     -16.501 -10.197  -6.006  0.00  0.00     0.229 C 
BRANCH   9  10
HETATM   10  N           1     -17.792  -9.500  -6.319  0.00  0.00    -0.079 N 
HETATM   11  H           1     -18.178  -9.072  -5.448  0.00  0.00     0.274 HD
HETATM   12  H           1     -18.477 -10.193  -6.700  0.00  0.00     0.274 HD
HETATM   13  H           1     -17.622  -8.752  -7.030  0.00  0.00     0.274 HD
ENDBRANCH   9  10
ENDBRANCH   8   9
ENDBRANCH   7   8
ENDBRANCH   6   7
ENDBRANCH   5   6
BRANCH   5  14
HETATM   14  N           1     -19.132 -11.395  -3.614  0.00  0.00    -0.067 N 
HETATM   15  H           1     -18.744 -11.116  -4.543  0.00  0.00     0.275 HD
HETATM   16  H           1     -20.161 -11.557  -3.702  0.00  0.00     0.275 HD
HETATM   17  H           1     -18.668 -12.274  -3.291  0.00  0.00     0.275 HD
ENDBRANCH   5  14
ENDBRANCH   3   5
BRANCH   1  18
HETATM   18  C           1     -21.345  -8.215  -1.630  0.00  0.00     0.189 C 
BRANCH  18  19
HETATM   19  C           1     -22.034  -6.880  -1.765  0.00  0.00     0.197 C 
HETATM   20  O           1     -22.679  -6.410  -0.803  0.00  0.00    -0.646 OA
HETATM   21  O           1     -21.958  -6.244  -2.838  0.00  0.00    -0.646 OA
ENDBRANCH  18  19
BRANCH  18  22
HETATM   22  C           1     -21.281  -8.609  -0.160  0.00  0.00     0.074 C 
BRANCH  22  23
HETATM   23  C           1     -21.986  -9.914   0.038  0.00  0.00    -0.056 A 
HETATM   24  C           1     -23.336 -10.035  -0.288  0.00  0.00     0.007 A 
HETATM   25  C           1     -23.993 -11.252  -0.102  0.00  0.00     0.001 A 
HETATM   26  C           1     -23.298 -12.348   0.408  0.00  0.00     0.000 A 
HETATM   27  C           1     -21.947 -12.228   0.734  0.00  0.00     0.001 A 
HETATM   28  C           1     -21.291 -11.011   0.548  0.00  0.00     0.007 A 
ENDBRANCH  22  23
ENDBRANCH  18  22
ENDBRANCH   1  18
TORSDOF 11
ENDMDL
