MODEL 1
REMARK VINA RESULT:      -5.8      0.000      0.000
REMARK  8 active torsions:
REMARK  status: ('A' for Active; 'I' for Inactive)
REMARK    1  A    between atoms: N_3  and  C_9 
REMARK       I    between atoms: N_3  and  C_6 
REMARK    2  A    between atoms: C_4  and  C_5 
REMARK    3  A    between atoms: C_4  and  C_13 
REMARK    4  A    between atoms: C_5  and  C_6 
REMARK    5  A    between atoms: C_5  and  N_16 
REMARK    6  A    between atoms: S_7  and  C_8 
REMARK    7  A    between atoms: C_8  and  C_9 
REMARK    8  A    between atoms: C_9  and  C_10 
REMARK       I    between atoms: C_13  and  N_14 
ROOT
HETATM    1  C           1     -22.568  -3.043 -11.869  0.00  0.00     0.283 C 
ENDROOT
BRANCH   1   2
HETATM    2  C           1     -23.972  -2.951 -12.452  0.00  0.00     0.145 C 
BRANCH   2   3
HETATM    3  C           1     -23.893  -2.486 -13.886  0.00  0.00     0.217 C 
HETATM    4  N           1     -24.042  -1.159 -14.185  0.00  0.00    -0.370 N 
HETATM    5  H           1     -23.988  -0.847 -15.146  0.00  0.00     0.159 HD
HETATM    6  H           1     -24.204  -0.488 -13.444  0.00  0.00     0.159 HD
HETATM    7  O           1     -23.700  -3.287 -14.769  0.00  0.00    -0.274 OA
ENDBRANCH   2   3
ENDBRANCH   1   2
BRANCH   1   8
HETATM    8  C           1     -22.587  -3.929 -10.647  0.00  0.00     0.249 C 
HETATM    9  N           1     -21.495  -3.982  -9.825  0.00  0.00    -0.344 N 
HETATM   10  H           1     -20.674  -3.428 -10.036  0.00  0.00     0.163 HD
HETATM   11  O           1     -23.566  -4.591 -10.396  0.00  0.00    -0.271 OA
BRANCH   9  12
HETATM   12  C           1     -21.512  -4.832  -8.651  0.00  0.00     0.194 C 
BRANCH  12  13
HETATM   13  C           1     -20.086  -5.221  -8.283  0.00  0.00     0.106 C 
BRANCH  13  14
HETATM   14  S           1     -20.094  -6.157  -6.729  0.00  0.00    -0.180 SA
HETATM   15  H           1     -21.412  -6.424  -6.733  0.00  0.00     0.101 HD
ENDBRANCH  13  14
ENDBRANCH  12  13
BRANCH  12  16
HETATM   16  C           1     -22.144  -4.088  -7.499  0.00  0.00     0.197 C 
HETATM   17  O           1     -21.570  -3.091  -7.010  0.00  0.00    -0.646 OA
HETATM   18  O           1     -23.241  -4.468  -7.036  0.00  0.00    -0.646 OA
ENDBRANCH  12  16
ENDBRANCH   9  12
ENDBRANCH   1   8
BRANCH   1  19
HETATM   19  N           1     -21.640  -3.625 -12.894  0.00  0.00    -0.066 N 
HETATM   20  H           1     -20.723  -3.850 -12.447  0.00  0.00     0.275 HD
HETATM   21  H           1     -22.060  -4.497 -13.288  0.00  0.00     0.275 HD
HETATM   22  H           1     -21.492  -2.931 -13.662  0.00  0.00     0.275 HD
ENDBRANCH   1  19
TORSDOF 8
ENDMDL
MODEL 2
REMARK VINA RESULT:      -5.8     12.195     13.844
REMARK  8 active torsions:
REMARK  status: ('A' for Active; 'I' for Inactive)
REMARK    1  A    between atoms: N_3  and  C_9 
REMARK       I    between atoms: N_3  and  C_6 
REMARK    2  A    between atoms: C_4  and  C_5 
REMARK    3  A    between atoms: C_4  and  C_13 
REMARK    4  A    between atoms: C_5  and  C_6 
REMARK    5  A    between atoms: C_5  and  N_16 
REMARK    6  A    between atoms: S_7  and  C_8 
REMARK    7  A    between atoms: C_8  and  C_9 
REMARK    8  A    between atoms: C_9  and  C_10 
REMARK       I    between atoms: C_13  and  N_14 
ROOT
HETATM    1  C           1     -33.696  -2.900 -11.316  0.00  0.00     0.283 C 
ENDROOT
BRANCH   1   2
HETATM    2  C           1     -34.491  -3.974 -10.583  0.00  0.00     0.145 C 
BRANCH   2   3
HETATM    3  C           1     -33.891  -5.329 -10.871  0.00  0.00     0.217 C 
HETATM    4  N           1     -32.867  -5.447 -11.772  0.00  0.00    -0.370 N 
HETATM    5  H           1     -32.464  -6.355 -11.965  0.00  0.00     0.159 HD
HETATM    6  H           1     -32.511  -4.625 -12.245  0.00  0.00     0.159 HD
HETATM    7  O           1     -34.315  -6.308 -10.306  0.00  0.00    -0.274 OA
ENDBRANCH   2   3
ENDBRANCH   1   2
BRANCH   1   8
HETATM    8  C           1     -34.490  -2.408 -12.501  0.00  0.00     0.249 C 
HETATM    9  N           1     -35.189  -1.234 -12.416  0.00  0.00    -0.344 N 
HETATM   10  H           1     -35.174  -0.697 -11.558  0.00  0.00     0.163 HD
HETATM   11  O           1     -34.508  -3.049 -13.525  0.00  0.00    -0.271 OA
BRANCH   9  12
HETATM   12  C           1     -35.951  -0.760 -13.555  0.00  0.00     0.194 C 
BRANCH  12  13
HETATM   13  C           1     -37.245  -0.121 -13.069  0.00  0.00     0.106 C 
BRANCH  13  14
HETATM   14  S           1     -37.304  -0.173 -11.256  0.00  0.00    -0.180 SA
HETATM   15  H           1     -36.168  -0.877 -11.099  0.00  0.00     0.101 HD
ENDBRANCH  13  14
ENDBRANCH  12  13
BRANCH  12  16
HETATM   16  C           1     -35.139   0.261 -14.314  0.00  0.00     0.197 C 
HETATM   17  O           1     -34.799   1.327 -13.758  0.00  0.00    -0.646 OA
HETATM   18  O           1     -34.807   0.039 -15.498  0.00  0.00    -0.646 OA
ENDBRANCH  12  16
ENDBRANCH   9  12
ENDBRANCH   1   8
BRANCH   1  19
HETATM   19  N           1     -33.427  -1.756 -10.384  0.00  0.00    -0.066 N 
HETATM   20  H           1     -32.518  -1.307 -10.635  0.00  0.00     0.275 HD
HETATM   21  H           1     -34.198  -1.054 -10.464  0.00  0.00     0.275 HD
HETATM   22  H           1     -33.380  -2.111  -9.402  0.00  0.00     0.275 HD
ENDBRANCH   1  19
TORSDOF 8
ENDMDL
MODEL 3
REMARK VINA RESULT:      -5.7     12.143     13.772
REMARK  8 active torsions:
REMARK  status: ('A' for Active; 'I' for Inactive)
REMARK    1  A    between atoms: N_3  and  C_9 
REMARK       I    between atoms: N_3  and  C_6 
REMARK    2  A    between atoms: C_4  and  C_5 
REMARK    3  A    between atoms: C_4  and  C_13 
REMARK    4  A    between atoms: C_5  and  C_6 
REMARK    5  A    between atoms: C_5  and  N_16 
REMARK    6  A    between atoms: S_7  and  C_8 
REMARK    7  A    between atoms: C_8  and  C_9 
REMARK    8  A    between atoms: C_9  and  C_10 
REMARK       I    between atoms: C_13  and  N_14 
ROOT
HETATM    1  C           1     -34.239  -3.969 -12.738  0.00  0.00     0.283 C 
ENDROOT
BRANCH   1   2
HETATM    2  C           1     -33.437  -4.730 -11.691  0.00  0.00     0.145 C 
BRANCH   2   3
HETATM    3  C           1     -34.246  -5.903 -11.191  0.00  0.00     0.217 C 
HETATM    4  N           1     -34.935  -6.686 -12.076  0.00  0.00    -0.370 N 
HETATM    5  H           1     -35.477  -7.473 -11.742  0.00  0.00     0.159 HD
HETATM    6  H           1     -34.903  -6.480 -13.067  0.00  0.00     0.159 HD
HETATM    7  O           1     -34.284  -6.149 -10.009  0.00  0.00    -0.274 OA
ENDBRANCH   2   3
ENDBRANCH   1   2
BRANCH   1   8
HETATM    8  C           1     -34.348  -2.520 -12.334  0.00  0.00     0.249 C 
HETATM    9  N           1     -34.987  -1.628 -13.152  0.00  0.00    -0.344 N 
HETATM   10  H           1     -35.386  -1.940 -14.028  0.00  0.00     0.163 HD
HETATM   11  O           1     -33.871  -2.146 -11.288  0.00  0.00    -0.271 OA
BRANCH   9  12
HETATM   12  C           1     -35.092  -0.235 -12.764  0.00  0.00     0.194 C 
BRANCH  12  13
HETATM   13  C           1     -35.201   0.633 -14.011  0.00  0.00     0.106 C 
BRANCH  13  14
HETATM   14  S           1     -35.648  -0.402 -15.433  0.00  0.00    -0.180 SA
HETATM   15  H           1     -35.195   0.447 -16.372  0.00  0.00     0.101 HD
ENDBRANCH  13  14
ENDBRANCH  12  13
BRANCH  12  16
HETATM   16  C           1     -36.320  -0.042 -11.907  0.00  0.00     0.197 C 
HETATM   17  O           1     -36.215   0.464 -10.770  0.00  0.00    -0.646 OA
HETATM   18  O           1     -37.441  -0.390 -12.336  0.00  0.00    -0.646 OA
ENDBRANCH  12  16
ENDBRANCH   9  12
ENDBRANCH   1   8
BRANCH   1  19
HETATM   19  N           1     -33.547  -4.068 -14.065  0.00  0.00    -0.066 N 
HETATM   20  H           1     -33.907  -3.323 -14.703  0.00  0.00     0.275 HD
HETATM   21  H           1     -32.517  -3.944 -13.930  0.00  0.00     0.275 HD
HETATM   22  H           1     -33.733  -5.006 -14.486  0.00  0.00     0.275 HD
ENDBRANCH   1  19
TORSDOF 8
ENDMDL
MODEL 4
REMARK VINA RESULT:      -5.6     12.868     14.379
REMARK  8 active torsions:
REMARK  status: ('A' for Active; 'I' for Inactive)
REMARK    1  A    between atoms: N_3  and  C_9 
REMARK       I    between atoms: N_3  and  C_6 
REMARK    2  A    between atoms: C_4  and  C_5 
REMARK    3  A    between atoms: C_4  and  C_13 
REMARK    4  A    between atoms: C_5  and  C_6 
REMARK    5  A    between atoms: C_5  and  N_16 
REMARK    6  A    between atoms: S_7  and  C_8 
REMARK    7  A    between atoms: C_8  and  C_9 
REMARK    8  A    between atoms: C_9  and  C_10 
REMARK       I    between atoms: C_13  and  N_14 
ROOT
HETATM    1  C           1     -34.356  -2.498 -12.030  0.00  0.00     0.283 C 
ENDROOT
BRANCH   1   2
HETATM    2  C           1     -35.074  -3.682 -11.397  0.00  0.00     0.145 C 
BRANCH   2   3
HETATM    3  C           1     -34.653  -4.956 -12.089  0.00  0.00     0.217 C 
HETATM    4  N           1     -33.683  -5.748 -11.535  0.00  0.00    -0.370 N 
HETATM    5  H           1     -33.401  -6.602 -11.998  0.00  0.00     0.159 HD
HETATM    6  H           1     -33.249  -5.479 -10.660  0.00  0.00     0.159 HD
HETATM    7  O           1     -35.171  -5.276 -13.132  0.00  0.00    -0.274 OA
ENDBRANCH   2   3
ENDBRANCH   1   2
BRANCH   1   8
HETATM    8  C           1     -35.321  -1.732 -12.902  0.00  0.00     0.249 C 
HETATM    9  N           1     -34.908  -1.243 -14.112  0.00  0.00    -0.344 N 
HETATM   10  H           1     -33.957  -1.395 -14.422  0.00  0.00     0.163 HD
HETATM   11  O           1     -36.456  -1.549 -12.531  0.00  0.00    -0.271 OA
BRANCH   9  12
HETATM   12  C           1     -35.835  -0.507 -14.950  0.00  0.00     0.194 C 
BRANCH  12  13
HETATM   13  C           1     -35.434   0.962 -14.981  0.00  0.00     0.106 C 
BRANCH  13  14
HETATM   14  S           1     -34.484   1.363 -13.488  0.00  0.00    -0.180 SA
HETATM   15  H           1     -33.352   0.746 -13.872  0.00  0.00     0.101 HD
ENDBRANCH  13  14
ENDBRANCH  12  13
BRANCH  12  16
HETATM   16  C           1     -35.801  -1.068 -16.351  0.00  0.00     0.197 C 
HETATM   17  O           1     -36.733  -0.822 -17.146  0.00  0.00    -0.646 OA
HETATM   18  O           1     -34.840  -1.780 -16.715  0.00  0.00    -0.646 OA
ENDBRANCH  12  16
ENDBRANCH   9  12
ENDBRANCH   1   8
BRANCH   1  19
HETATM   19  N           1     -33.832  -1.597 -10.951  0.00  0.00    -0.066 N 
HETATM   20  H           1     -33.394  -2.173 -10.198  0.00  0.00     0.275 HD
HETATM   21  H           1     -33.119  -0.949 -11.356  0.00  0.00     0.275 HD
HETATM   22  H           1     -34.621  -1.041 -10.550  0.00  0.00     0.275 HD
ENDBRANCH   1  19
TORSDOF 8
ENDMDL
MODEL 5
REMARK VINA RESULT:      -5.6      3.138      6.523
REMARK  8 active torsions:
REMARK  status: ('A' for Active; 'I' for Inactive)
REMARK    1  A    between atoms: N_3  and  C_9 
REMARK       I    between atoms: N_3  and  C_6 
REMARK    2  A    between atoms: C_4  and  C_5 
REMARK    3  A    between atoms: C_4  and  C_13 
REMARK    4  A    between atoms: C_5  and  C_6 
REMARK    5  A    between atoms: C_5  and  N_16 
REMARK    6  A    between atoms: S_7  and  C_8 
REMARK    7  A    between atoms: C_8  and  C_9 
REMARK    8  A    between atoms: C_9  and  C_10 
REMARK       I    between atoms: C_13  and  N_14 
ROOT
HETATM    1  C           1     -21.174  -5.737  -6.763  0.00  0.00     0.283 C 
ENDROOT
BRANCH   1   2
HETATM    2  C           1     -20.866  -5.257  -5.351  0.00  0.00     0.145 C 
BRANCH   2   3
HETATM    3  C           1     -21.184  -6.354  -4.365  0.00  0.00     0.217 C 
HETATM    4  N           1     -21.837  -6.059  -3.199  0.00  0.00    -0.370 N 
HETATM    5  H           1     -22.051  -6.794  -2.538  0.00  0.00     0.159 HD
HETATM    6  H           1     -22.107  -5.103  -2.997  0.00  0.00     0.159 HD
HETATM    7  O           1     -20.862  -7.493  -4.605  0.00  0.00    -0.274 OA
ENDBRANCH   2   3
ENDBRANCH   1   2
BRANCH   1   8
HETATM    8  C           1     -21.695  -4.584  -7.585  0.00  0.00     0.249 C 
HETATM    9  N           1     -22.272  -4.818  -8.804  0.00  0.00    -0.344 N 
HETATM   10  H           1     -22.348  -5.765  -9.154  0.00  0.00     0.163 HD
HETATM   11  O           1     -21.604  -3.454  -7.167  0.00  0.00    -0.271 OA
BRANCH   9  12
HETATM   12  C           1     -22.773  -3.711  -9.594  0.00  0.00     0.194 C 
BRANCH  12  13
HETATM   13  C           1     -22.183  -3.779 -10.996  0.00  0.00     0.106 C 
BRANCH  13  14
HETATM   14  S           1     -20.408  -4.143 -10.891  0.00  0.00    -0.180 SA
HETATM   15  H           1     -20.091  -3.647 -12.100  0.00  0.00     0.101 HD
ENDBRANCH  13  14
ENDBRANCH  12  13
BRANCH  12  16
HETATM   16  C           1     -24.278  -3.793  -9.676  0.00  0.00     0.197 C 
HETATM   17  O           1     -24.970  -2.765  -9.509  0.00  0.00    -0.646 OA
HETATM   18  O           1     -24.832  -4.888  -9.911  0.00  0.00    -0.646 OA
ENDBRANCH  12  16
ENDBRANCH   9  12
ENDBRANCH   1   8
BRANCH   1  19
HETATM   19  N           1     -19.922  -6.273  -7.392  0.00  0.00    -0.066 N 
HETATM   20  H           1     -19.947  -7.318  -7.386  0.00  0.00     0.275 HD
HETATM   21  H           1     -19.854  -5.931  -8.377  0.00  0.00     0.275 HD
HETATM   22  H           1     -19.091  -5.942  -6.850  0.00  0.00     0.275 HD
ENDBRANCH   1  19
TORSDOF 8
ENDMDL
MODEL 6
REMARK VINA RESULT:      -5.3      2.097      2.808
REMARK  8 active torsions:
REMARK  status: ('A' for Active; 'I' for Inactive)
REMARK    1  A    between atoms: N_3  and  C_9 
REMARK       I    between atoms: N_3  and  C_6 
REMARK    2  A    between atoms: C_4  and  C_5 
REMARK    3  A    between atoms: C_4  and  C_13 
REMARK    4  A    between atoms: C_5  and  C_6 
REMARK    5  A    between atoms: C_5  and  N_16 
REMARK    6  A    between atoms: S_7  and  C_8 
REMARK    7  A    between atoms: C_8  and  C_9 
REMARK    8  A    between atoms: C_9  and  C_10 
REMARK       I    between atoms: C_13  and  N_14 
ROOT
HETATM    1  C           1     -23.948  -4.417  -9.861  0.00  0.00     0.283 C 
ENDROOT
BRANCH   1   2
HETATM    2  C           1     -23.309  -3.379 -10.773  0.00  0.00     0.145 C 
BRANCH   2   3
HETATM    3  C           1     -24.012  -3.380 -12.109  0.00  0.00     0.217 C 
HETATM    4  N           1     -23.374  -3.865 -13.219  0.00  0.00    -0.370 N 
HETATM    5  H           1     -23.845  -3.867 -14.114  0.00  0.00     0.159 HD
HETATM    6  H           1     -22.430  -4.223 -13.143  0.00  0.00     0.159 HD
HETATM    7  O           1     -25.138  -2.953 -12.198  0.00  0.00    -0.274 OA
ENDBRANCH   2   3
ENDBRANCH   1   2
BRANCH   1   8
HETATM    8  C           1     -23.195  -4.470  -8.554  0.00  0.00     0.249 C 
HETATM    9  N           1     -21.883  -4.860  -8.536  0.00  0.00    -0.344 N 
HETATM   10  H           1     -21.418  -5.113  -9.399  0.00  0.00     0.163 HD
HETATM   11  O           1     -23.750  -4.169  -7.524  0.00  0.00    -0.271 OA
BRANCH   9  12
HETATM   12  C           1     -21.159  -4.912  -7.281  0.00  0.00     0.194 C 
BRANCH  12  13
HETATM   13  C           1     -21.086  -6.353  -6.796  0.00  0.00     0.106 C 
BRANCH  13  14
HETATM   14  S           1     -21.828  -6.475  -5.144  0.00  0.00    -0.180 SA
HETATM   15  H           1     -21.621  -5.191  -4.802  0.00  0.00     0.101 HD
ENDBRANCH  13  14
ENDBRANCH  12  13
BRANCH  12  16
HETATM   16  C           1     -19.762  -4.377  -7.485  0.00  0.00     0.197 C 
HETATM   17  O           1     -18.864  -4.647  -6.659  0.00  0.00    -0.646 OA
HETATM   18  O           1     -19.505  -3.664  -8.478  0.00  0.00    -0.646 OA
ENDBRANCH  12  16
ENDBRANCH   9  12
ENDBRANCH   1   8
BRANCH   1  19
HETATM   19  N           1     -25.376  -4.040  -9.600  0.00  0.00    -0.066 N 
HETATM   20  H           1     -25.462  -3.637  -8.639  0.00  0.00     0.275 HD
HETATM   21  H           1     -25.683  -3.330 -10.304  0.00  0.00     0.275 HD
HETATM   22  H           1     -25.980  -4.890  -9.675  0.00  0.00     0.275 HD
ENDBRANCH   1  19
TORSDOF 8
ENDMDL
MODEL 7
REMARK VINA RESULT:      -5.0      3.960      5.663
REMARK  8 active torsions:
REMARK  status: ('A' for Active; 'I' for Inactive)
REMARK    1  A    between atoms: N_3  and  C_9 
REMARK       I    between atoms: N_3  and  C_6 
REMARK    2  A    between atoms: C_4  and  C_5 
REMARK    3  A    between atoms: C_4  and  C_13 
REMARK    4  A    between atoms: C_5  and  C_6 
REMARK    5  A    between atoms: C_5  and  N_16 
REMARK    6  A    between atoms: S_7  and  C_8 
REMARK    7  A    between atoms: C_8  and  C_9 
REMARK    8  A    between atoms: C_9  and  C_10 
REMARK       I    between atoms: C_13  and  N_14 
ROOT
HETATM    1  C           1     -20.660  -4.973  -6.705  0.00  0.00     0.283 C 
ENDROOT
BRANCH   1   2
HETATM    2  C           1     -21.369  -3.663  -7.020  0.00  0.00     0.145 C 
BRANCH   2   3
HETATM    3  C           1     -22.264  -3.851  -8.222  0.00  0.00     0.217 C 
HETATM    4  N           1     -23.593  -4.129  -8.048  0.00  0.00    -0.370 N 
HETATM    5  H           1     -24.193  -4.255  -8.853  0.00  0.00     0.159 HD
HETATM    6  H           1     -23.976  -4.208  -7.114  0.00  0.00     0.159 HD
HETATM    7  O           1     -21.807  -3.756  -9.335  0.00  0.00    -0.274 OA
ENDBRANCH   2   3
ENDBRANCH   1   2
BRANCH   1   8
HETATM    8  C           1     -21.492  -5.776  -5.735  0.00  0.00     0.249 C 
HETATM    9  N           1     -20.893  -6.697  -4.919  0.00  0.00    -0.344 N 
HETATM   10  H           1     -19.892  -6.840  -4.966  0.00  0.00     0.163 HD
HETATM   11  O           1     -22.687  -5.606  -5.680  0.00  0.00    -0.271 OA
BRANCH   9  12
HETATM   12  C           1     -21.692  -7.468  -3.987  0.00  0.00     0.194 C 
BRANCH  12  13
HETATM   13  C           1     -21.193  -8.906  -3.959  0.00  0.00     0.106 C 
BRANCH  13  14
HETATM   14  S           1     -19.596  -9.011  -4.817  0.00  0.00    -0.180 SA
HETATM   15  H           1     -20.109  -9.260  -6.036  0.00  0.00     0.101 HD
ENDBRANCH  13  14
ENDBRANCH  12  13
BRANCH  12  16
HETATM   16  C           1     -21.576  -6.867  -2.608  0.00  0.00     0.197 C 
HETATM   17  O           1     -22.288  -5.891  -2.289  0.00  0.00    -0.646 OA
HETATM   18  O           1     -20.767  -7.346  -1.784  0.00  0.00    -0.646 OA
ENDBRANCH  12  16
ENDBRANCH   9  12
ENDBRANCH   1   8
BRANCH   1  19
HETATM   19  N           1     -20.473  -5.756  -7.971  0.00  0.00    -0.066 N 
HETATM   20  H           1     -19.575  -5.474  -8.427  0.00  0.00     0.275 HD
HETATM   21  H           1     -20.445  -6.777  -7.747  0.00  0.00     0.275 HD
HETATM   22  H           1     -21.268  -5.563  -8.620  0.00  0.00     0.275 HD
ENDBRANCH   1  19
TORSDOF 8
ENDMDL
MODEL 8
REMARK VINA RESULT:      -4.7      2.589      3.401
REMARK  8 active torsions:
REMARK  status: ('A' for Active; 'I' for Inactive)
REMARK    1  A    between atoms: N_3  and  C_9 
REMARK       I    between atoms: N_3  and  C_6 
REMARK    2  A    between atoms: C_4  and  C_5 
REMARK    3  A    between atoms: C_4  and  C_13 
REMARK    4  A    between atoms: C_5  and  C_6 
REMARK    5  A    between atoms: C_5  and  N_16 
REMARK    6  A    between atoms: S_7  and  C_8 
REMARK    7  A    between atoms: C_8  and  C_9 
REMARK    8  A    between atoms: C_9  and  C_10 
REMARK       I    between atoms: C_13  and  N_14 
ROOT
HETATM    1  C           1     -22.353  -3.720  -9.768  0.00  0.00     0.283 C 
ENDROOT
BRANCH   1   2
HETATM    2  C           1     -23.610  -4.555  -9.971  0.00  0.00     0.145 C 
BRANCH   2   3
HETATM    3  C           1     -24.754  -3.655 -10.374  0.00  0.00     0.217 C 
HETATM    4  N           1     -25.806  -3.462  -9.520  0.00  0.00    -0.370 N 
HETATM    5  H           1     -26.572  -2.859  -9.789  0.00  0.00     0.159 HD
HETATM    6  H           1     -25.819  -3.923  -8.619  0.00  0.00     0.159 HD
HETATM    7  O           1     -24.739  -3.105 -11.449  0.00  0.00    -0.274 OA
ENDBRANCH   2   3
ENDBRANCH   1   2
BRANCH   1   8
HETATM    8  C           1     -21.868  -3.879  -8.348  0.00  0.00     0.249 C 
HETATM    9  N           1     -21.948  -5.098  -7.730  0.00  0.00    -0.344 N 
HETATM   10  H           1     -22.333  -5.892  -8.225  0.00  0.00     0.163 HD
HETATM   11  O           1     -21.409  -2.931  -7.756  0.00  0.00    -0.271 OA
BRANCH   9  12
HETATM   12  C           1     -21.482  -5.251  -6.366  0.00  0.00     0.194 C 
BRANCH  12  13
HETATM   13  C           1     -22.268  -6.361  -5.682  0.00  0.00     0.106 C 
BRANCH  13  14
HETATM   14  S           1     -21.747  -6.495  -3.948  0.00  0.00    -0.180 SA
HETATM   15  H           1     -20.881  -5.466  -3.983  0.00  0.00     0.101 HD
ENDBRANCH  13  14
ENDBRANCH  12  13
BRANCH  12  16
HETATM   16  C           1     -20.014  -5.604  -6.372  0.00  0.00     0.197 C 
HETATM   17  O           1     -19.646  -6.737  -6.748  0.00  0.00    -0.646 OA
HETATM   18  O           1     -19.168  -4.762  -6.001  0.00  0.00    -0.646 OA
ENDBRANCH  12  16
ENDBRANCH   9  12
ENDBRANCH   1   8
BRANCH   1  19
HETATM   19  N           1     -21.287  -4.185 -10.715  0.00  0.00    -0.066 N 
HETATM   20  H           1     -21.727  -4.500 -11.609  0.00  0.00     0.275 HD
HETATM   21  H           1     -20.627  -3.398 -10.909  0.00  0.00     0.275 HD
HETATM   22  H           1     -20.764  -4.982 -10.286  0.00  0.00     0.275 HD
ENDBRANCH   1  19
TORSDOF 8
ENDMDL
MODEL 9
REMARK VINA RESULT:      -4.7      5.859      9.258
REMARK  8 active torsions:
REMARK  status: ('A' for Active; 'I' for Inactive)
REMARK    1  A    between atoms: N_3  and  C_9 
REMARK       I    between atoms: N_3  and  C_6 
REMARK    2  A    between atoms: C_4  and  C_5 
REMARK    3  A    between atoms: C_4  and  C_13 
REMARK    4  A    between atoms: C_5  and  C_6 
REMARK    5  A    between atoms: C_5  and  N_16 
REMARK    6  A    between atoms: S_7  and  C_8 
REMARK    7  A    between atoms: C_8  and  C_9 
REMARK    8  A    between atoms: C_9  and  C_10 
REMARK       I    between atoms: C_13  and  N_14 
ROOT
HETATM    1  C           1     -21.404  -6.789  -2.510  0.00  0.00     0.283 C 
ENDROOT
BRANCH   1   2
HETATM    2  C           1     -21.862  -8.126  -1.942  0.00  0.00     0.145 C 
BRANCH   2   3
HETATM    3  C           1     -22.129  -7.979  -0.463  0.00  0.00     0.217 C 
HETATM    4  N           1     -21.179  -8.360   0.446  0.00  0.00    -0.370 N 
HETATM    5  H           1     -21.357  -8.261   1.436  0.00  0.00     0.159 HD
HETATM    6  H           1     -20.296  -8.739   0.126  0.00  0.00     0.159 HD
HETATM    7  O           1     -23.182  -7.526  -0.082  0.00  0.00    -0.274 OA
ENDBRANCH   2   3
ENDBRANCH   1   2
BRANCH   1   8
HETATM    8  C           1     -21.458  -6.838  -4.018  0.00  0.00     0.249 C 
HETATM    9  N           1     -21.369  -5.681  -4.743  0.00  0.00    -0.344 N 
HETATM   10  H           1     -21.268  -4.792  -4.268  0.00  0.00     0.163 HD
HETATM   11  O           1     -21.580  -7.899  -4.584  0.00  0.00    -0.271 OA
BRANCH   9  12
HETATM   12  C           1     -21.422  -5.727  -6.191  0.00  0.00     0.194 C 
BRANCH  12  13
HETATM   13  C           1     -22.199  -4.525  -6.710  0.00  0.00     0.106 C 
BRANCH  13  14
HETATM   14  S           1     -22.254  -4.575  -8.523  0.00  0.00    -0.180 SA
HETATM   15  H           1     -23.530  -4.164  -8.636  0.00  0.00     0.101 HD
ENDBRANCH  13  14
ENDBRANCH  12  13
BRANCH  12  16
HETATM   16  C           1     -20.018  -5.696  -6.746  0.00  0.00     0.197 C 
HETATM   17  O           1     -19.536  -6.716  -7.284  0.00  0.00    -0.646 OA
HETATM   18  O           1     -19.338  -4.651  -6.666  0.00  0.00    -0.646 OA
ENDBRANCH  12  16
ENDBRANCH   9  12
ENDBRANCH   1   8
BRANCH   1  19
HETATM   19  N           1     -22.306  -5.699  -2.012  0.00  0.00    -0.066 N 
HETATM   20  H           1     -23.277  -6.072  -1.904  0.00  0.00     0.275 HD
HETATM   21  H           1     -21.959  -5.355  -1.089  0.00  0.00     0.275 HD
HETATM   22  H           1     -22.311  -4.911  -2.699  0.00  0.00     0.275 HD
ENDBRANCH   1  19
TORSDOF 8
ENDMDL
