MODEL 1
REMARK VINA RESULT:      -5.3      0.000      0.000
REMARK  9 active torsions:
REMARK  status: ('A' for Active; 'I' for Inactive)
REMARK    1  A    between atoms: N_4  and  C_9 
REMARK    2  A    between atoms: Se_6  and  C_7 
REMARK    3  A    between atoms: C_7  and  C_8 
REMARK    4  A    between atoms: C_8  and  C_9 
REMARK    5  A    between atoms: C_9  and  C_10 
REMARK       I    between atoms: C_10  and  N_11 
REMARK    6  A    between atoms: N_11  and  C_15 
REMARK    7  A    between atoms: C_14  and  C_15 
REMARK    8  A    between atoms: C_15  and  C_16 
REMARK    9  A    between atoms: C_16  and  Se_17 
ROOT
HETATM    1  H           1     -22.197  -5.636  -9.429  0.00  0.00     0.163 HD
HETATM    2  O           1     -21.781  -3.637  -7.048  0.00  0.00    -0.271 OA
HETATM    3  C           1     -21.737  -4.683  -7.651  0.00  0.00     0.249 C 
HETATM    4  N           1     -22.234  -4.760  -8.924  0.00  0.00    -0.345 N 
ENDROOT
BRANCH   3   5
HETATM    5  C           1     -21.134  -5.904  -7.001  0.00  0.00     0.274 C 
BRANCH   5   6
HETATM    6  N           1     -19.772  -6.154  -7.577  0.00  0.00    -0.067 N 
HETATM    7  H           1     -19.853  -6.800  -8.395  0.00  0.00     0.275 HD
HETATM    8  H           1     -19.354  -5.249  -7.889  0.00  0.00     0.275 HD
HETATM    9  H           1     -19.160  -6.589  -6.850  0.00  0.00     0.275 HD
ENDBRANCH   5   6
BRANCH   5  10
HETATM   10  C           1     -21.015  -5.673  -5.500  0.00  0.00     0.042 C 
BRANCH  10  11
HETATM   11  C           1     -22.051  -6.519  -4.772  0.00  0.00     0.003 C 
BRANCH  11  12
HETATM   12 Se           1     -21.238  -7.330  -3.197  0.00  0.00     0.000 Se
HETATM   13  C           1     -22.205  -6.217  -1.922  0.00  0.00     0.000 C 
ENDBRANCH  11  12
ENDBRANCH  10  11
ENDBRANCH   5  10
ENDBRANCH   3   5
BRANCH   4  14
HETATM   14  C           1     -22.814  -3.587  -9.549  0.00  0.00     0.185 C 
BRANCH  14  15
HETATM   15  C           1     -24.305  -3.774  -9.681  0.00  0.00     0.196 C 
HETATM   16  O           1     -24.774  -4.908  -9.922  0.00  0.00    -0.646 OA
HETATM   17  O           1     -25.072  -2.795  -9.551  0.00  0.00    -0.646 OA
ENDBRANCH  14  15
BRANCH  14  18
HETATM   18  C           1     -22.201  -3.393 -10.930  0.00  0.00     0.039 C 
BRANCH  18  19
HETATM   19 Se           1     -20.432  -4.210 -10.976  0.00  0.00     0.000 Se
HETATM   20  H           1     -19.782  -3.120 -10.232  0.00  0.00     0.000 HD
ENDBRANCH  18  19
ENDBRANCH  14  18
ENDBRANCH   4  14
TORSDOF 9
ENDMDL
MODEL 2
REMARK VINA RESULT:      -5.0      2.628      2.910
REMARK  9 active torsions:
REMARK  status: ('A' for Active; 'I' for Inactive)
REMARK    1  A    between atoms: N_4  and  C_9 
REMARK    2  A    between atoms: Se_6  and  C_7 
REMARK    3  A    between atoms: C_7  and  C_8 
REMARK    4  A    between atoms: C_8  and  C_9 
REMARK    5  A    between atoms: C_9  and  C_10 
REMARK       I    between atoms: C_10  and  N_11 
REMARK    6  A    between atoms: N_11  and  C_15 
REMARK    7  A    between atoms: C_14  and  C_15 
REMARK    8  A    between atoms: C_15  and  C_16 
REMARK    9  A    between atoms: C_16  and  Se_17 
ROOT
HETATM    1  H           1     -22.525  -3.429  -9.073  0.00  0.00     0.163 HD
HETATM    2  O           1     -19.910  -5.036  -9.717  0.00  0.00    -0.271 OA
HETATM    3  C           1     -20.679  -4.363  -9.073  0.00  0.00     0.249 C 
HETATM    4  N           1     -21.881  -3.992  -9.613  0.00  0.00    -0.345 N 
ENDROOT
BRANCH   3   5
HETATM    5  C           1     -20.315  -3.931  -7.674  0.00  0.00     0.274 C 
BRANCH   5   6
HETATM    6  N           1     -21.503  -3.286  -7.025  0.00  0.00    -0.067 N 
HETATM    7  H           1     -21.181  -2.646  -6.264  0.00  0.00     0.275 HD
HETATM    8  H           1     -22.034  -2.738  -7.738  0.00  0.00     0.275 HD
HETATM    9  H           1     -22.122  -4.024  -6.620  0.00  0.00     0.275 HD
ENDBRANCH   5   6
BRANCH   5  10
HETATM   10  C           1     -19.891  -5.147  -6.861  0.00  0.00     0.042 C 
BRANCH  10  11
HETATM   11  C           1     -20.397  -5.005  -5.432  0.00  0.00     0.003 C 
BRANCH  11  12
HETATM   12 Se           1     -21.574  -6.499  -5.006  0.00  0.00     0.000 Se
HETATM   13  C           1     -21.505  -6.217  -3.078  0.00  0.00     0.000 C 
ENDBRANCH  11  12
ENDBRANCH  10  11
ENDBRANCH   5  10
ENDBRANCH   3   5
BRANCH   4  14
HETATM   14  C           1     -22.231  -4.407 -10.957  0.00  0.00     0.185 C 
BRANCH  14  15
HETATM   15  C           1     -21.988  -3.266 -11.914  0.00  0.00     0.196 C 
HETATM   16  O           1     -21.248  -2.316 -11.579  0.00  0.00    -0.646 OA
HETATM   17  O           1     -22.529  -3.269 -13.041  0.00  0.00    -0.646 OA
ENDBRANCH  14  15
BRANCH  14  18
HETATM   18  C           1     -23.702  -4.801 -10.999  0.00  0.00     0.039 C 
BRANCH  18  19
HETATM   19 Se           1     -24.734  -3.581  -9.883  0.00  0.00     0.000 Se
HETATM   20  H           1     -24.199  -4.104  -8.615  0.00  0.00     0.000 HD
ENDBRANCH  18  19
ENDBRANCH  14  18
ENDBRANCH   4  14
TORSDOF 9
ENDMDL
MODEL 3
REMARK VINA RESULT:      -4.8     11.205     13.023
REMARK  9 active torsions:
REMARK  status: ('A' for Active; 'I' for Inactive)
REMARK    1  A    between atoms: N_4  and  C_9 
REMARK    2  A    between atoms: Se_6  and  C_7 
REMARK    3  A    between atoms: C_7  and  C_8 
REMARK    4  A    between atoms: C_8  and  C_9 
REMARK    5  A    between atoms: C_9  and  C_10 
REMARK       I    between atoms: C_10  and  N_11 
REMARK    6  A    between atoms: N_11  and  C_15 
REMARK    7  A    between atoms: C_14  and  C_15 
REMARK    8  A    between atoms: C_15  and  C_16 
REMARK    9  A    between atoms: C_16  and  Se_17 
ROOT
HETATM    1  H           1     -27.854  -7.080 -19.003  0.00  0.00     0.163 HD
HETATM    2  O           1     -27.732  -6.042 -16.045  0.00  0.00    -0.271 OA
HETATM    3  C           1     -27.321  -6.379 -17.130  0.00  0.00     0.249 C 
HETATM    4  N           1     -28.198  -6.798 -18.094  0.00  0.00    -0.345 N 
ENDROOT
BRANCH   3   5
HETATM    5  C           1     -25.841  -6.337 -17.422  0.00  0.00     0.274 C 
BRANCH   5   6
HETATM    6  N           1     -25.140  -7.373 -16.595  0.00  0.00    -0.067 N 
HETATM    7  H           1     -25.422  -7.271 -15.594  0.00  0.00     0.275 HD
HETATM    8  H           1     -25.404  -8.326 -16.934  0.00  0.00     0.275 HD
HETATM    9  H           1     -24.107  -7.247 -16.681  0.00  0.00     0.275 HD
ENDBRANCH   5   6
BRANCH   5  10
HETATM   10  C           1     -25.606  -6.623 -18.899  0.00  0.00     0.042 C 
BRANCH  10  11
HETATM   11  C           1     -24.198  -7.170 -19.094  0.00  0.00     0.003 C 
BRANCH  11  12
HETATM   12 Se           1     -24.056  -7.989 -20.856  0.00  0.00     0.000 Se
HETATM   13  C           1     -25.981  -8.107 -21.138  0.00  0.00     0.000 C 
ENDBRANCH  11  12
ENDBRANCH  10  11
ENDBRANCH   5  10
ENDBRANCH   3   5
BRANCH   4  14
HETATM   14  C           1     -29.620  -6.838 -17.813  0.00  0.00     0.185 C 
BRANCH  14  15
HETATM   15  C           1     -30.274  -7.881 -18.686  0.00  0.00     0.196 C 
HETATM   16  O           1     -29.575  -8.746 -19.257  0.00  0.00    -0.646 OA
HETATM   17  O           1     -31.515  -7.881 -18.837  0.00  0.00    -0.646 OA
ENDBRANCH  14  15
BRANCH  14  18
HETATM   18  C           1     -30.233  -5.475 -18.105  0.00  0.00     0.039 C 
BRANCH  18  19
HETATM   19 Se           1     -31.462  -4.995 -16.670  0.00  0.00     0.000 Se
HETATM   20  H           1     -30.503  -5.289 -15.593  0.00  0.00     0.000 HD
ENDBRANCH  18  19
ENDBRANCH  14  18
ENDBRANCH   4  14
TORSDOF 9
ENDMDL
MODEL 4
REMARK VINA RESULT:      -4.8     11.196     13.193
REMARK  9 active torsions:
REMARK  status: ('A' for Active; 'I' for Inactive)
REMARK    1  A    between atoms: N_4  and  C_9 
REMARK    2  A    between atoms: Se_6  and  C_7 
REMARK    3  A    between atoms: C_7  and  C_8 
REMARK    4  A    between atoms: C_8  and  C_9 
REMARK    5  A    between atoms: C_9  and  C_10 
REMARK       I    between atoms: C_10  and  N_11 
REMARK    6  A    between atoms: N_11  and  C_15 
REMARK    7  A    between atoms: C_14  and  C_15 
REMARK    8  A    between atoms: C_15  and  C_16 
REMARK    9  A    between atoms: C_16  and  Se_17 
ROOT
HETATM    1  H           1     -26.084  -7.088 -17.021  0.00  0.00     0.163 HD
HETATM    2  O           1     -27.228  -6.061 -19.755  0.00  0.00    -0.271 OA
HETATM    3  C           1     -26.414  -6.497 -18.976  0.00  0.00     0.249 C 
HETATM    4  N           1     -26.766  -6.723 -17.673  0.00  0.00    -0.345 N 
ENDROOT
BRANCH   3   5
HETATM    5  C           1     -25.009  -6.792 -19.441  0.00  0.00     0.274 C 
BRANCH   5   6
HETATM    6  N           1     -24.241  -7.440 -18.327  0.00  0.00    -0.067 N 
HETATM    7  H           1     -23.603  -6.739 -17.888  0.00  0.00     0.275 HD
HETATM    8  H           1     -24.908  -7.801 -17.608  0.00  0.00     0.275 HD
HETATM    9  H           1     -23.678  -8.233 -18.708  0.00  0.00     0.275 HD
ENDBRANCH   5   6
BRANCH   5  10
HETATM   10  C           1     -25.057  -7.732 -20.638  0.00  0.00     0.042 C 
BRANCH  10  11
HETATM   11  C           1     -24.487  -7.026 -21.862  0.00  0.00     0.003 C 
BRANCH  11  12
HETATM   12 Se           1     -23.363  -8.264 -22.863  0.00  0.00     0.000 Se
HETATM   13  C           1     -22.172  -8.649 -21.368  0.00  0.00     0.000 C 
ENDBRANCH  11  12
ENDBRANCH  10  11
ENDBRANCH   5  10
ENDBRANCH   3   5
BRANCH   4  14
HETATM   14  C           1     -28.116  -6.439 -17.227  0.00  0.00     0.185 C 
BRANCH  14  15
HETATM   15  C           1     -28.170  -6.503 -15.720  0.00  0.00     0.196 C 
HETATM   16  O           1     -28.605  -5.529 -15.068  0.00  0.00    -0.646 OA
HETATM   17  O           1     -27.779  -7.530 -15.124  0.00  0.00    -0.646 OA
ENDBRANCH  14  15
BRANCH  14  18
HETATM   18  C           1     -29.072  -7.470 -17.814  0.00  0.00     0.039 C 
BRANCH  18  19
HETATM   19 Se           1     -30.910  -6.887 -17.532  0.00  0.00     0.000 Se
HETATM   20  H           1     -31.505  -8.150 -17.997  0.00  0.00     0.000 HD
ENDBRANCH  18  19
ENDBRANCH  14  18
ENDBRANCH   4  14
TORSDOF 9
ENDMDL
MODEL 5
REMARK VINA RESULT:      -4.7      2.861      6.409
REMARK  9 active torsions:
REMARK  status: ('A' for Active; 'I' for Inactive)
REMARK    1  A    between atoms: N_4  and  C_9 
REMARK    2  A    between atoms: Se_6  and  C_7 
REMARK    3  A    between atoms: C_7  and  C_8 
REMARK    4  A    between atoms: C_8  and  C_9 
REMARK    5  A    between atoms: C_9  and  C_10 
REMARK       I    between atoms: C_10  and  N_11 
REMARK    6  A    between atoms: N_11  and  C_15 
REMARK    7  A    between atoms: C_14  and  C_15 
REMARK    8  A    between atoms: C_15  and  C_16 
REMARK    9  A    between atoms: C_16  and  Se_17 
ROOT
HETATM    1  H           1     -19.895  -6.770  -4.973  0.00  0.00     0.163 HD
HETATM    2  O           1     -22.688  -5.564  -5.735  0.00  0.00    -0.271 OA
HETATM    3  C           1     -21.490  -5.718  -5.766  0.00  0.00     0.249 C 
HETATM    4  N           1     -20.898  -6.641  -4.947  0.00  0.00    -0.345 N 
ENDROOT
BRANCH   3   5
HETATM    5  C           1     -20.648  -4.893  -6.707  0.00  0.00     0.274 C 
BRANCH   5   6
HETATM    6  N           1     -20.115  -5.771  -7.800  0.00  0.00    -0.067 N 
HETATM    7  H           1     -20.887  -6.012  -8.463  0.00  0.00     0.275 HD
HETATM    8  H           1     -19.360  -5.266  -8.316  0.00  0.00     0.275 HD
HETATM    9  H           1     -19.727  -6.648  -7.384  0.00  0.00     0.275 HD
ENDBRANCH   5   6
BRANCH   5  10
HETATM   10  C           1     -21.501  -3.788  -7.316  0.00  0.00     0.042 C 
BRANCH  10  11
HETATM   11  C           1     -21.751  -4.090  -8.787  0.00  0.00     0.003 C 
BRANCH  11  12
HETATM   12 Se           1     -23.664  -4.009  -9.153  0.00  0.00     0.000 Se
HETATM   13  C           1     -23.455  -3.346 -10.974  0.00  0.00     0.000 C 
ENDBRANCH  11  12
ENDBRANCH  10  11
ENDBRANCH   5  10
ENDBRANCH   3   5
BRANCH   4  14
HETATM   14  C           1     -21.708  -7.434  -4.042  0.00  0.00     0.185 C 
BRANCH  14  15
HETATM   15  C           1     -21.601  -6.868  -2.647  0.00  0.00     0.196 C 
HETATM   16  O           1     -20.801  -7.369  -1.829  0.00  0.00    -0.646 OA
HETATM   17  O           1     -22.315  -5.898  -2.311  0.00  0.00    -0.646 OA
ENDBRANCH  14  15
BRANCH  14  18
HETATM   18  C           1     -21.210  -8.873  -4.047  0.00  0.00     0.039 C 
BRANCH  18  19
HETATM   19 Se           1     -19.435  -8.945  -4.848  0.00  0.00     0.000 Se
HETATM   20  H           1     -19.852  -9.789  -5.979  0.00  0.00     0.000 HD
ENDBRANCH  18  19
ENDBRANCH  14  18
ENDBRANCH   4  14
TORSDOF 9
ENDMDL
MODEL 6
REMARK VINA RESULT:      -4.5      3.535      4.694
REMARK  9 active torsions:
REMARK  status: ('A' for Active; 'I' for Inactive)
REMARK    1  A    between atoms: N_4  and  C_9 
REMARK    2  A    between atoms: Se_6  and  C_7 
REMARK    3  A    between atoms: C_7  and  C_8 
REMARK    4  A    between atoms: C_8  and  C_9 
REMARK    5  A    between atoms: C_9  and  C_10 
REMARK       I    between atoms: C_10  and  N_11 
REMARK    6  A    between atoms: N_11  and  C_15 
REMARK    7  A    between atoms: C_14  and  C_15 
REMARK    8  A    between atoms: C_15  and  C_16 
REMARK    9  A    between atoms: C_16  and  Se_17 
ROOT
HETATM    1  H           1     -20.543  -4.553  -4.533  0.00  0.00     0.163 HD
HETATM    2  O           1     -21.957  -7.336  -4.843  0.00  0.00    -0.271 OA
HETATM    3  C           1     -21.433  -6.404  -4.280  0.00  0.00     0.249 C 
HETATM    4  N           1     -20.981  -5.334  -5.004  0.00  0.00    -0.345 N 
ENDROOT
BRANCH   3   5
HETATM    5  C           1     -21.278  -6.420  -2.779  0.00  0.00     0.274 C 
BRANCH   5   6
HETATM    6  N           1     -22.511  -5.849  -2.144  0.00  0.00    -0.067 N 
HETATM    7  H           1     -22.252  -5.352  -1.262  0.00  0.00     0.275 HD
HETATM    8  H           1     -22.962  -5.175  -2.803  0.00  0.00     0.275 HD
HETATM    9  H           1     -23.180  -6.622  -1.924  0.00  0.00     0.275 HD
ENDBRANCH   5   6
BRANCH   5  10
HETATM   10  C           1     -21.080  -7.853  -2.304  0.00  0.00     0.042 C 
BRANCH  10  11
HETATM   11  C           1     -21.860  -8.074  -1.015  0.00  0.00     0.003 C 
BRANCH  11  12
HETATM   12 Se           1     -21.552  -9.887  -0.370  0.00  0.00     0.000 Se
HETATM   13  C           1     -23.443 -10.354  -0.285  0.00  0.00     0.000 C 
ENDBRANCH  11  12
ENDBRANCH  10  11
ENDBRANCH   5  10
ENDBRANCH   3   5
BRANCH   4  14
HETATM   14  C           1     -21.130  -5.319  -6.446  0.00  0.00     0.185 C 
BRANCH  14  15
HETATM   15  C           1     -19.800  -5.619  -7.091  0.00  0.00     0.196 C 
HETATM   16  O           1     -19.395  -6.798  -7.171  0.00  0.00    -0.646 OA
HETATM   17  O           1     -19.102  -4.686  -7.546  0.00  0.00    -0.646 OA
ENDBRANCH  14  15
BRANCH  14  18
HETATM   18  C           1     -21.613  -3.945  -6.891  0.00  0.00     0.039 C 
BRANCH  18  19
HETATM   19 Se           1     -22.720  -4.129  -8.485  0.00  0.00     0.000 Se
HETATM   20  H           1     -22.022  -5.329  -8.973  0.00  0.00     0.000 HD
ENDBRANCH  18  19
ENDBRANCH  14  18
ENDBRANCH   4  14
TORSDOF 9
ENDMDL
MODEL 7
REMARK VINA RESULT:      -4.5      2.499      6.679
REMARK  9 active torsions:
REMARK  status: ('A' for Active; 'I' for Inactive)
REMARK    1  A    between atoms: N_4  and  C_9 
REMARK    2  A    between atoms: Se_6  and  C_7 
REMARK    3  A    between atoms: C_7  and  C_8 
REMARK    4  A    between atoms: C_8  and  C_9 
REMARK    5  A    between atoms: C_9  and  C_10 
REMARK       I    between atoms: C_10  and  N_11 
REMARK    6  A    between atoms: N_11  and  C_15 
REMARK    7  A    between atoms: C_14  and  C_15 
REMARK    8  A    between atoms: C_15  and  C_16 
REMARK    9  A    between atoms: C_16  and  Se_17 
ROOT
HETATM    1  H           1     -21.763  -5.721  -9.654  0.00  0.00     0.163 HD
HETATM    2  O           1     -23.522  -3.611  -8.140  0.00  0.00    -0.271 OA
HETATM    3  C           1     -23.211  -4.391  -9.009  0.00  0.00     0.249 C 
HETATM    4  N           1     -22.024  -5.067  -8.927  0.00  0.00    -0.345 N 
ENDROOT
BRANCH   3   5
HETATM    5  C           1     -24.130  -4.619 -10.183  0.00  0.00     0.274 C 
BRANCH   5   6
HETATM    6  N           1     -25.287  -3.668 -10.103  0.00  0.00    -0.067 N 
HETATM    7  H           1     -25.366  -3.137 -11.000  0.00  0.00     0.275 HD
HETATM    8  H           1     -26.168  -4.204  -9.938  0.00  0.00     0.275 HD
HETATM    9  H           1     -25.134  -2.998  -9.315  0.00  0.00     0.275 HD
ENDBRANCH   5   6
BRANCH   5  10
HETATM   10  C           1     -23.368  -4.382 -11.480  0.00  0.00     0.042 C 
BRANCH  10  11
HETATM   11  C           1     -24.080  -3.316 -12.301  0.00  0.00     0.003 C 
BRANCH  11  12
HETATM   12 Se           1     -23.058  -2.951 -13.921  0.00  0.00     0.000 Se
HETATM   13  C           1     -24.091  -1.373 -14.414  0.00  0.00     0.000 C 
ENDBRANCH  11  12
ENDBRANCH  10  11
ENDBRANCH   5  10
ENDBRANCH   3   5
BRANCH   4  14
HETATM   14  C           1     -21.140  -4.848  -7.798  0.00  0.00     0.185 C 
BRANCH  14  15
HETATM   15  C           1     -19.821  -4.308  -8.292  0.00  0.00     0.196 C 
HETATM   16  O           1     -18.808  -4.367  -7.562  0.00  0.00    -0.646 OA
HETATM   17  O           1     -19.741  -3.800  -9.431  0.00  0.00    -0.646 OA
ENDBRANCH  14  15
BRANCH  14  18
HETATM   18  C           1     -20.910  -6.167  -7.071  0.00  0.00     0.039 C 
BRANCH  18  19
HETATM   19 Se           1     -21.605  -6.038  -5.255  0.00  0.00     0.000 Se
HETATM   20  H           1     -20.856  -4.814  -4.930  0.00  0.00     0.000 HD
ENDBRANCH  18  19
ENDBRANCH  14  18
ENDBRANCH   4  14
TORSDOF 9
ENDMDL
MODEL 8
REMARK VINA RESULT:      -4.4     10.047     13.045
REMARK  9 active torsions:
REMARK  status: ('A' for Active; 'I' for Inactive)
REMARK    1  A    between atoms: N_4  and  C_9 
REMARK    2  A    between atoms: Se_6  and  C_7 
REMARK    3  A    between atoms: C_7  and  C_8 
REMARK    4  A    between atoms: C_8  and  C_9 
REMARK    5  A    between atoms: C_9  and  C_10 
REMARK       I    between atoms: C_10  and  N_11 
REMARK    6  A    between atoms: N_11  and  C_15 
REMARK    7  A    between atoms: C_14  and  C_15 
REMARK    8  A    between atoms: C_15  and  C_16 
REMARK    9  A    between atoms: C_16  and  Se_17 
ROOT
HETATM    1  H           1     -25.392  -7.156 -18.257  0.00  0.00     0.163 HD
HETATM    2  O           1     -27.962  -5.561 -19.085  0.00  0.00    -0.271 OA
HETATM    3  C           1     -26.953  -6.209 -19.230  0.00  0.00     0.249 C 
HETATM    4  N           1     -26.237  -6.612 -18.136  0.00  0.00    -0.345 N 
ENDROOT
BRANCH   3   5
HETATM    5  C           1     -26.482  -6.572 -20.617  0.00  0.00     0.274 C 
BRANCH   5   6
HETATM    6  N           1     -25.501  -5.543 -21.096  0.00  0.00    -0.067 N 
HETATM    7  H           1     -25.724  -5.280 -22.082  0.00  0.00     0.275 HD
HETATM    8  H           1     -25.561  -4.696 -20.488  0.00  0.00     0.275 HD
HETATM    9  H           1     -24.534  -5.937 -21.051  0.00  0.00     0.275 HD
ENDBRANCH   5   6
BRANCH   5  10
HETATM   10  C           1     -25.810  -7.938 -20.584  0.00  0.00     0.042 C 
BRANCH  10  11
HETATM   11  C           1     -24.297  -7.760 -20.588  0.00  0.00     0.003 C 
BRANCH  11  12
HETATM   12 Se           1     -23.595  -8.204 -22.351  0.00  0.00     0.000 Se
HETATM   13  C           1     -21.921  -8.943 -21.679  0.00  0.00     0.000 C 
ENDBRANCH  11  12
ENDBRANCH  10  11
ENDBRANCH   5  10
ENDBRANCH   3   5
BRANCH   4  14
HETATM   14  C           1     -26.689  -6.263 -16.803  0.00  0.00     0.185 C 
BRANCH  14  15
HETATM   15  C           1     -25.558  -6.455 -15.823  0.00  0.00     0.196 C 
HETATM   16  O           1     -24.990  -5.461 -15.322  0.00  0.00    -0.646 OA
HETATM   17  O           1     -25.187  -7.608 -15.514  0.00  0.00    -0.646 OA
ENDBRANCH  14  15
BRANCH  14  18
HETATM   18  C           1     -27.857  -7.160 -16.413  0.00  0.00     0.039 C 
BRANCH  18  19
HETATM   19 Se           1     -29.124  -6.145 -15.334  0.00  0.00     0.000 Se
HETATM   20  H           1     -28.306  -6.202 -14.111  0.00  0.00     0.000 HD
ENDBRANCH  18  19
ENDBRANCH  14  18
ENDBRANCH   4  14
TORSDOF 9
ENDMDL
MODEL 9
REMARK VINA RESULT:      -4.3      2.935      6.440
REMARK  9 active torsions:
REMARK  status: ('A' for Active; 'I' for Inactive)
REMARK    1  A    between atoms: N_4  and  C_9 
REMARK    2  A    between atoms: Se_6  and  C_7 
REMARK    3  A    between atoms: C_7  and  C_8 
REMARK    4  A    between atoms: C_8  and  C_9 
REMARK    5  A    between atoms: C_9  and  C_10 
REMARK       I    between atoms: C_10  and  N_11 
REMARK    6  A    between atoms: N_11  and  C_15 
REMARK    7  A    between atoms: C_14  and  C_15 
REMARK    8  A    between atoms: C_15  and  C_16 
REMARK    9  A    between atoms: C_16  and  Se_17 
ROOT
HETATM    1  H           1     -21.902  -6.400  -6.800  0.00  0.00     0.163 HD
HETATM    2  O           1     -19.724  -4.445  -5.674  0.00  0.00    -0.271 OA
HETATM    3  C           1     -20.540  -4.883  -6.449  0.00  0.00     0.249 C 
HETATM    4  N           1     -21.218  -6.034  -6.151  0.00  0.00    -0.345 N 
ENDROOT
BRANCH   3   5
HETATM    5  C           1     -20.812  -4.161  -7.746  0.00  0.00     0.274 C 
BRANCH   5   6
HETATM    6  N           1     -19.695  -4.430  -8.710  0.00  0.00    -0.067 N 
HETATM    7  H           1     -18.907  -4.899  -8.210  0.00  0.00     0.275 HD
HETATM    8  H           1     -20.039  -5.051  -9.477  0.00  0.00     0.275 HD
HETATM    9  H           1     -19.360  -3.527  -9.117  0.00  0.00     0.275 HD
ENDBRANCH   5   6
BRANCH   5  10
HETATM   10  C           1     -22.124  -4.657  -8.339  0.00  0.00     0.042 C 
BRANCH  10  11
HETATM   11  C           1     -22.643  -3.640  -9.347  0.00  0.00     0.003 C 
BRANCH  11  12
HETATM   12 Se           1     -22.530  -4.389 -11.143  0.00  0.00     0.000 Se
HETATM   13  C           1     -22.956  -2.714 -12.046  0.00  0.00     0.000 C 
ENDBRANCH  11  12
ENDBRANCH  10  11
ENDBRANCH   5  10
ENDBRANCH   3   5
BRANCH   4  14
HETATM   14  C           1     -20.957  -6.728  -4.905  0.00  0.00     0.185 C 
BRANCH  14  15
HETATM   15  C           1     -20.429  -8.110  -5.201  0.00  0.00     0.196 C 
HETATM   16  O           1     -19.298  -8.449  -4.792  0.00  0.00    -0.646 OA
HETATM   17  O           1     -21.124  -8.916  -5.857  0.00  0.00    -0.646 OA
ENDBRANCH  14  15
BRANCH  14  18
HETATM   18  C           1     -22.248  -6.837  -4.105  0.00  0.00     0.039 C 
BRANCH  18  19
HETATM   19 Se           1     -21.914  -6.319  -2.256  0.00  0.00     0.000 Se
HETATM   20  H           1     -21.160  -7.540  -1.929  0.00  0.00     0.000 HD
ENDBRANCH  18  19
ENDBRANCH  14  18
ENDBRANCH   4  14
TORSDOF 9
ENDMDL
