MODEL 1
REMARK VINA RESULT:      -7.0      0.000      0.000
REMARK  10 active torsions:
REMARK  status: ('A' for Active; 'I' for Inactive)
REMARK    1  A    between atoms: P_1  and  O_2 
REMARK    2  A    between atoms: P_1  and  O_28 
REMARK    3  A    between atoms: O_2  and  C_3 
REMARK    4  A    between atoms: C_3  and  C_4 
REMARK    5  A    between atoms: C_4  and  C_5 
REMARK    6  A    between atoms: C_4  and  N_25 
REMARK       I    between atoms: C_5  and  N_6 
REMARK    7  A    between atoms: N_6  and  C_14 
REMARK    8  A    between atoms: C_12  and  C_13 
REMARK    9  A    between atoms: C_13  and  C_14 
REMARK   10  A    between atoms: C_14  and  C_16 
ROOT
HETATM    1  C           1     -34.196  -2.049 -10.944  0.00  0.00     0.251 C 
HETATM    2  N           1     -33.440  -2.847 -11.760  0.00  0.00    -0.344 N 
HETATM    3  H           1     -32.689  -2.444 -12.306  0.00  0.00     0.163 HD
HETATM    4  O           1     -33.865  -1.872  -9.796  0.00  0.00    -0.271 OA
ENDROOT
BRANCH   1   5
HETATM    5  C           1     -35.446  -1.393 -11.478  0.00  0.00     0.298 C 
BRANCH   5   6
HETATM    6  C           1     -35.106  -0.594 -12.729  0.00  0.00     0.224 C 
BRANCH   6   7
HETATM    7  O           1     -36.035  -0.886 -13.738  0.00  0.00    -0.287 OA
BRANCH   7   8
HETATM    8  P           1     -35.599  -0.484 -15.239  0.00  0.00     0.406 P 
HETATM    9  O           1     -34.454   0.453 -15.186  0.00  0.00    -0.624 OA
HETATM   10  O           1     -36.738   0.166 -15.926  0.00  0.00    -0.624 OA
BRANCH   8  11
HETATM   11  O           1     -35.169  -1.812 -16.051  0.00  0.00    -0.300 OA
HETATM   12  H           1     -35.325  -1.605 -16.957  0.00  0.00     0.223 HD
ENDBRANCH   8  11
ENDBRANCH   7   8
ENDBRANCH   6   7
ENDBRANCH   5   6
BRANCH   5  13
HETATM   13  N           1     -36.013  -0.474 -10.437  0.00  0.00    -0.064 N 
HETATM   14  H           1     -37.057  -0.482 -10.498  0.00  0.00     0.275 HD
HETATM   15  H           1     -35.661   0.496 -10.600  0.00  0.00     0.275 HD
HETATM   16  H           1     -35.717  -0.798  -9.488  0.00  0.00     0.275 HD
ENDBRANCH   5  13
ENDBRANCH   1   5
BRANCH   2  17
HETATM   17  C           1     -33.714  -4.269 -11.842  0.00  0.00     0.191 C 
BRANCH  17  18
HETATM   18  C           1     -34.577  -4.687 -10.659  0.00  0.00     0.094 C 
BRANCH  18  19
HETATM   19  C           1     -34.371  -6.143 -10.379  0.00  0.00     0.028 A 
HETATM   20  N           1     -33.326  -6.888 -10.859  0.00  0.00    -0.354 N 
HETATM   21  C           1     -33.516  -8.098 -10.386  0.00  0.00     0.180 A 
ATOM     22  HN          1     -32.562  -6.570 -11.457  1.00  0.00     0.166 HD
HETATM   23  N           1     -34.646  -8.163  -9.620  0.00  0.00    -0.360 N 
HETATM   24  C           1     -35.205  -6.916  -9.606  0.00  0.00     0.114 A 
HETATM   25  H           1     -35.016  -9.016  -9.132  0.00  0.00     0.166 HD
ENDBRANCH  18  19
ENDBRANCH  17  18
BRANCH  17  26
HETATM   26  C           1     -34.443  -4.566 -13.129  0.00  0.00     0.197 C 
HETATM   27  O           1     -35.210  -5.549 -13.200  0.00  0.00    -0.646 OA
HETATM   28  O           1     -34.279  -3.828 -14.125  0.00  0.00    -0.646 OA
ENDBRANCH  17  26
ENDBRANCH   2  17
TORSDOF 10
ENDMDL
MODEL 2
REMARK VINA RESULT:      -7.0      3.741      6.662
REMARK  10 active torsions:
REMARK  status: ('A' for Active; 'I' for Inactive)
REMARK    1  A    between atoms: P_1  and  O_2 
REMARK    2  A    between atoms: P_1  and  O_28 
REMARK    3  A    between atoms: O_2  and  C_3 
REMARK    4  A    between atoms: C_3  and  C_4 
REMARK    5  A    between atoms: C_4  and  C_5 
REMARK    6  A    between atoms: C_4  and  N_25 
REMARK       I    between atoms: C_5  and  N_6 
REMARK    7  A    between atoms: N_6  and  C_14 
REMARK    8  A    between atoms: C_12  and  C_13 
REMARK    9  A    between atoms: C_13  and  C_14 
REMARK   10  A    between atoms: C_14  and  C_16 
ROOT
HETATM    1  C           1     -34.531  -2.033 -10.620  0.00  0.00     0.251 C 
HETATM    2  N           1     -35.825  -1.589 -10.547  0.00  0.00    -0.344 N 
HETATM    3  H           1     -36.533  -2.166 -10.112  0.00  0.00     0.163 HD
HETATM    4  O           1     -33.756  -1.783  -9.730  0.00  0.00    -0.271 OA
ENDROOT
BRANCH   1   5
HETATM    5  C           1     -34.075  -2.834 -11.816  0.00  0.00     0.298 C 
BRANCH   5   6
HETATM    6  C           1     -35.004  -4.023 -12.015  0.00  0.00     0.224 C 
BRANCH   6   7
HETATM    7  O           1     -35.086  -4.759 -10.824  0.00  0.00    -0.287 OA
BRANCH   7   8
HETATM    8  P           1     -34.543  -6.278 -10.892  0.00  0.00     0.406 P 
HETATM    9  O           1     -34.945  -7.000  -9.663  0.00  0.00    -0.624 OA
HETATM   10  O           1     -33.067  -6.270 -11.001  0.00  0.00    -0.624 OA
BRANCH   8  11
HETATM   11  O           1     -35.174  -7.019 -12.181  0.00  0.00    -0.300 OA
HETATM   12  H           1     -35.425  -7.873 -11.872  0.00  0.00     0.223 HD
ENDBRANCH   8  11
ENDBRANCH   7   8
ENDBRANCH   6   7
ENDBRANCH   5   6
BRANCH   5  13
HETATM   13  N           1     -32.677  -3.325 -11.585  0.00  0.00    -0.064 N 
HETATM   14  H           1     -32.504  -3.411 -10.557  0.00  0.00     0.275 HD
HETATM   15  H           1     -31.997  -2.647 -11.997  0.00  0.00     0.275 HD
HETATM   16  H           1     -32.555  -4.259 -12.038  0.00  0.00     0.275 HD
ENDBRANCH   5  13
ENDBRANCH   1   5
BRANCH   2  17
HETATM   17  C           1     -36.180  -0.294 -11.093  0.00  0.00     0.191 C 
BRANCH  17  18
HETATM   18  C           1     -37.072  -0.486 -12.313  0.00  0.00     0.094 C 
BRANCH  18  19
HETATM   19  C           1     -36.322  -0.098 -13.549  0.00  0.00     0.028 A 
HETATM   20  N           1     -36.853  -0.089 -14.812  0.00  0.00    -0.354 N 
HETATM   21  C           1     -35.876   0.306 -15.596  0.00  0.00     0.180 A 
ATOM     22  HN          1     -37.804  -0.338 -15.085  1.00  0.00     0.166 HD
HETATM   23  N           1     -34.734   0.552 -14.886  0.00  0.00    -0.360 N 
HETATM   24  C           1     -35.005   0.297 -13.571  0.00  0.00     0.114 A 
HETATM   25  H           1     -33.817   0.877 -15.281  0.00  0.00     0.166 HD
ENDBRANCH  18  19
ENDBRANCH  17  18
BRANCH  17  26
HETATM   26  C           1     -36.918   0.506 -10.050  0.00  0.00     0.197 C 
HETATM   27  O           1     -38.072   0.924 -10.282  0.00  0.00    -0.646 OA
HETATM   28  O           1     -36.374   0.753  -8.951  0.00  0.00    -0.646 OA
ENDBRANCH  17  26
ENDBRANCH   2  17
TORSDOF 10
ENDMDL
MODEL 3
REMARK VINA RESULT:      -6.7     12.449     14.412
REMARK  10 active torsions:
REMARK  status: ('A' for Active; 'I' for Inactive)
REMARK    1  A    between atoms: P_1  and  O_2 
REMARK    2  A    between atoms: P_1  and  O_28 
REMARK    3  A    between atoms: O_2  and  C_3 
REMARK    4  A    between atoms: C_3  and  C_4 
REMARK    5  A    between atoms: C_4  and  C_5 
REMARK    6  A    between atoms: C_4  and  N_25 
REMARK       I    between atoms: C_5  and  N_6 
REMARK    7  A    between atoms: N_6  and  C_14 
REMARK    8  A    between atoms: C_12  and  C_13 
REMARK    9  A    between atoms: C_13  and  C_14 
REMARK   10  A    between atoms: C_14  and  C_16 
ROOT
HETATM    1  C           1     -21.400  -4.116  -7.566  0.00  0.00     0.251 C 
HETATM    2  N           1     -22.615  -4.378  -8.142  0.00  0.00    -0.344 N 
HETATM    3  H           1     -23.257  -5.021  -7.697  0.00  0.00     0.163 HD
HETATM    4  O           1     -21.288  -3.208  -6.778  0.00  0.00    -0.271 OA
ENDROOT
BRANCH   1   5
HETATM    5  C           1     -20.201  -4.962  -7.918  0.00  0.00     0.298 C 
BRANCH   5   6
HETATM    6  C           1     -19.968  -5.994  -6.822  0.00  0.00     0.224 C 
BRANCH   6   7
HETATM    7  O           1     -21.141  -6.736  -6.622  0.00  0.00    -0.287 OA
BRANCH   7   8
HETATM    8  P           1     -21.789  -6.652  -5.145  0.00  0.00     0.406 P 
HETATM    9  O           1     -23.151  -6.081  -5.237  0.00  0.00    -0.624 OA
HETATM   10  O           1     -20.947  -5.788  -4.287  0.00  0.00    -0.624 OA
BRANCH   8  11
HETATM   11  O           1     -21.868  -8.132  -4.505  0.00  0.00    -0.300 OA
HETATM   12  H           1     -22.211  -8.004  -3.637  0.00  0.00     0.223 HD
ENDBRANCH   8  11
ENDBRANCH   7   8
ENDBRANCH   6   7
ENDBRANCH   5   6
BRANCH   5  13
HETATM   13  N           1     -18.990  -4.086  -8.044  0.00  0.00    -0.064 N 
HETATM   14  H           1     -18.797  -3.626  -7.126  0.00  0.00     0.275 HD
HETATM   15  H           1     -19.164  -3.355  -8.771  0.00  0.00     0.275 HD
HETATM   16  H           1     -18.167  -4.666  -8.324  0.00  0.00     0.275 HD
ENDBRANCH   5  13
ENDBRANCH   1   5
BRANCH   2  17
HETATM   17  C           1     -22.981  -3.733  -9.388  0.00  0.00     0.191 C 
BRANCH  17  18
HETATM   18  C           1     -22.317  -4.462 -10.549  0.00  0.00     0.094 C 
BRANCH  18  19
HETATM   19  C           1     -22.794  -3.880 -11.843  0.00  0.00     0.028 A 
HETATM   20  N           1     -23.643  -4.511 -12.715  0.00  0.00    -0.354 N 
HETATM   21  C           1     -23.806  -3.670 -13.710  0.00  0.00     0.180 A 
ATOM     22  HN          1     -24.058  -5.437 -12.613  1.00  0.00     0.166 HD
HETATM   23  N           1     -23.095  -2.519 -13.514  0.00  0.00    -0.360 N 
HETATM   24  C           1     -22.439  -2.640 -12.320  0.00  0.00     0.114 A 
HETATM   25  H           1     -23.057  -1.695 -14.163  0.00  0.00     0.166 HD
ENDBRANCH  18  19
ENDBRANCH  17  18
BRANCH  17  26
HETATM   26  C           1     -24.479  -3.778  -9.555  0.00  0.00     0.197 C 
HETATM   27  O           1     -25.051  -4.867  -9.778  0.00  0.00    -0.646 OA
HETATM   28  O           1     -25.150  -2.727  -9.472  0.00  0.00    -0.646 OA
ENDBRANCH  17  26
ENDBRANCH   2  17
TORSDOF 10
ENDMDL
MODEL 4
REMARK VINA RESULT:      -6.7      3.139      6.155
REMARK  10 active torsions:
REMARK  status: ('A' for Active; 'I' for Inactive)
REMARK    1  A    between atoms: P_1  and  O_2 
REMARK    2  A    between atoms: P_1  and  O_28 
REMARK    3  A    between atoms: O_2  and  C_3 
REMARK    4  A    between atoms: C_3  and  C_4 
REMARK    5  A    between atoms: C_4  and  C_5 
REMARK    6  A    between atoms: C_4  and  N_25 
REMARK       I    between atoms: C_5  and  N_6 
REMARK    7  A    between atoms: N_6  and  C_14 
REMARK    8  A    between atoms: C_12  and  C_13 
REMARK    9  A    between atoms: C_13  and  C_14 
REMARK   10  A    between atoms: C_14  and  C_16 
ROOT
HETATM    1  C           1     -34.503  -2.418 -12.840  0.00  0.00     0.251 C 
HETATM    2  N           1     -34.813  -1.091 -12.970  0.00  0.00    -0.344 N 
HETATM    3  H           1     -34.111  -0.437 -13.289  0.00  0.00     0.163 HD
HETATM    4  O           1     -34.661  -3.170 -13.771  0.00  0.00    -0.271 OA
ENDROOT
BRANCH   1   5
HETATM    5  C           1     -33.964  -2.942 -11.530  0.00  0.00     0.298 C 
BRANCH   5   6
HETATM    6  C           1     -35.019  -3.811 -10.859  0.00  0.00     0.224 C 
BRANCH   6   7
HETATM    7  O           1     -34.390  -4.829 -10.128  0.00  0.00    -0.287 OA
BRANCH   7   8
HETATM    8  P           1     -34.258  -6.256 -10.870  0.00  0.00     0.406 P 
HETATM    9  O           1     -35.060  -6.241 -12.114  0.00  0.00    -0.624 OA
HETATM   10  O           1     -34.754  -7.325  -9.975  0.00  0.00    -0.624 OA
BRANCH   8  11
HETATM   11  O           1     -32.709  -6.535 -11.233  0.00  0.00    -0.300 OA
HETATM   12  H           1     -32.239  -5.802 -10.872  0.00  0.00     0.223 HD
ENDBRANCH   8  11
ENDBRANCH   7   8
ENDBRANCH   6   7
ENDBRANCH   5   6
BRANCH   5  13
HETATM   13  N           1     -33.620  -1.789 -10.634  0.00  0.00    -0.064 N 
HETATM   14  H           1     -34.470  -1.199 -10.486  0.00  0.00     0.275 HD
HETATM   15  H           1     -32.869  -1.215 -11.078  0.00  0.00     0.275 HD
HETATM   16  H           1     -33.284  -2.152  -9.714  0.00  0.00     0.275 HD
ENDBRANCH   5  13
ENDBRANCH   1   5
BRANCH   2  17
HETATM   17  C           1     -36.148  -0.623 -12.651  0.00  0.00     0.191 C 
BRANCH  17  18
HETATM   18  C           1     -36.053   0.647 -11.815  0.00  0.00     0.094 C 
BRANCH  18  19
HETATM   19  C           1     -36.533   0.369 -10.425  0.00  0.00     0.028 A 
HETATM   20  N           1     -36.442   1.249  -9.379  0.00  0.00    -0.354 N 
HETATM   21  C           1     -36.971   0.624  -8.352  0.00  0.00     0.180 A 
ATOM     22  HN          1     -36.047   2.190  -9.394  1.00  0.00     0.166 HD
HETATM   23  N           1     -37.399  -0.628  -8.696  0.00  0.00    -0.360 N 
HETATM   24  C           1     -37.124  -0.806 -10.023  0.00  0.00     0.114 A 
HETATM   25  H           1     -37.854  -1.325  -8.057  0.00  0.00     0.166 HD
ENDBRANCH  18  19
ENDBRANCH  17  18
BRANCH  17  26
HETATM   26  C           1     -36.897  -0.332 -13.927  0.00  0.00     0.197 C 
HETATM   27  O           1     -38.074  -0.726 -14.066  0.00  0.00    -0.646 OA
HETATM   28  O           1     -36.339   0.303 -14.848  0.00  0.00    -0.646 OA
ENDBRANCH  17  26
ENDBRANCH   2  17
TORSDOF 10
ENDMDL
MODEL 5
REMARK VINA RESULT:      -6.3     13.442     14.794
REMARK  10 active torsions:
REMARK  status: ('A' for Active; 'I' for Inactive)
REMARK    1  A    between atoms: P_1  and  O_2 
REMARK    2  A    between atoms: P_1  and  O_28 
REMARK    3  A    between atoms: O_2  and  C_3 
REMARK    4  A    between atoms: C_3  and  C_4 
REMARK    5  A    between atoms: C_4  and  C_5 
REMARK    6  A    between atoms: C_4  and  N_25 
REMARK       I    between atoms: C_5  and  N_6 
REMARK    7  A    between atoms: N_6  and  C_14 
REMARK    8  A    between atoms: C_12  and  C_13 
REMARK    9  A    between atoms: C_13  and  C_14 
REMARK   10  A    between atoms: C_14  and  C_16 
ROOT
HETATM    1  C           1     -20.465  -5.379  -7.142  0.00  0.00     0.251 C 
HETATM    2  N           1     -20.532  -6.688  -6.743  0.00  0.00    -0.344 N 
HETATM    3  H           1     -20.600  -7.424  -7.435  0.00  0.00     0.163 HD
HETATM    4  O           1     -19.393  -4.866  -7.353  0.00  0.00    -0.271 OA
ENDROOT
BRANCH   1   5
HETATM    5  C           1     -21.732  -4.578  -7.315  0.00  0.00     0.298 C 
BRANCH   5   6
HETATM    6  C           1     -22.186  -4.654  -8.767  0.00  0.00     0.224 C 
BRANCH   6   7
HETATM    7  O           1     -22.983  -3.539  -9.067  0.00  0.00    -0.287 OA
BRANCH   7   8
HETATM    8  P           1     -24.069  -3.741 -10.244  0.00  0.00     0.406 P 
HETATM    9  O           1     -24.088  -5.163 -10.658  0.00  0.00    -0.624 OA
HETATM   10  O           1     -23.705  -2.894 -11.401  0.00  0.00    -0.624 OA
BRANCH   8  11
HETATM   11  O           1     -25.532  -3.318  -9.706  0.00  0.00    -0.300 OA
HETATM   12  H           1     -26.137  -3.820 -10.226  0.00  0.00     0.223 HD
ENDBRANCH   8  11
ENDBRANCH   7   8
ENDBRANCH   6   7
ENDBRANCH   5   6
BRANCH   5  13
HETATM   13  N           1     -21.474  -3.147  -6.946  0.00  0.00    -0.064 N 
HETATM   14  H           1     -20.452  -2.944  -7.038  0.00  0.00     0.275 HD
HETATM   15  H           1     -21.775  -2.983  -5.959  0.00  0.00     0.275 HD
HETATM   16  H           1     -22.013  -2.520  -7.584  0.00  0.00     0.275 HD
ENDBRANCH   5  13
ENDBRANCH   1   5
BRANCH   2  17
HETATM   17  C           1     -20.503  -7.019  -5.332  0.00  0.00     0.191 C 
BRANCH  17  18
HETATM   18  C           1     -21.903  -6.869  -4.749  0.00  0.00     0.094 C 
BRANCH  18  19
HETATM   19  C           1     -21.858  -7.114  -3.273  0.00  0.00     0.028 A 
HETATM   20  N           1     -21.552  -8.317  -2.692  0.00  0.00    -0.354 N 
HETATM   21  C           1     -21.624  -8.106  -1.398  0.00  0.00     0.180 A 
ATOM     22  HN          1     -21.318  -9.191  -3.164  1.00  0.00     0.166 HD
HETATM   23  N           1     -21.967  -6.812  -1.121  0.00  0.00    -0.360 N 
HETATM   24  C           1     -22.121  -6.163  -2.315  0.00  0.00     0.114 A 
HETATM   25  H           1     -22.091  -6.394  -0.166  0.00  0.00     0.166 HD
ENDBRANCH  18  19
ENDBRANCH  17  18
BRANCH  17  26
HETATM   26  C           1     -20.036  -8.443  -5.160  0.00  0.00     0.197 C 
HETATM   27  O           1     -19.007  -8.687  -4.494  0.00  0.00    -0.646 OA
HETATM   28  O           1     -20.677  -9.379  -5.684  0.00  0.00    -0.646 OA
ENDBRANCH  17  26
ENDBRANCH   2  17
TORSDOF 10
ENDMDL
MODEL 6
REMARK VINA RESULT:      -6.3     12.731     14.101
REMARK  10 active torsions:
REMARK  status: ('A' for Active; 'I' for Inactive)
REMARK    1  A    between atoms: P_1  and  O_2 
REMARK    2  A    between atoms: P_1  and  O_28 
REMARK    3  A    between atoms: O_2  and  C_3 
REMARK    4  A    between atoms: C_3  and  C_4 
REMARK    5  A    between atoms: C_4  and  C_5 
REMARK    6  A    between atoms: C_4  and  N_25 
REMARK       I    between atoms: C_5  and  N_6 
REMARK    7  A    between atoms: N_6  and  C_14 
REMARK    8  A    between atoms: C_12  and  C_13 
REMARK    9  A    between atoms: C_13  and  C_14 
REMARK   10  A    between atoms: C_14  and  C_16 
ROOT
HETATM    1  C           1     -21.328  -5.008  -7.258  0.00  0.00     0.251 C 
HETATM    2  N           1     -20.803  -6.245  -6.995  0.00  0.00    -0.344 N 
HETATM    3  H           1     -19.979  -6.560  -7.490  0.00  0.00     0.163 HD
HETATM    4  O           1     -20.955  -4.047  -6.631  0.00  0.00    -0.271 OA
ENDROOT
BRANCH   1   5
HETATM    5  C           1     -22.377  -4.847  -8.332  0.00  0.00     0.298 C 
BRANCH   5   6
HETATM    6  C           1     -21.813  -4.007  -9.470  0.00  0.00     0.224 C 
BRANCH   6   7
HETATM    7  O           1     -22.275  -4.508 -10.695  0.00  0.00    -0.287 OA
BRANCH   7   8
HETATM    8  P           1     -23.243  -3.530 -11.540  0.00  0.00     0.406 P 
HETATM    9  O           1     -22.476  -2.348 -11.993  0.00  0.00    -0.624 OA
HETATM   10  O           1     -24.369  -3.091 -10.685  0.00  0.00    -0.624 OA
BRANCH   8  11
HETATM   11  O           1     -23.820  -4.320 -12.825  0.00  0.00    -0.300 OA
HETATM   12  H           1     -24.757  -4.239 -12.761  0.00  0.00     0.223 HD
ENDBRANCH   8  11
ENDBRANCH   7   8
ENDBRANCH   6   7
ENDBRANCH   5   6
BRANCH   5  13
HETATM   13  N           1     -23.583  -4.166  -7.756  0.00  0.00    -0.064 N 
HETATM   14  H           1     -23.899  -3.411  -8.407  0.00  0.00     0.275 HD
HETATM   15  H           1     -23.338  -3.750  -6.830  0.00  0.00     0.275 HD
HETATM   16  H           1     -24.351  -4.864  -7.632  0.00  0.00     0.275 HD
ENDBRANCH   5  13
ENDBRANCH   1   5
BRANCH   2  17
HETATM   17  C           1     -21.427  -7.103  -6.006  0.00  0.00     0.191 C 
BRANCH  17  18
HETATM   18  C           1     -20.357  -7.936  -5.311  0.00  0.00     0.094 C 
BRANCH  18  19
HETATM   19  C           1     -20.877  -9.319  -5.072  0.00  0.00     0.028 A 
HETATM   20  N           1     -20.840 -10.335  -5.991  0.00  0.00    -0.354 N 
HETATM   21  C           1     -21.388 -11.366  -5.390  0.00  0.00     0.180 A 
ATOM     22  HN          1     -20.466 -10.298  -6.939  1.00  0.00     0.166 HD
HETATM   23  N           1     -21.779 -11.054  -4.118  0.00  0.00    -0.360 N 
HETATM   24  C           1     -21.458  -9.743  -3.900  0.00  0.00     0.114 A 
HETATM   25  H           1     -22.243 -11.703  -3.435  0.00  0.00     0.166 HD
ENDBRANCH  18  19
ENDBRANCH  17  18
BRANCH  17  26
HETATM   26  C           1     -22.146  -6.255  -4.987  0.00  0.00     0.197 C 
HETATM   27  O           1     -21.531  -5.821  -3.989  0.00  0.00    -0.646 OA
HETATM   28  O           1     -23.357  -5.987  -5.140  0.00  0.00    -0.646 OA
ENDBRANCH  17  26
ENDBRANCH   2  17
TORSDOF 10
ENDMDL
MODEL 7
REMARK VINA RESULT:      -6.2     25.435     26.834
REMARK  10 active torsions:
REMARK  status: ('A' for Active; 'I' for Inactive)
REMARK    1  A    between atoms: P_1  and  O_2 
REMARK    2  A    between atoms: P_1  and  O_28 
REMARK    3  A    between atoms: O_2  and  C_3 
REMARK    4  A    between atoms: C_3  and  C_4 
REMARK    5  A    between atoms: C_4  and  C_5 
REMARK    6  A    between atoms: C_4  and  N_25 
REMARK       I    between atoms: C_5  and  N_6 
REMARK    7  A    between atoms: N_6  and  C_14 
REMARK    8  A    between atoms: C_12  and  C_13 
REMARK    9  A    between atoms: C_13  and  C_14 
REMARK   10  A    between atoms: C_14  and  C_16 
ROOT
HETATM    1  C           1     -10.070   8.164 -19.787  0.00  0.00     0.251 C 
HETATM    2  N           1      -9.944   6.895 -20.286  0.00  0.00    -0.344 N 
HETATM    3  H           1      -9.049   6.425 -20.251  0.00  0.00     0.163 HD
HETATM    4  O           1     -10.369   8.331 -18.629  0.00  0.00    -0.271 OA
ENDROOT
BRANCH   1   5
HETATM    5  C           1      -9.836   9.355 -20.685  0.00  0.00     0.298 C 
BRANCH   5   6
HETATM    6  C           1     -11.028   9.531 -21.615  0.00  0.00     0.224 C 
BRANCH   6   7
HETATM    7  O           1     -11.660  10.752 -21.340  0.00  0.00    -0.287 OA
BRANCH   7   8
HETATM    8  P           1     -13.142  10.655 -20.707  0.00  0.00     0.406 P 
HETATM    9  O           1     -14.104  10.263 -21.761  0.00  0.00    -0.624 OA
HETATM   10  O           1     -13.527  11.972 -20.151  0.00  0.00    -0.624 OA
BRANCH   8  11
HETATM   11  O           1     -13.154   9.550 -19.529  0.00  0.00    -0.300 OA
HETATM   12  H           1     -12.354   9.065 -19.642  0.00  0.00     0.223 HD
ENDBRANCH   8  11
ENDBRANCH   7   8
ENDBRANCH   6   7
ENDBRANCH   5   6
BRANCH   5  13
HETATM   13  N           1      -8.595   9.132 -21.497  0.00  0.00    -0.064 N 
HETATM   14  H           1      -8.580   8.147 -21.847  0.00  0.00     0.275 HD
HETATM   15  H           1      -7.754   9.304 -20.902  0.00  0.00     0.275 HD
HETATM   16  H           1      -8.587   9.791 -22.309  0.00  0.00     0.275 HD
ENDBRANCH   5  13
ENDBRANCH   1   5
BRANCH   2  17
HETATM   17  C           1     -11.092   6.226 -20.865  0.00  0.00     0.191 C 
BRANCH  17  18
HETATM   18  C           1     -10.656   4.890 -21.453  0.00  0.00     0.094 C 
BRANCH  18  19
HETATM   19  C           1     -11.863   4.061 -21.762  0.00  0.00     0.028 A 
HETATM   20  N           1     -12.353   3.067 -20.956  0.00  0.00    -0.354 N 
HETATM   21  C           1     -13.406   2.597 -21.584  0.00  0.00     0.180 A 
ATOM     22  HN          1     -11.978   2.757 -20.058  1.00  0.00     0.166 HD
HETATM   23  N           1     -13.614   3.250 -22.767  0.00  0.00    -0.360 N 
HETATM   24  C           1     -12.632   4.192 -22.895  0.00  0.00     0.114 A 
HETATM   25  H           1     -14.387   3.061 -23.451  0.00  0.00     0.166 HD
ENDBRANCH  18  19
ENDBRANCH  17  18
BRANCH  17  26
HETATM   26  C           1     -12.128   5.991 -19.795  0.00  0.00     0.197 C 
HETATM   27  O           1     -13.232   6.574 -19.855  0.00  0.00    -0.646 OA
HETATM   28  O           1     -11.884   5.214 -18.847  0.00  0.00    -0.646 OA
ENDBRANCH  17  26
ENDBRANCH   2  17
TORSDOF 10
ENDMDL
MODEL 8
REMARK VINA RESULT:      -6.1     14.776     16.544
REMARK  10 active torsions:
REMARK  status: ('A' for Active; 'I' for Inactive)
REMARK    1  A    between atoms: P_1  and  O_2 
REMARK    2  A    between atoms: P_1  and  O_28 
REMARK    3  A    between atoms: O_2  and  C_3 
REMARK    4  A    between atoms: C_3  and  C_4 
REMARK    5  A    between atoms: C_4  and  C_5 
REMARK    6  A    between atoms: C_4  and  N_25 
REMARK       I    between atoms: C_5  and  N_6 
REMARK    7  A    between atoms: N_6  and  C_14 
REMARK    8  A    between atoms: C_12  and  C_13 
REMARK    9  A    between atoms: C_13  and  C_14 
REMARK   10  A    between atoms: C_14  and  C_16 
ROOT
HETATM    1  C           1     -21.534  -6.589  -4.098  0.00  0.00     0.251 C 
HETATM    2  N           1     -21.145  -6.806  -2.803  0.00  0.00    -0.344 N 
HETATM    3  H           1     -20.682  -6.071  -2.285  0.00  0.00     0.163 HD
HETATM    4  O           1     -22.632  -6.147  -4.333  0.00  0.00    -0.271 OA
ENDROOT
BRANCH   1   5
HETATM    5  C           1     -20.589  -6.905  -5.232  0.00  0.00     0.298 C 
BRANCH   5   6
HETATM    6  C           1     -20.420  -5.673  -6.111  0.00  0.00     0.224 C 
BRANCH   6   7
HETATM    7  O           1     -21.272  -5.769  -7.220  0.00  0.00    -0.287 OA
BRANCH   7   8
HETATM    8  P           1     -22.145  -4.454  -7.559  0.00  0.00     0.406 P 
HETATM    9  O           1     -22.387  -4.385  -9.018  0.00  0.00    -0.624 OA
HETATM   10  O           1     -21.407  -3.247  -7.123  0.00  0.00    -0.624 OA
BRANCH   8  11
HETATM   11  O           1     -23.559  -4.530  -6.783  0.00  0.00    -0.300 OA
HETATM   12  H           1     -23.873  -3.642  -6.761  0.00  0.00     0.223 HD
ENDBRANCH   8  11
ENDBRANCH   7   8
ENDBRANCH   6   7
ENDBRANCH   5   6
BRANCH   5  13
HETATM   13  N           1     -21.149  -8.030  -6.051  0.00  0.00    -0.064 N 
HETATM   14  H           1     -20.989  -8.936  -5.552  0.00  0.00     0.275 HD
HETATM   15  H           1     -20.672  -8.055  -6.980  0.00  0.00     0.275 HD
HETATM   16  H           1     -22.174  -7.885  -6.189  0.00  0.00     0.275 HD
ENDBRANCH   5  13
ENDBRANCH   1   5
BRANCH   2  17
HETATM   17  C           1     -21.397  -8.088  -2.174  0.00  0.00     0.191 C 
BRANCH  17  18
HETATM   18  C           1     -20.071  -8.733  -1.791  0.00  0.00     0.094 C 
BRANCH  18  19
HETATM   19  C           1     -19.524  -9.486  -2.964  0.00  0.00     0.028 A 
HETATM   20  N           1     -18.341  -9.198  -3.591  0.00  0.00    -0.354 N 
HETATM   21  C           1     -18.234 -10.084  -4.555  0.00  0.00     0.180 A 
ATOM     22  HN          1     -17.683  -8.453  -3.360  1.00  0.00     0.166 HD
HETATM   23  N           1     -19.304 -10.933  -4.574  0.00  0.00    -0.360 N 
HETATM   24  C           1     -20.141 -10.562  -3.558  0.00  0.00     0.114 A 
HETATM   25  H           1     -19.456 -11.725  -5.246  0.00  0.00     0.166 HD
ENDBRANCH  18  19
ENDBRANCH  17  18
BRANCH  17  26
HETATM   26  C           1     -22.235  -7.885  -0.937  0.00  0.00     0.197 C 
HETATM   27  O           1     -22.395  -8.824  -0.129  0.00  0.00    -0.646 OA
HETATM   28  O           1     -22.769  -6.776  -0.719  0.00  0.00    -0.646 OA
ENDBRANCH  17  26
ENDBRANCH   2  17
TORSDOF 10
ENDMDL
MODEL 9
REMARK VINA RESULT:      -6.0      3.321      6.674
REMARK  10 active torsions:
REMARK  status: ('A' for Active; 'I' for Inactive)
REMARK    1  A    between atoms: P_1  and  O_2 
REMARK    2  A    between atoms: P_1  and  O_28 
REMARK    3  A    between atoms: O_2  and  C_3 
REMARK    4  A    between atoms: C_3  and  C_4 
REMARK    5  A    between atoms: C_4  and  C_5 
REMARK    6  A    between atoms: C_4  and  N_25 
REMARK       I    between atoms: C_5  and  N_6 
REMARK    7  A    between atoms: N_6  and  C_14 
REMARK    8  A    between atoms: C_12  and  C_13 
REMARK    9  A    between atoms: C_13  and  C_14 
REMARK   10  A    between atoms: C_14  and  C_16 
ROOT
HETATM    1  C           1     -34.801  -1.726 -12.238  0.00  0.00     0.251 C 
HETATM    2  N           1     -34.941  -0.365 -12.307  0.00  0.00    -0.344 N 
HETATM    3  H           1     -34.120   0.226 -12.342  0.00  0.00     0.163 HD
HETATM    4  O           1     -34.747  -2.379 -13.252  0.00  0.00    -0.271 OA
ENDROOT
BRANCH   1   5
HETATM    5  C           1     -34.718  -2.409 -10.895  0.00  0.00     0.298 C 
BRANCH   5   6
HETATM    6  C           1     -33.547  -3.382 -10.892  0.00  0.00     0.224 C 
BRANCH   6   7
HETATM    7  O           1     -33.879  -4.511 -10.130  0.00  0.00    -0.287 OA
BRANCH   7   8
HETATM    8  P           1     -34.072  -5.888 -10.951  0.00  0.00     0.406 P 
HETATM    9  O           1     -34.851  -5.623 -12.182  0.00  0.00    -0.624 OA
HETATM   10  O           1     -34.795  -6.867 -10.109  0.00  0.00    -0.624 OA
BRANCH   8  11
HETATM   11  O           1     -32.625  -6.486 -11.349  0.00  0.00    -0.300 OA
HETATM   12  H           1     -32.478  -7.192 -10.743  0.00  0.00     0.223 HD
ENDBRANCH   8  11
ENDBRANCH   7   8
ENDBRANCH   6   7
ENDBRANCH   5   6
BRANCH   5  13
HETATM   13  N           1     -35.992  -3.158 -10.635  0.00  0.00    -0.064 N 
HETATM   14  H           1     -36.630  -2.567 -10.054  0.00  0.00     0.275 HD
HETATM   15  H           1     -35.777  -4.044 -10.126  0.00  0.00     0.275 HD
HETATM   16  H           1     -36.456  -3.382 -11.544  0.00  0.00     0.275 HD
ENDBRANCH   5  13
ENDBRANCH   1   5
BRANCH   2  17
HETATM   17  C           1     -36.263   0.229 -12.329  0.00  0.00     0.191 C 
BRANCH  17  18
HETATM   18  C           1     -37.113  -0.466 -13.385  0.00  0.00     0.094 C 
BRANCH  18  19
HETATM   19  C           1     -36.534  -0.210 -14.742  0.00  0.00     0.028 A 
HETATM   20  N           1     -36.053  -1.182 -15.580  0.00  0.00    -0.354 N 
HETATM   21  C           1     -35.643  -0.543 -16.652  0.00  0.00     0.180 A 
ATOM     22  HN          1     -36.021  -2.187 -15.408  1.00  0.00     0.166 HD
HETATM   23  N           1     -35.839   0.804 -16.537  0.00  0.00    -0.360 N 
HETATM   24  C           1     -36.410   1.034 -15.316  0.00  0.00     0.114 A 
HETATM   25  H           1     -35.595   1.530 -17.255  0.00  0.00     0.166 HD
ENDBRANCH  18  19
ENDBRANCH  17  18
BRANCH  17  26
HETATM   26  C           1     -36.909   0.068 -10.976  0.00  0.00     0.197 C 
HETATM   27  O           1     -36.490   0.726 -10.000  0.00  0.00    -0.646 OA
HETATM   28  O           1     -37.864  -0.726 -10.830  0.00  0.00    -0.646 OA
ENDBRANCH  17  26
ENDBRANCH   2  17
TORSDOF 10
ENDMDL
