MODEL 1
REMARK VINA RESULT:      -6.1      0.000      0.000
REMARK  9 active torsions:
REMARK  status: ('A' for Active; 'I' for Inactive)
REMARK    1  A    between atoms: C_1  and  C_11 
REMARK    2  A    between atoms: C_1  and  C_2 
REMARK    3  A    between atoms: C_1  and  N_4 
REMARK    4  A    between atoms: C_2  and  Se_3 
REMARK       I    between atoms: C_11  and  N_12 
REMARK    5  A    between atoms: N_12  and  C_16 
REMARK    6  A    between atoms: C_15  and  C_16 
REMARK    7  A    between atoms: C_16  and  C_17 
REMARK    8  A    between atoms: C_17  and  C_18 
REMARK    9  A    between atoms: C_18  and  C_20 
ROOT
HETATM    1  O           1     -21.881  -3.388  -7.493  0.00  0.00    -0.271 OA
HETATM    2  H           1     -22.135  -5.740  -9.555  0.00  0.00     0.163 HD
HETATM    3  C           1     -21.769  -4.509  -7.931  0.00  0.00     0.249 C 
HETATM    4  N           1     -22.227  -4.801  -9.188  0.00  0.00    -0.345 N 
ENDROOT
BRANCH   4   5
HETATM    5  C           1     -22.846  -3.766  -9.993  0.00  0.00     0.186 C 
BRANCH   5   6
HETATM    6  C           1     -24.341  -3.800  -9.792  0.00  0.00     0.196 C 
HETATM    7  O           1     -24.961  -4.881  -9.891  0.00  0.00    -0.646 OA
HETATM    8  O           1     -24.961  -2.747  -9.526  0.00  0.00    -0.646 OA
ENDBRANCH   5   6
BRANCH   5   9
HETATM    9  C           1     -22.525  -4.006 -11.462  0.00  0.00     0.046 C 
BRANCH   9  10
HETATM   10  C           1     -22.719  -2.713 -12.243  0.00  0.00     0.116 C 
BRANCH  10  11
HETATM   11  C           1     -23.759  -2.924 -13.316  0.00  0.00     0.172 C 
HETATM   12  O           1     -23.410  -3.035 -14.511  0.00  0.00    -0.648 OA
HETATM   13  O           1     -24.970  -2.988 -13.010  0.00  0.00    -0.648 OA
ENDBRANCH  10  11
ENDBRANCH   9  10
ENDBRANCH   5   9
ENDBRANCH   4   5
BRANCH   3  14
HETATM   14  C           1     -21.127  -5.586  -7.093  0.00  0.00     0.274 C 
BRANCH  14  15
HETATM   15  C           1     -20.788  -5.026  -5.718  0.00  0.00     0.045 C 
BRANCH  15  16
HETATM   16 Se           1     -21.353  -6.289  -4.345  0.00  0.00     0.000 Se
HETATM   17  H           1     -20.994  -7.482  -5.131  0.00  0.00     0.000 HD
ENDBRANCH  15  16
ENDBRANCH  14  15
BRANCH  14  18
HETATM   18  N           1     -19.870  -6.056  -7.763  0.00  0.00    -0.067 N 
HETATM   19  H           1     -19.098  -6.112  -7.060  0.00  0.00     0.275 HD
HETATM   20  H           1     -20.030  -7.001  -8.180  0.00  0.00     0.275 HD
HETATM   21  H           1     -19.604  -5.384  -8.519  0.00  0.00     0.275 HD
ENDBRANCH  14  18
ENDBRANCH   3  14
TORSDOF 9
ENDMDL
MODEL 2
REMARK VINA RESULT:      -5.8     12.893     14.802
REMARK  9 active torsions:
REMARK  status: ('A' for Active; 'I' for Inactive)
REMARK    1  A    between atoms: C_1  and  C_11 
REMARK    2  A    between atoms: C_1  and  C_2 
REMARK    3  A    between atoms: C_1  and  N_4 
REMARK    4  A    between atoms: C_2  and  Se_3 
REMARK       I    between atoms: C_11  and  N_12 
REMARK    5  A    between atoms: N_12  and  C_16 
REMARK    6  A    between atoms: C_15  and  C_16 
REMARK    7  A    between atoms: C_16  and  C_17 
REMARK    8  A    between atoms: C_17  and  C_18 
REMARK    9  A    between atoms: C_18  and  C_20 
ROOT
HETATM    1  O           1     -37.553  -0.794 -13.488  0.00  0.00    -0.271 OA
HETATM    2  H           1     -35.078   0.477 -12.038  0.00  0.00     0.163 HD
HETATM    3  C           1     -36.553  -0.128 -13.358  0.00  0.00     0.249 C 
HETATM    4  N           1     -35.915  -0.082 -12.147  0.00  0.00    -0.345 N 
ENDROOT
BRANCH   4   5
HETATM    5  C           1     -36.438  -0.832 -11.022  0.00  0.00     0.186 C 
BRANCH   5   6
HETATM    6  C           1     -36.876   0.124  -9.941  0.00  0.00     0.196 C 
HETATM    7  O           1     -37.830   0.906 -10.147  0.00  0.00    -0.646 OA
HETATM    8  O           1     -36.287   0.135  -8.839  0.00  0.00    -0.646 OA
ENDBRANCH   5   6
BRANCH   5   9
HETATM    9  C           1     -35.354  -1.753 -10.479  0.00  0.00     0.046 C 
BRANCH   9  10
HETATM   10  C           1     -35.396  -3.082 -11.222  0.00  0.00     0.116 C 
BRANCH  10  11
HETATM   11  C           1     -34.314  -3.104 -12.275  0.00  0.00     0.172 C 
HETATM   12  O           1     -33.178  -3.541 -11.993  0.00  0.00    -0.648 OA
HETATM   13  O           1     -34.555  -2.686 -13.428  0.00  0.00    -0.648 OA
ENDBRANCH  10  11
ENDBRANCH   9  10
ENDBRANCH   5   9
ENDBRANCH   4   5
BRANCH   3  14
HETATM   14  C           1     -36.010   0.654 -14.528  0.00  0.00     0.274 C 
BRANCH  14  15
HETATM   15  C           1     -36.740   0.241 -15.799  0.00  0.00     0.045 C 
BRANCH  15  16
HETATM   16 Se           1     -35.758  -1.198 -16.674  0.00  0.00     0.000 Se
HETATM   17  H           1     -36.961  -1.997 -16.966  0.00  0.00     0.000 HD
ENDBRANCH  15  16
ENDBRANCH  14  15
BRANCH  14  18
HETATM   18  N           1     -34.545   0.371 -14.679  0.00  0.00    -0.067 N 
HETATM   19  H           1     -34.394  -0.660 -14.766  0.00  0.00     0.275 HD
HETATM   20  H           1     -34.185   0.848 -15.537  0.00  0.00     0.275 HD
HETATM   21  H           1     -34.032   0.728 -13.841  0.00  0.00     0.275 HD
ENDBRANCH  14  18
ENDBRANCH   3  14
TORSDOF 9
ENDMDL
MODEL 3
REMARK VINA RESULT:      -5.6     10.038     11.536
REMARK  9 active torsions:
REMARK  status: ('A' for Active; 'I' for Inactive)
REMARK    1  A    between atoms: C_1  and  C_11 
REMARK    2  A    between atoms: C_1  and  C_2 
REMARK    3  A    between atoms: C_1  and  N_4 
REMARK    4  A    between atoms: C_2  and  Se_3 
REMARK       I    between atoms: C_11  and  N_12 
REMARK    5  A    between atoms: N_12  and  C_16 
REMARK    6  A    between atoms: C_15  and  C_16 
REMARK    7  A    between atoms: C_16  and  C_17 
REMARK    8  A    between atoms: C_17  and  C_18 
REMARK    9  A    between atoms: C_18  and  C_20 
ROOT
HETATM    1  O           1     -27.008  -6.143 -16.823  0.00  0.00    -0.271 OA
HETATM    2  H           1     -27.907  -7.117 -19.666  0.00  0.00     0.163 HD
HETATM    3  C           1     -26.900  -6.440 -17.989  0.00  0.00     0.249 C 
HETATM    4  N           1     -27.997  -6.867 -18.690  0.00  0.00    -0.345 N 
ENDROOT
BRANCH   4   5
HETATM    5  C           1     -29.286  -6.961 -18.033  0.00  0.00     0.186 C 
BRANCH   5   6
HETATM    6  C           1     -30.127  -8.006 -18.724  0.00  0.00     0.196 C 
HETATM    7  O           1     -31.372  -7.978 -18.613  0.00  0.00    -0.646 OA
HETATM    8  O           1     -29.580  -8.898 -19.407  0.00  0.00    -0.646 OA
ENDBRANCH   5   6
BRANCH   5   9
HETATM    9  C           1     -29.990  -5.613 -18.103  0.00  0.00     0.046 C 
BRANCH   9  10
HETATM   10  C           1     -30.794  -5.392 -16.829  0.00  0.00     0.116 C 
BRANCH  10  11
HETATM   11  C           1     -31.702  -4.199 -17.006  0.00  0.00     0.172 C 
HETATM   12  O           1     -31.288  -3.182 -17.602  0.00  0.00    -0.648 OA
HETATM   13  O           1     -32.869  -4.230 -16.557  0.00  0.00    -0.648 OA
ENDBRANCH  10  11
ENDBRANCH   9  10
ENDBRANCH   5   9
ENDBRANCH   4   5
BRANCH   3  14
HETATM   14  C           1     -25.559  -6.344 -18.672  0.00  0.00     0.274 C 
BRANCH  14  15
HETATM   15  C           1     -25.710  -6.699 -20.144  0.00  0.00     0.045 C 
BRANCH  15  16
HETATM   16 Se           1     -24.280  -7.914 -20.671  0.00  0.00     0.000 Se
HETATM   17  H           1     -25.180  -9.055 -20.909  0.00  0.00     0.000 HD
ENDBRANCH  15  16
ENDBRANCH  14  15
BRANCH  14  18
HETATM   18  N           1     -24.600  -7.299 -18.024  0.00  0.00    -0.067 N 
HETATM   19  H           1     -24.180  -6.853 -17.177  0.00  0.00     0.275 HD
HETATM   20  H           1     -25.109  -8.167 -17.743  0.00  0.00     0.275 HD
HETATM   21  H           1     -23.841  -7.544 -18.701  0.00  0.00     0.275 HD
ENDBRANCH  14  18
ENDBRANCH   3  14
TORSDOF 9
ENDMDL
MODEL 4
REMARK VINA RESULT:      -5.4      2.304      3.457
REMARK  9 active torsions:
REMARK  status: ('A' for Active; 'I' for Inactive)
REMARK    1  A    between atoms: C_1  and  C_11 
REMARK    2  A    between atoms: C_1  and  C_2 
REMARK    3  A    between atoms: C_1  and  N_4 
REMARK    4  A    between atoms: C_2  and  Se_3 
REMARK       I    between atoms: C_11  and  N_12 
REMARK    5  A    between atoms: N_12  and  C_16 
REMARK    6  A    between atoms: C_15  and  C_16 
REMARK    7  A    between atoms: C_16  and  C_17 
REMARK    8  A    between atoms: C_17  and  C_18 
REMARK    9  A    between atoms: C_18  and  C_20 
ROOT
HETATM    1  O           1     -20.886  -7.061  -6.876  0.00  0.00    -0.271 OA
HETATM    2  H           1     -22.005  -4.195  -6.262  0.00  0.00     0.163 HD
HETATM    3  C           1     -21.246  -6.120  -6.209  0.00  0.00     0.249 C 
HETATM    4  N           1     -21.704  -4.983  -6.820  0.00  0.00    -0.345 N 
ENDROOT
BRANCH   4   5
HETATM    5  C           1     -21.757  -4.909  -8.267  0.00  0.00     0.186 C 
BRANCH   5   6
HETATM    6  C           1     -20.428  -4.427  -8.795  0.00  0.00     0.196 C 
HETATM    7  O           1     -20.048  -4.770  -9.935  0.00  0.00    -0.646 OA
HETATM    8  O           1     -19.708  -3.685  -8.093  0.00  0.00    -0.646 OA
ENDBRANCH   5   6
BRANCH   5   9
HETATM    9  C           1     -22.853  -3.939  -8.686  0.00  0.00     0.046 C 
BRANCH   9  10
HETATM   10  C           1     -23.581  -4.488  -9.905  0.00  0.00     0.116 C 
BRANCH  10  11
HETATM   11  C           1     -24.522  -3.439 -10.445  0.00  0.00     0.172 C 
HETATM   12  O           1     -24.262  -2.862 -11.522  0.00  0.00    -0.648 OA
HETATM   13  O           1     -25.562  -3.148  -9.815  0.00  0.00    -0.648 OA
ENDBRANCH  10  11
ENDBRANCH   9  10
ENDBRANCH   5   9
ENDBRANCH   4   5
BRANCH   3  14
HETATM   14  C           1     -21.190  -6.197  -4.704  0.00  0.00     0.274 C 
BRANCH  14  15
HETATM   15  C           1     -20.535  -7.506  -4.285  0.00  0.00     0.045 C 
BRANCH  15  16
HETATM   16 Se           1     -20.928  -7.859  -2.409  0.00  0.00     0.000 Se
HETATM   17  H           1     -20.320  -9.201  -2.414  0.00  0.00     0.000 HD
ENDBRANCH  15  16
ENDBRANCH  14  15
BRANCH  14  18
HETATM   18  N           1     -22.582  -6.136  -4.149  0.00  0.00    -0.067 N 
HETATM   19  H           1     -23.137  -6.947  -4.505  0.00  0.00     0.275 HD
HETATM   20  H           1     -22.543  -6.173  -3.105  0.00  0.00     0.275 HD
HETATM   21  H           1     -23.038  -5.244  -4.449  0.00  0.00     0.275 HD
ENDBRANCH  14  18
ENDBRANCH   3  14
TORSDOF 9
ENDMDL
MODEL 5
REMARK VINA RESULT:      -5.3     11.754     13.463
REMARK  9 active torsions:
REMARK  status: ('A' for Active; 'I' for Inactive)
REMARK    1  A    between atoms: C_1  and  C_11 
REMARK    2  A    between atoms: C_1  and  C_2 
REMARK    3  A    between atoms: C_1  and  N_4 
REMARK    4  A    between atoms: C_2  and  Se_3 
REMARK       I    between atoms: C_11  and  N_12 
REMARK    5  A    between atoms: N_12  and  C_16 
REMARK    6  A    between atoms: C_15  and  C_16 
REMARK    7  A    between atoms: C_16  and  C_17 
REMARK    8  A    between atoms: C_17  and  C_18 
REMARK    9  A    between atoms: C_18  and  C_20 
ROOT
HETATM    1  O           1     -34.521  -1.425 -10.026  0.00  0.00    -0.271 OA
HETATM    2  H           1     -36.279  -3.217 -11.909  0.00  0.00     0.163 HD
HETATM    3  C           1     -35.454  -1.727 -10.733  0.00  0.00     0.249 C 
HETATM    4  N           1     -35.498  -2.964 -11.317  0.00  0.00    -0.345 N 
ENDROOT
BRANCH   4   5
HETATM    5  C           1     -34.426  -3.913 -11.088  0.00  0.00     0.186 C 
BRANCH   5   6
HETATM    6  C           1     -33.436  -3.837 -12.224  0.00  0.00     0.196 C 
HETATM    7  O           1     -32.211  -3.926 -11.992  0.00  0.00    -0.646 OA
HETATM    8  O           1     -33.840  -3.685 -13.397  0.00  0.00    -0.646 OA
ENDBRANCH   5   6
BRANCH   5   9
HETATM    9  C           1     -35.002  -5.320 -11.008  0.00  0.00     0.046 C 
BRANCH   9  10
HETATM   10  C           1     -33.873  -6.320 -10.794  0.00  0.00     0.116 C 
BRANCH  10  11
HETATM   11  C           1     -34.410  -7.540 -10.085  0.00  0.00     0.172 C 
HETATM   12  O           1     -33.772  -8.614 -10.121  0.00  0.00    -0.648 OA
HETATM   13  O           1     -35.492  -7.477  -9.463  0.00  0.00    -0.648 OA
ENDBRANCH  10  11
ENDBRANCH   9  10
ENDBRANCH   5   9
ENDBRANCH   4   5
BRANCH   3  14
HETATM   14  C           1     -36.569  -0.739 -10.972  0.00  0.00     0.274 C 
BRANCH  14  15
HETATM   15  C           1     -36.686  -0.454 -12.463  0.00  0.00     0.045 C 
BRANCH  15  16
HETATM   16 Se           1     -35.041   0.378 -13.097  0.00  0.00     0.000 Se
HETATM   17  H           1     -34.514   0.636 -11.746  0.00  0.00     0.000 HD
ENDBRANCH  15  16
ENDBRANCH  14  15
BRANCH  14  18
HETATM   18  N           1     -36.270   0.537 -10.242  0.00  0.00    -0.067 N 
HETATM   19  H           1     -37.149   1.092 -10.134  0.00  0.00     0.275 HD
HETATM   20  H           1     -35.880   0.315  -9.298  0.00  0.00     0.275 HD
HETATM   21  H           1     -35.571   1.094 -10.786  0.00  0.00     0.275 HD
ENDBRANCH  14  18
ENDBRANCH   3  14
TORSDOF 9
ENDMDL
MODEL 6
REMARK VINA RESULT:      -5.1      4.814      8.019
REMARK  9 active torsions:
REMARK  status: ('A' for Active; 'I' for Inactive)
REMARK    1  A    between atoms: C_1  and  C_11 
REMARK    2  A    between atoms: C_1  and  C_2 
REMARK    3  A    between atoms: C_1  and  N_4 
REMARK    4  A    between atoms: C_2  and  Se_3 
REMARK       I    between atoms: C_11  and  N_12 
REMARK    5  A    between atoms: N_12  and  C_16 
REMARK    6  A    between atoms: C_15  and  C_16 
REMARK    7  A    between atoms: C_16  and  C_17 
REMARK    8  A    between atoms: C_17  and  C_18 
REMARK    9  A    between atoms: C_18  and  C_20 
ROOT
HETATM    1  O           1     -20.317  -4.380  -6.092  0.00  0.00    -0.271 OA
HETATM    2  H           1     -21.806  -7.018  -6.909  0.00  0.00     0.163 HD
HETATM    3  C           1     -20.956  -5.135  -6.787  0.00  0.00     0.249 C 
HETATM    4  N           1     -21.272  -6.386  -6.327  0.00  0.00    -0.345 N 
ENDROOT
BRANCH   4   5
HETATM    5  C           1     -20.841  -6.804  -5.008  0.00  0.00     0.186 C 
BRANCH   5   6
HETATM    6  C           1     -20.371  -8.236  -5.062  0.00  0.00     0.196 C 
HETATM    7  O           1     -19.374  -8.592  -4.397  0.00  0.00    -0.646 OA
HETATM    8  O           1     -20.977  -9.067  -5.772  0.00  0.00    -0.646 OA
ENDBRANCH   5   6
BRANCH   5   9
HETATM    9  C           1     -22.005  -6.687  -4.033  0.00  0.00     0.046 C 
BRANCH   9  10
HETATM   10  C           1     -21.507  -6.120  -2.710  0.00  0.00     0.116 C 
BRANCH  10  11
HETATM   11  C           1     -21.829  -7.085  -1.595  0.00  0.00     0.172 C 
HETATM   12  O           1     -21.177  -8.144  -1.479  0.00  0.00    -0.648 OA
HETATM   13  O           1     -22.748  -6.824  -0.789  0.00  0.00    -0.648 OA
ENDBRANCH  10  11
ENDBRANCH   9  10
ENDBRANCH   5   9
ENDBRANCH   4   5
BRANCH   3  14
HETATM   14  C           1     -21.403  -4.701  -8.160  0.00  0.00     0.274 C 
BRANCH  14  15
HETATM   15  C           1     -20.186  -4.334  -8.999  0.00  0.00     0.045 C 
BRANCH  15  16
HETATM   16 Se           1     -20.717  -4.143 -10.865  0.00  0.00     0.000 Se
HETATM   17  H           1     -20.118  -2.806 -11.019  0.00  0.00     0.000 HD
ENDBRANCH  15  16
ENDBRANCH  14  15
BRANCH  14  18
HETATM   18  N           1     -22.302  -3.507  -8.038  0.00  0.00    -0.067 N 
HETATM   19  H           1     -23.281  -3.779  -8.283  0.00  0.00     0.275 HD
HETATM   20  H           1     -22.276  -3.150  -7.056  0.00  0.00     0.275 HD
HETATM   21  H           1     -21.976  -2.756  -8.689  0.00  0.00     0.275 HD
ENDBRANCH  14  18
ENDBRANCH   3  14
TORSDOF 9
ENDMDL
MODEL 7
REMARK VINA RESULT:      -5.0     12.088     13.844
REMARK  9 active torsions:
REMARK  status: ('A' for Active; 'I' for Inactive)
REMARK    1  A    between atoms: C_1  and  C_11 
REMARK    2  A    between atoms: C_1  and  C_2 
REMARK    3  A    between atoms: C_1  and  N_4 
REMARK    4  A    between atoms: C_2  and  Se_3 
REMARK       I    between atoms: C_11  and  N_12 
REMARK    5  A    between atoms: N_12  and  C_16 
REMARK    6  A    between atoms: C_15  and  C_16 
REMARK    7  A    between atoms: C_16  and  C_17 
REMARK    8  A    between atoms: C_17  and  C_18 
REMARK    9  A    between atoms: C_18  and  C_20 
ROOT
HETATM    1  O           1     -35.826   0.842 -11.232  0.00  0.00    -0.271 OA
HETATM    2  H           1     -36.086  -2.195 -10.489  0.00  0.00     0.163 HD
HETATM    3  C           1     -36.271  -0.144 -10.693  0.00  0.00     0.249 C 
HETATM    4  N           1     -35.713  -1.370 -10.939  0.00  0.00    -0.345 N 
ENDROOT
BRANCH   4   5
HETATM    5  C           1     -34.588  -1.485 -11.847  0.00  0.00     0.186 C 
BRANCH   5   6
HETATM    6  C           1     -35.076  -1.953 -13.196  0.00  0.00     0.196 C 
HETATM    7  O           1     -34.540  -2.940 -13.745  0.00  0.00    -0.646 OA
HETATM    8  O           1     -36.015  -1.355 -13.764  0.00  0.00    -0.646 OA
ENDBRANCH   5   6
BRANCH   5   9
HETATM    9  C           1     -33.588  -2.489 -11.291  0.00  0.00     0.046 C 
BRANCH   9  10
HETATM   10  C           1     -34.323  -3.534 -10.462  0.00  0.00     0.116 C 
BRANCH  10  11
HETATM   11  C           1     -33.909  -4.915 -10.909  0.00  0.00     0.172 C 
HETATM   12  O           1     -34.628  -5.900 -10.640  0.00  0.00    -0.648 OA
HETATM   13  O           1     -32.847  -5.072 -11.549  0.00  0.00    -0.648 OA
ENDBRANCH  10  11
ENDBRANCH   9  10
ENDBRANCH   5   9
ENDBRANCH   4   5
BRANCH   3  14
HETATM   14  C           1     -37.443  -0.025  -9.750  0.00  0.00     0.274 C 
BRANCH  14  15
HETATM   15  C           1     -37.450   1.361  -9.120  0.00  0.00     0.045 C 
BRANCH  15  16
HETATM   16 Se           1     -37.330   1.196  -7.182  0.00  0.00     0.000 Se
HETATM   17  H           1     -35.976   1.770  -7.101  0.00  0.00     0.000 HD
ENDBRANCH  15  16
ENDBRANCH  14  15
BRANCH  14  18
HETATM   18  N           1     -37.324  -1.061  -8.673  0.00  0.00    -0.067 N 
HETATM   19  H           1     -36.769  -0.675  -7.875  0.00  0.00     0.275 HD
HETATM   20  H           1     -38.277  -1.326  -8.337  0.00  0.00     0.275 HD
HETATM   21  H           1     -36.842  -1.907  -9.054  0.00  0.00     0.275 HD
ENDBRANCH  14  18
ENDBRANCH   3  14
TORSDOF 9
ENDMDL
MODEL 8
REMARK VINA RESULT:      -5.0      8.686     10.968
REMARK  9 active torsions:
REMARK  status: ('A' for Active; 'I' for Inactive)
REMARK    1  A    between atoms: C_1  and  C_11 
REMARK    2  A    between atoms: C_1  and  C_2 
REMARK    3  A    between atoms: C_1  and  N_4 
REMARK    4  A    between atoms: C_2  and  Se_3 
REMARK       I    between atoms: C_11  and  N_12 
REMARK    5  A    between atoms: N_12  and  C_16 
REMARK    6  A    between atoms: C_15  and  C_16 
REMARK    7  A    between atoms: C_16  and  C_17 
REMARK    8  A    between atoms: C_17  and  C_18 
REMARK    9  A    between atoms: C_18  and  C_20 
ROOT
HETATM    1  O           1     -27.567  -5.850 -19.335  0.00  0.00    -0.271 OA
HETATM    2  H           1     -25.029  -7.242 -18.125  0.00  0.00     0.163 HD
HETATM    3  C           1     -26.521  -6.456 -19.324  0.00  0.00     0.249 C 
HETATM    4  N           1     -25.904  -6.735 -18.134  0.00  0.00    -0.345 N 
ENDROOT
BRANCH   4   5
HETATM    5  C           1     -26.506  -6.305 -16.887  0.00  0.00     0.186 C 
BRANCH   5   6
HETATM    6  C           1     -25.484  -6.390 -15.780  0.00  0.00     0.196 C 
HETATM    7  O           1     -24.886  -5.359 -15.402  0.00  0.00    -0.646 OA
HETATM    8  O           1     -25.236  -7.489 -15.241  0.00  0.00    -0.646 OA
ENDBRANCH   5   6
BRANCH   5   9
HETATM    9  C           1     -27.690  -7.204 -16.558  0.00  0.00     0.046 C 
BRANCH   9  10
HETATM   10  C           1     -28.767  -6.390 -15.854  0.00  0.00     0.116 C 
BRANCH  10  11
HETATM   11  C           1     -29.992  -6.311 -16.732  0.00  0.00     0.172 C 
HETATM   12  O           1     -30.361  -7.314 -17.380  0.00  0.00    -0.648 OA
HETATM   13  O           1     -30.638  -5.243 -16.810  0.00  0.00    -0.648 OA
ENDBRANCH  10  11
ENDBRANCH   9  10
ENDBRANCH   5   9
ENDBRANCH   4   5
BRANCH   3  14
HETATM   14  C           1     -25.895  -6.903 -20.622  0.00  0.00     0.274 C 
BRANCH  14  15
HETATM   15  C           1     -24.691  -7.788 -20.328  0.00  0.00     0.045 C 
BRANCH  15  16
HETATM   16 Se           1     -23.713  -8.124 -21.980  0.00  0.00     0.000 Se
HETATM   17  H           1     -24.333  -7.005 -22.711  0.00  0.00     0.000 HD
ENDBRANCH  15  16
ENDBRANCH  14  15
BRANCH  14  18
HETATM   18  N           1     -25.452  -5.701 -21.402  0.00  0.00    -0.067 N 
HETATM   19  H           1     -25.653  -5.848 -22.417  0.00  0.00     0.275 HD
HETATM   20  H           1     -25.967  -4.857 -21.064  0.00  0.00     0.275 HD
HETATM   21  H           1     -24.424  -5.558 -21.268  0.00  0.00     0.275 HD
ENDBRANCH  14  18
ENDBRANCH   3  14
TORSDOF 9
ENDMDL
MODEL 9
REMARK VINA RESULT:      -4.8      9.460     10.988
REMARK  9 active torsions:
REMARK  status: ('A' for Active; 'I' for Inactive)
REMARK    1  A    between atoms: C_1  and  C_11 
REMARK    2  A    between atoms: C_1  and  C_2 
REMARK    3  A    between atoms: C_1  and  N_4 
REMARK    4  A    between atoms: C_2  and  Se_3 
REMARK       I    between atoms: C_11  and  N_12 
REMARK    5  A    between atoms: N_12  and  C_16 
REMARK    6  A    between atoms: C_15  and  C_16 
REMARK    7  A    between atoms: C_16  and  C_17 
REMARK    8  A    between atoms: C_17  and  C_18 
REMARK    9  A    between atoms: C_18  and  C_20 
ROOT
HETATM    1  O           1     -27.547  -5.845 -19.623  0.00  0.00    -0.271 OA
HETATM    2  H           1     -26.264  -7.134 -17.067  0.00  0.00     0.163 HD
HETATM    3  C           1     -26.701  -6.375 -18.942  0.00  0.00     0.249 C 
HETATM    4  N           1     -26.973  -6.691 -17.638  0.00  0.00    -0.345 N 
ENDROOT
BRANCH   4   5
HETATM    5  C           1     -28.275  -6.392 -17.075  0.00  0.00     0.186 C 
BRANCH   5   6
HETATM    6  C           1     -28.212  -6.513 -15.572  0.00  0.00     0.196 C 
HETATM    7  O           1     -27.854  -7.590 -15.047  0.00  0.00    -0.646 OA
HETATM    8  O           1     -28.517  -5.538 -14.853  0.00  0.00    -0.646 OA
ENDBRANCH   5   6
BRANCH   5   9
HETATM    9  C           1     -29.302  -7.374 -17.622  0.00  0.00     0.046 C 
BRANCH   9  10
HETATM   10  C           1     -30.705  -6.869 -17.309  0.00  0.00     0.116 C 
BRANCH  10  11
HETATM   11  C           1     -30.733  -5.364 -17.412  0.00  0.00     0.172 C 
HETATM   12  O           1     -31.252  -4.685 -16.501  0.00  0.00    -0.648 OA
HETATM   13  O           1     -30.236  -4.796 -18.409  0.00  0.00    -0.648 OA
ENDBRANCH  10  11
ENDBRANCH   9  10
ENDBRANCH   5   9
ENDBRANCH   4   5
BRANCH   3  14
HETATM   14  C           1     -25.346  -6.685 -19.528  0.00  0.00     0.274 C 
BRANCH  14  15
HETATM   15  C           1     -25.511  -7.584 -20.745  0.00  0.00     0.045 C 
BRANCH  15  16
HETATM   16 Se           1     -23.762  -8.207 -21.336  0.00  0.00     0.000 Se
HETATM   17  H           1     -24.303  -9.266 -22.204  0.00  0.00     0.000 HD
ENDBRANCH  15  16
ENDBRANCH  14  15
BRANCH  14  18
HETATM   18  N           1     -24.507  -7.385 -18.501  0.00  0.00    -0.067 N 
HETATM   19  H           1     -23.497  -7.306 -18.761  0.00  0.00     0.275 HD
HETATM   20  H           1     -24.661  -6.944 -17.566  0.00  0.00     0.275 HD
HETATM   21  H           1     -24.777  -8.394 -18.459  0.00  0.00     0.275 HD
ENDBRANCH  14  18
ENDBRANCH   3  14
TORSDOF 9
ENDMDL
