MODEL 1
REMARK VINA RESULT:      -5.5      0.000      0.000
REMARK  6 active torsions:
REMARK  status: ('A' for Active; 'I' for Inactive)
REMARK    1  A    between atoms: N_1  and  C_14 
REMARK    2  A    between atoms: C_5  and  C_12 
REMARK    3  A    between atoms: Se_10  and  C_11 
REMARK    4  A    between atoms: C_11  and  C_12 
REMARK    5  A    between atoms: C_12  and  N_16 
REMARK       I    between atoms: C_13  and  N_16 
REMARK    6  A    between atoms: C_13  and  C_14 
ROOT
HETATM    1  O           1     -22.865  -2.948 -14.941  0.00  0.00    -0.272 OA
HETATM    2  H           1     -24.068  -1.454 -12.459  0.00  0.00     0.163 HD
HETATM    3  C           1     -23.462  -2.093 -14.331  0.00  0.00     0.243 C 
HETATM    4  N           1     -23.569  -2.171 -12.970  0.00  0.00    -0.345 N 
ENDROOT
BRANCH   4   5
HETATM    5  C           1     -22.966  -3.281 -12.257  0.00  0.00     0.185 C 
BRANCH   5   6
HETATM    6  C           1     -23.985  -3.893 -11.328  0.00  0.00     0.196 C 
HETATM    7  O           1     -24.945  -3.208 -10.915  0.00  0.00    -0.646 OA
HETATM    8  O           1     -23.869  -5.085 -10.971  0.00  0.00    -0.646 OA
ENDBRANCH   5   6
BRANCH   5   9
HETATM    9  C           1     -21.776  -2.779 -11.448  0.00  0.00     0.039 C 
BRANCH   9  10
HETATM   10 Se           1     -20.574  -4.266 -11.068  0.00  0.00     0.000 Se
HETATM   11  H           1     -20.674  -4.843 -12.417  0.00  0.00     0.000 HD
ENDBRANCH   9  10
ENDBRANCH   5   9
ENDBRANCH   4   5
BRANCH   3  12
HETATM   12  C           1     -24.089  -0.939 -15.073  0.00  0.00     0.332 C 
BRANCH  12  13
HETATM   13  N           1     -23.099  -0.369 -16.045  0.00  0.00    -0.071 N 
HETATM   14  H           1     -22.140  -0.410 -15.632  0.00  0.00     0.274 HD
HETATM   15  H           1     -23.120  -0.926 -16.929  0.00  0.00     0.274 HD
HETATM   16  H           1     -23.348   0.625 -16.253  0.00  0.00     0.274 HD
ENDBRANCH  12  13
ENDBRANCH   3  12
TORSDOF 6
ENDMDL
MODEL 2
REMARK VINA RESULT:      -5.0      1.776      1.944
REMARK  6 active torsions:
REMARK  status: ('A' for Active; 'I' for Inactive)
REMARK    1  A    between atoms: N_1  and  C_14 
REMARK    2  A    between atoms: C_5  and  C_12 
REMARK    3  A    between atoms: Se_10  and  C_11 
REMARK    4  A    between atoms: C_11  and  C_12 
REMARK    5  A    between atoms: C_12  and  N_16 
REMARK       I    between atoms: C_13  and  N_16 
REMARK    6  A    between atoms: C_13  and  C_14 
ROOT
HETATM    1  O           1     -24.513  -4.166 -13.444  0.00  0.00    -0.272 OA
HETATM    2  H           1     -22.568  -2.446 -11.683  0.00  0.00     0.163 HD
HETATM    3  C           1     -23.749  -3.272 -13.168  0.00  0.00     0.243 C 
HETATM    4  N           1     -23.209  -3.195 -11.914  0.00  0.00    -0.345 N 
ENDROOT
BRANCH   4   5
HETATM    5  C           1     -23.553  -4.186 -10.913  0.00  0.00     0.185 C 
BRANCH   5   6
HETATM    6  C           1     -24.461  -3.563  -9.881  0.00  0.00     0.196 C 
HETATM    7  O           1     -25.595  -3.154 -10.212  0.00  0.00    -0.646 OA
HETATM    8  O           1     -24.080  -3.458  -8.696  0.00  0.00    -0.646 OA
ENDBRANCH   5   6
BRANCH   5   9
HETATM    9  C           1     -22.284  -4.688 -10.237  0.00  0.00     0.039 C 
BRANCH   9  10
HETATM   10 Se           1     -20.735  -3.798 -11.017  0.00  0.00     0.000 Se
HETATM   11  H           1     -21.254  -3.849 -12.393  0.00  0.00     0.000 HD
ENDBRANCH   9  10
ENDBRANCH   5   9
ENDBRANCH   4   5
BRANCH   3  12
HETATM   12  C           1     -23.390  -2.240 -14.209  0.00  0.00     0.332 C 
BRANCH  12  13
HETATM   13  N           1     -22.383  -2.815 -15.160  0.00  0.00    -0.071 N 
HETATM   14  H           1     -21.572  -3.196 -14.622  0.00  0.00     0.274 HD
HETATM   15  H           1     -22.825  -3.584 -15.713  0.00  0.00     0.274 HD
HETATM   16  H           1     -22.050  -2.066 -15.810  0.00  0.00     0.274 HD
ENDBRANCH  12  13
ENDBRANCH   3  12
TORSDOF 6
ENDMDL
MODEL 3
REMARK VINA RESULT:      -4.8     12.705     13.605
REMARK  6 active torsions:
REMARK  status: ('A' for Active; 'I' for Inactive)
REMARK    1  A    between atoms: N_1  and  C_14 
REMARK    2  A    between atoms: C_5  and  C_12 
REMARK    3  A    between atoms: Se_10  and  C_11 
REMARK    4  A    between atoms: C_11  and  C_12 
REMARK    5  A    between atoms: C_12  and  N_16 
REMARK       I    between atoms: C_13  and  N_16 
REMARK    6  A    between atoms: C_13  and  C_14 
ROOT
HETATM    1  O           1     -38.027  -0.683 -11.200  0.00  0.00    -0.272 OA
HETATM    2  H           1     -35.320   0.881 -10.945  0.00  0.00     0.163 HD
HETATM    3  C           1     -37.205   0.059 -10.718  0.00  0.00     0.243 C 
HETATM    4  N           1     -36.008   0.259 -11.349  0.00  0.00    -0.345 N 
ENDROOT
BRANCH   4   5
HETATM    5  C           1     -35.724  -0.422 -12.597  0.00  0.00     0.185 C 
BRANCH   5   6
HETATM    6  C           1     -34.768  -1.561 -12.342  0.00  0.00     0.196 C 
HETATM    7  O           1     -34.700  -2.513 -13.149  0.00  0.00    -0.646 OA
HETATM    8  O           1     -34.043  -1.552 -11.324  0.00  0.00    -0.646 OA
ENDBRANCH   5   6
BRANCH   5   9
HETATM    9  C           1     -35.095   0.559 -13.579  0.00  0.00     0.039 C 
BRANCH   9  10
HETATM   10 Se           1     -35.825   0.256 -15.360  0.00  0.00     0.000 Se
HETATM   11  H           1     -35.476  -1.173 -15.386  0.00  0.00     0.000 HD
ENDBRANCH   9  10
ENDBRANCH   5   9
ENDBRANCH   4   5
BRANCH   3  12
HETATM   12  C           1     -37.500   0.767  -9.418  0.00  0.00     0.332 C 
BRANCH  12  13
HETATM   13  N           1     -36.214   1.192  -8.774  0.00  0.00    -0.071 N 
HETATM   14  H           1     -35.417   0.985  -9.417  0.00  0.00     0.274 HD
HETATM   15  H           1     -36.245   2.218  -8.578  0.00  0.00     0.274 HD
HETATM   16  H           1     -36.085   0.670  -7.877  0.00  0.00     0.274 HD
ENDBRANCH  12  13
ENDBRANCH   3  12
TORSDOF 6
ENDMDL
MODEL 4
REMARK VINA RESULT:      -4.8      2.468      2.910
REMARK  6 active torsions:
REMARK  status: ('A' for Active; 'I' for Inactive)
REMARK    1  A    between atoms: N_1  and  C_14 
REMARK    2  A    between atoms: C_5  and  C_12 
REMARK    3  A    between atoms: Se_10  and  C_11 
REMARK    4  A    between atoms: C_11  and  C_12 
REMARK    5  A    between atoms: C_12  and  N_16 
REMARK       I    between atoms: C_13  and  N_16 
REMARK    6  A    between atoms: C_13  and  C_14 
ROOT
HETATM    1  O           1     -23.737  -2.143 -12.868  0.00  0.00    -0.272 OA
HETATM    2  H           1     -21.383  -4.191 -13.188  0.00  0.00     0.163 HD
HETATM    3  C           1     -22.909  -2.816 -13.434  0.00  0.00     0.243 C 
HETATM    4  N           1     -22.076  -3.627 -12.713  0.00  0.00    -0.345 N 
ENDROOT
BRANCH   4   5
HETATM    5  C           1     -22.188  -3.681 -11.269  0.00  0.00     0.185 C 
BRANCH   5   6
HETATM    6  C           1     -20.882  -4.156 -10.682  0.00  0.00     0.196 C 
HETATM    7  O           1     -19.844  -4.149 -11.379  0.00  0.00    -0.646 OA
HETATM    8  O           1     -20.836  -4.555  -9.499  0.00  0.00    -0.646 OA
ENDBRANCH   5   6
BRANCH   5   9
HETATM    9  C           1     -23.301  -4.647 -10.880  0.00  0.00     0.039 C 
BRANCH   9  10
HETATM   10 Se           1     -24.584  -3.734  -9.732  0.00  0.00     0.000 Se
HETATM   11  H           1     -25.749  -4.085 -10.561  0.00  0.00     0.000 HD
ENDBRANCH   9  10
ENDBRANCH   5   9
ENDBRANCH   4   5
BRANCH   3  12
HETATM   12  C           1     -22.793  -2.760 -14.938  0.00  0.00     0.332 C 
BRANCH  12  13
HETATM   13  N           1     -23.203  -1.401 -15.423  0.00  0.00    -0.071 N 
HETATM   14  H           1     -23.319  -0.759 -14.607  0.00  0.00     0.274 HD
HETATM   15  H           1     -22.467  -1.023 -16.061  0.00  0.00     0.274 HD
HETATM   16  H           1     -24.108  -1.475 -15.941  0.00  0.00     0.274 HD
ENDBRANCH  12  13
ENDBRANCH   3  12
TORSDOF 6
ENDMDL
MODEL 5
REMARK VINA RESULT:      -4.6     11.601     12.607
REMARK  6 active torsions:
REMARK  status: ('A' for Active; 'I' for Inactive)
REMARK    1  A    between atoms: N_1  and  C_14 
REMARK    2  A    between atoms: C_5  and  C_12 
REMARK    3  A    between atoms: Se_10  and  C_11 
REMARK    4  A    between atoms: C_11  and  C_12 
REMARK    5  A    between atoms: C_12  and  N_16 
REMARK       I    between atoms: C_13  and  N_16 
REMARK    6  A    between atoms: C_13  and  C_14 
ROOT
HETATM    1  O           1     -33.261  -1.753 -10.527  0.00  0.00    -0.272 OA
HETATM    2  H           1     -35.543  -3.025 -12.261  0.00  0.00     0.163 HD
HETATM    3  C           1     -33.907  -2.622 -11.062  0.00  0.00     0.243 C 
HETATM    4  N           1     -35.003  -2.296 -11.813  0.00  0.00    -0.345 N 
ENDROOT
BRANCH   4   5
HETATM    5  C           1     -35.390  -0.908 -11.967  0.00  0.00     0.185 C 
BRANCH   5   6
HETATM    6  C           1     -36.536  -0.600 -11.034  0.00  0.00     0.196 C 
HETATM    7  O           1     -37.624  -1.202 -11.161  0.00  0.00    -0.646 OA
HETATM    8  O           1     -36.396   0.256 -10.134  0.00  0.00    -0.646 OA
ENDBRANCH   5   6
BRANCH   5   9
HETATM    9  C           1     -35.826  -0.659 -13.406  0.00  0.00     0.039 C 
BRANCH   9  10
HETATM   10 Se           1     -34.901   0.909 -14.104  0.00  0.00     0.000 Se
HETATM   11  H           1     -35.540   0.840 -15.427  0.00  0.00     0.000 HD
ENDBRANCH   9  10
ENDBRANCH   5   9
ENDBRANCH   4   5
BRANCH   3  12
HETATM   12  C           1     -33.504  -4.067 -10.901  0.00  0.00     0.332 C 
BRANCH  12  13
HETATM   13  N           1     -32.704  -4.500 -12.094  0.00  0.00    -0.071 N 
HETATM   14  H           1     -31.910  -3.837 -12.242  0.00  0.00     0.274 HD
HETATM   15  H           1     -32.328  -5.462 -11.930  0.00  0.00     0.274 HD
HETATM   16  H           1     -33.317  -4.506 -12.941  0.00  0.00     0.274 HD
ENDBRANCH  12  13
ENDBRANCH   3  12
TORSDOF 6
ENDMDL
MODEL 6
REMARK VINA RESULT:      -4.6      4.256      6.011
REMARK  6 active torsions:
REMARK  status: ('A' for Active; 'I' for Inactive)
REMARK    1  A    between atoms: N_1  and  C_14 
REMARK    2  A    between atoms: C_5  and  C_12 
REMARK    3  A    between atoms: Se_10  and  C_11 
REMARK    4  A    between atoms: C_11  and  C_12 
REMARK    5  A    between atoms: C_12  and  N_16 
REMARK       I    between atoms: C_13  and  N_16 
REMARK    6  A    between atoms: C_13  and  C_14 
ROOT
HETATM    1  O           1     -21.598  -3.276  -7.263  0.00  0.00    -0.272 OA
HETATM    2  H           1     -22.240  -5.804  -9.005  0.00  0.00     0.163 HD
HETATM    3  C           1     -21.659  -4.446  -7.557  0.00  0.00     0.243 C 
HETATM    4  N           1     -22.191  -4.824  -8.759  0.00  0.00    -0.345 N 
ENDROOT
BRANCH   4   5
HETATM    5  C           1     -22.683  -3.820  -9.682  0.00  0.00     0.185 C 
BRANCH   5   6
HETATM    6  C           1     -24.191  -3.860  -9.709  0.00  0.00     0.196 C 
HETATM    7  O           1     -24.783  -4.928  -9.977  0.00  0.00    -0.646 OA
HETATM    8  O           1     -24.849  -2.826  -9.463  0.00  0.00    -0.646 OA
ENDBRANCH   5   6
BRANCH   5   9
HETATM    9  C           1     -22.141  -4.103 -11.077  0.00  0.00     0.039 C 
BRANCH   9  10
HETATM   10 Se           1     -22.838  -2.780 -12.327  0.00  0.00     0.000 Se
HETATM   11  H           1     -21.509  -2.350 -12.792  0.00  0.00     0.000 HD
ENDBRANCH   9  10
ENDBRANCH   5   9
ENDBRANCH   4   5
BRANCH   3  12
HETATM   12  C           1     -21.146  -5.491  -6.596  0.00  0.00     0.332 C 
BRANCH  12  13
HETATM   13  N           1     -20.095  -6.321  -7.271  0.00  0.00    -0.071 N 
HETATM   14  H           1     -19.978  -7.223  -6.756  0.00  0.00     0.274 HD
HETATM   15  H           1     -20.387  -6.519  -8.255  0.00  0.00     0.274 HD
HETATM   16  H           1     -19.189  -5.800  -7.275  0.00  0.00     0.274 HD
ENDBRANCH  12  13
ENDBRANCH   3  12
TORSDOF 6
ENDMDL
MODEL 7
REMARK VINA RESULT:      -4.5      3.371      4.471
REMARK  6 active torsions:
REMARK  status: ('A' for Active; 'I' for Inactive)
REMARK    1  A    between atoms: N_1  and  C_14 
REMARK    2  A    between atoms: C_5  and  C_12 
REMARK    3  A    between atoms: Se_10  and  C_11 
REMARK    4  A    between atoms: C_11  and  C_12 
REMARK    5  A    between atoms: C_12  and  N_16 
REMARK       I    between atoms: C_13  and  N_16 
REMARK    6  A    between atoms: C_13  and  C_14 
ROOT
HETATM    1  O           1     -20.796  -2.735 -11.317  0.00  0.00    -0.272 OA
HETATM    2  H           1     -22.494  -5.171 -10.308  0.00  0.00     0.163 HD
HETATM    3  C           1     -21.018  -3.830 -10.859  0.00  0.00     0.243 C 
HETATM    4  N           1     -22.308  -4.253 -10.691  0.00  0.00    -0.345 N 
ENDROOT
BRANCH   4   5
HETATM    5  C           1     -23.410  -3.386 -11.062  0.00  0.00     0.185 C 
BRANCH   5   6
HETATM    6  C           1     -24.469  -3.433  -9.988  0.00  0.00     0.196 C 
HETATM    7  O           1     -25.657  -3.167 -10.269  0.00  0.00    -0.646 OA
HETATM    8  O           1     -24.159  -3.740  -8.817  0.00  0.00    -0.646 OA
ENDBRANCH   5   6
BRANCH   5   9
HETATM    9  C           1     -24.005  -3.857 -12.383  0.00  0.00     0.039 C 
BRANCH   9  10
HETATM   10 Se           1     -23.322  -2.751 -13.835  0.00  0.00     0.000 Se
HETATM   11  H           1     -24.068  -1.551 -13.427  0.00  0.00     0.000 HD
ENDBRANCH   9  10
ENDBRANCH   5   9
ENDBRANCH   4   5
BRANCH   3  12
HETATM   12  C           1     -19.872  -4.732 -10.473  0.00  0.00     0.332 C 
BRANCH  12  13
HETATM   13  N           1     -19.871  -4.935  -8.987  0.00  0.00    -0.071 N 
HETATM   14  H           1     -19.511  -4.074  -8.517  0.00  0.00     0.274 HD
HETATM   15  H           1     -20.846  -5.127  -8.661  0.00  0.00     0.274 HD
HETATM   16  H           1     -19.257  -5.747  -8.747  0.00  0.00     0.274 HD
ENDBRANCH  12  13
ENDBRANCH   3  12
TORSDOF 6
ENDMDL
MODEL 8
REMARK VINA RESULT:      -4.3     10.980     11.325
REMARK  6 active torsions:
REMARK  status: ('A' for Active; 'I' for Inactive)
REMARK    1  A    between atoms: N_1  and  C_14 
REMARK    2  A    between atoms: C_5  and  C_12 
REMARK    3  A    between atoms: Se_10  and  C_11 
REMARK    4  A    between atoms: C_11  and  C_12 
REMARK    5  A    between atoms: C_12  and  N_16 
REMARK       I    between atoms: C_13  and  N_16 
REMARK    6  A    between atoms: C_13  and  C_14 
ROOT
HETATM    1  O           1     -35.022  -5.026 -15.364  0.00  0.00    -0.272 OA
HETATM    2  H           1     -32.577  -3.487 -14.142  0.00  0.00     0.163 HD
HETATM    3  C           1     -33.952  -4.466 -15.339  0.00  0.00     0.243 C 
HETATM    4  N           1     -33.474  -3.956 -14.163  0.00  0.00    -0.345 N 
ENDROOT
BRANCH   4   5
HETATM    5  C           1     -34.251  -4.086 -12.946  0.00  0.00     0.185 C 
BRANCH   5   6
HETATM    6  C           1     -34.885  -2.758 -12.611  0.00  0.00     0.196 C 
HETATM    7  O           1     -34.685  -1.767 -13.346  0.00  0.00    -0.646 OA
HETATM    8  O           1     -35.610  -2.649 -11.599  0.00  0.00    -0.646 OA
ENDBRANCH   5   6
BRANCH   5   9
HETATM    9  C           1     -33.339  -4.517 -11.805  0.00  0.00     0.039 C 
BRANCH   9  10
HETATM   10 Se           1     -34.183  -5.965 -10.808  0.00  0.00     0.000 Se
HETATM   11  H           1     -34.778  -5.077  -9.797  0.00  0.00     0.000 HD
ENDBRANCH   9  10
ENDBRANCH   5   9
ENDBRANCH   4   5
BRANCH   3  12
HETATM   12  C           1     -33.143  -4.331 -16.605  0.00  0.00     0.332 C 
BRANCH  12  13
HETATM   13  N           1     -33.652  -3.167 -17.404  0.00  0.00    -0.071 N 
HETATM   14  H           1     -34.604  -3.387 -17.773  0.00  0.00     0.274 HD
HETATM   15  H           1     -33.702  -2.321 -16.793  0.00  0.00     0.274 HD
HETATM   16  H           1     -33.002  -2.982 -18.202  0.00  0.00     0.274 HD
ENDBRANCH  12  13
ENDBRANCH   3  12
TORSDOF 6
ENDMDL
MODEL 9
REMARK VINA RESULT:      -4.0     10.693     11.383
REMARK  6 active torsions:
REMARK  status: ('A' for Active; 'I' for Inactive)
REMARK    1  A    between atoms: N_1  and  C_14 
REMARK    2  A    between atoms: C_5  and  C_12 
REMARK    3  A    between atoms: Se_10  and  C_11 
REMARK    4  A    between atoms: C_11  and  C_12 
REMARK    5  A    between atoms: C_12  and  N_16 
REMARK       I    between atoms: C_13  and  N_16 
REMARK    6  A    between atoms: C_13  and  C_14 
ROOT
HETATM    1  O           1     -34.758  -2.616 -14.468  0.00  0.00    -0.272 OA
HETATM    2  H           1     -33.934  -5.264 -13.002  0.00  0.00     0.163 HD
HETATM    3  C           1     -34.357  -3.749 -14.346  0.00  0.00     0.243 C 
HETATM    4  N           1     -34.270  -4.314 -13.103  0.00  0.00    -0.345 N 
ENDROOT
BRANCH   4   5
HETATM    5  C           1     -34.658  -3.554 -11.931  0.00  0.00     0.185 C 
BRANCH   5   6
HETATM    6  C           1     -33.434  -2.926 -11.312  0.00  0.00     0.196 C 
HETATM    7  O           1     -32.304  -3.419 -11.521  0.00  0.00    -0.646 OA
HETATM    8  O           1     -33.548  -1.911 -10.591  0.00  0.00    -0.646 OA
ENDBRANCH   5   6
BRANCH   5   9
HETATM    9  C           1     -35.320  -4.482 -10.920  0.00  0.00     0.039 C 
BRANCH   9  10
HETATM   10 Se           1     -34.335  -6.162 -10.836  0.00  0.00     0.000 Se
HETATM   11  H           1     -33.309  -5.742 -11.803  0.00  0.00     0.000 HD
ENDBRANCH   9  10
ENDBRANCH   5   9
ENDBRANCH   4   5
BRANCH   3  12
HETATM   12  C           1     -33.953  -4.540 -15.565  0.00  0.00     0.332 C 
BRANCH  12  13
HETATM   13  N           1     -34.873  -5.712 -15.731  0.00  0.00    -0.071 N 
HETATM   14  H           1     -35.222  -5.746 -16.716  0.00  0.00     0.274 HD
HETATM   15  H           1     -34.356  -6.595 -15.515  0.00  0.00     0.274 HD
HETATM   16  H           1     -35.683  -5.615 -15.077  0.00  0.00     0.274 HD
ENDBRANCH  12  13
ENDBRANCH   3  12
TORSDOF 6
ENDMDL
