MODEL 1
REMARK VINA RESULT:      -7.0      0.000      0.000
REMARK  10 active torsions:
REMARK  status: ('A' for Active; 'I' for Inactive)
REMARK    1  A    between atoms: C_1  and  C_3 
REMARK    2  A    between atoms: C_1  and  C_2 
REMARK    3  A    between atoms: C_1  and  N_6 
REMARK    4  A    between atoms: C_2  and  C_19 
REMARK       I    between atoms: C_3  and  N_18 
REMARK    5  A    between atoms: N_7  and  C_22 
REMARK    6  A    between atoms: C_8  and  C_20 
REMARK    7  A    between atoms: C_8  and  C_12 
REMARK    8  A    between atoms: C_8  and  N_18 
REMARK    9  A    between atoms: C_12  and  C_23 
REMARK   10  A    between atoms: C_19  and  C_22 
ROOT
HETATM    1  C           1     -33.876  -3.235 -11.232  0.00  0.00     0.249 C 
HETATM    2  H           1     -34.196  -1.905  -9.679  0.00  0.00     0.163 HD
HETATM    3  N           1     -34.302  -2.060 -10.674  0.00  0.00    -0.344 N 
HETATM    4  O           1     -32.746  -3.334 -11.645  0.00  0.00    -0.271 OA
ENDROOT
BRANCH   1   5
HETATM    5  C           1     -34.821  -4.409 -11.331  0.00  0.00     0.274 C 
BRANCH   5   6
HETATM    6  C           1     -34.537  -5.386 -10.197  0.00  0.00     0.044 C 
BRANCH   6   7
HETATM    7  C           1     -33.931  -6.662 -10.766  0.00  0.00     0.033 C 
BRANCH   7   8
HETATM    8  C           1     -34.572  -7.872 -10.098  0.00  0.00     0.620 C 
BRANCH   8   9
HETATM    9  N           1     -33.603  -9.017 -10.098  0.00  0.00    -0.077 N 
HETATM   10  H           1     -33.629  -9.496  -9.170  0.00  0.00     0.274 HD
HETATM   11  H           1     -32.639  -8.657 -10.278  0.00  0.00     0.274 HD
HETATM   12  H           1     -33.867  -9.696 -10.848  0.00  0.00     0.274 HD
ENDBRANCH   8   9
ENDBRANCH   7   8
ENDBRANCH   6   7
ENDBRANCH   5   6
BRANCH   5  13
HETATM   13  N           1     -34.622  -5.100 -12.647  0.00  0.00    -0.067 N 
HETATM   14  H           1     -33.668  -4.884 -13.015  0.00  0.00     0.275 HD
HETATM   15  H           1     -34.717  -6.134 -12.516  0.00  0.00     0.275 HD
HETATM   16  H           1     -35.342  -4.768 -13.327  0.00  0.00     0.275 HD
ENDBRANCH   5  13
ENDBRANCH   1   5
BRANCH   3  17
HETATM   17  C           1     -34.905  -1.038 -11.506  0.00  0.00     0.191 C 
BRANCH  17  18
HETATM   18  C           1     -36.238  -0.637 -10.924  0.00  0.00     0.197 C 
HETATM   19  O           1     -37.183  -1.454 -10.904  0.00  0.00    -0.646 OA
HETATM   20  O           1     -36.397   0.514 -10.460  0.00  0.00    -0.646 OA
ENDBRANCH  17  18
BRANCH  17  21
HETATM   21  C           1     -35.110  -1.586 -12.913  0.00  0.00     0.094 C 
BRANCH  21  22
HETATM   22  C           1     -35.485  -0.467 -13.834  0.00  0.00     0.034 A 
HETATM   23  C           1     -36.755  -0.237 -14.307  0.00  0.00     0.212 A 
HETATM   24  N           1     -36.641   0.869 -15.103  0.00  0.00    -0.072 N 
HETATM   25  C           1     -35.332   1.257 -15.082  0.00  0.00     0.277 A 
HETATM   26  H           1     -37.418   1.335 -15.634  0.00  0.00     0.272 HD
HETATM   27  N           1     -34.609   0.467 -14.323  0.00  0.00    -0.349 N 
ATOM     28  HN          1     -33.608   0.534 -14.137  1.00  0.00     0.166 HD
ENDBRANCH  21  22
ENDBRANCH  17  21
ENDBRANCH   3  17
TORSDOF 10
ENDMDL
MODEL 2
REMARK VINA RESULT:      -6.8      1.755      2.466
REMARK  10 active torsions:
REMARK  status: ('A' for Active; 'I' for Inactive)
REMARK    1  A    between atoms: C_1  and  C_3 
REMARK    2  A    between atoms: C_1  and  C_2 
REMARK    3  A    between atoms: C_1  and  N_6 
REMARK    4  A    between atoms: C_2  and  C_19 
REMARK       I    between atoms: C_3  and  N_18 
REMARK    5  A    between atoms: N_7  and  C_22 
REMARK    6  A    between atoms: C_8  and  C_20 
REMARK    7  A    between atoms: C_8  and  C_12 
REMARK    8  A    between atoms: C_8  and  N_18 
REMARK    9  A    between atoms: C_12  and  C_23 
REMARK   10  A    between atoms: C_19  and  C_22 
ROOT
HETATM    1  C           1     -34.753  -2.281 -12.253  0.00  0.00     0.249 C 
HETATM    2  H           1     -34.582  -1.466 -14.148  0.00  0.00     0.163 HD
HETATM    3  N           1     -34.793  -1.272 -13.177  0.00  0.00    -0.344 N 
HETATM    4  O           1     -35.744  -2.931 -12.023  0.00  0.00    -0.271 OA
ENDROOT
BRANCH   1   5
HETATM    5  C           1     -33.467  -2.581 -11.521  0.00  0.00     0.274 C 
BRANCH   5   6
HETATM    6  C           1     -33.159  -4.070 -11.627  0.00  0.00     0.044 C 
BRANCH   6   7
HETATM    7  C           1     -33.836  -4.811 -10.482  0.00  0.00     0.033 C 
BRANCH   7   8
HETATM    8  C           1     -34.459  -6.098 -11.008  0.00  0.00     0.620 C 
BRANCH   8   9
HETATM    9  N           1     -34.819  -5.927 -12.454  0.00  0.00    -0.077 N 
HETATM   10  H           1     -34.949  -6.865 -12.894  0.00  0.00     0.274 HD
HETATM   11  H           1     -34.052  -5.416 -12.945  0.00  0.00     0.274 HD
HETATM   12  H           1     -35.706  -5.380 -12.529  0.00  0.00     0.274 HD
ENDBRANCH   8   9
ENDBRANCH   7   8
ENDBRANCH   6   7
ENDBRANCH   5   6
BRANCH   5  13
HETATM   13  N           1     -33.614  -2.203 -10.077  0.00  0.00    -0.067 N 
HETATM   14  H           1     -34.429  -2.710  -9.665  0.00  0.00     0.275 HD
HETATM   15  H           1     -32.744  -2.464  -9.558  0.00  0.00     0.275 HD
HETATM   16  H           1     -33.769  -1.173 -10.001  0.00  0.00     0.275 HD
ENDBRANCH   5  13
ENDBRANCH   1   5
BRANCH   3  17
HETATM   17  C           1     -35.139   0.075 -12.766  0.00  0.00     0.191 C 
BRANCH  17  18
HETATM   18  C           1     -36.422   0.045 -11.973  0.00  0.00     0.197 C 
HETATM   19  O           1     -36.423   0.393 -10.772  0.00  0.00    -0.646 OA
HETATM   20  O           1     -37.485  -0.327 -12.517  0.00  0.00    -0.646 OA
ENDBRANCH  17  18
BRANCH  17  21
HETATM   21  C           1     -35.324   0.950 -13.999  0.00  0.00     0.094 C 
BRANCH  21  22
HETATM   22  C           1     -35.742   0.097 -15.157  0.00  0.00     0.034 A 
HETATM   23  C           1     -37.011   0.062 -15.684  0.00  0.00     0.212 A 
HETATM   24  N           1     -36.943  -0.838 -16.711  0.00  0.00    -0.072 N 
HETATM   25  C           1     -35.661  -1.306 -16.763  0.00  0.00     0.277 A 
HETATM   26  H           1     -37.732  -1.120 -17.343  0.00  0.00     0.272 HD
HETATM   27  N           1     -34.912  -0.758 -15.835  0.00  0.00    -0.349 N 
ATOM     28  HN          1     -33.923  -0.932 -15.656  1.00  0.00     0.166 HD
ENDBRANCH  21  22
ENDBRANCH  17  21
ENDBRANCH   3  17
TORSDOF 10
ENDMDL
MODEL 3
REMARK VINA RESULT:      -6.8      1.510      1.934
REMARK  10 active torsions:
REMARK  status: ('A' for Active; 'I' for Inactive)
REMARK    1  A    between atoms: C_1  and  C_3 
REMARK    2  A    between atoms: C_1  and  C_2 
REMARK    3  A    between atoms: C_1  and  N_6 
REMARK    4  A    between atoms: C_2  and  C_19 
REMARK       I    between atoms: C_3  and  N_18 
REMARK    5  A    between atoms: N_7  and  C_22 
REMARK    6  A    between atoms: C_8  and  C_20 
REMARK    7  A    between atoms: C_8  and  C_12 
REMARK    8  A    between atoms: C_8  and  N_18 
REMARK    9  A    between atoms: C_12  and  C_23 
REMARK   10  A    between atoms: C_19  and  C_22 
ROOT
HETATM    1  C           1     -34.586  -2.042 -10.571  0.00  0.00     0.249 C 
HETATM    2  H           1     -36.364  -1.809  -9.537  0.00  0.00     0.163 HD
HETATM    3  N           1     -35.757  -1.413 -10.244  0.00  0.00    -0.344 N 
HETATM    4  O           1     -33.569  -1.771  -9.979  0.00  0.00    -0.271 OA
ENDROOT
BRANCH   1   5
HETATM    5  C           1     -34.566  -3.075 -11.672  0.00  0.00     0.274 C 
BRANCH   5   6
HETATM    6  C           1     -35.261  -4.342 -11.191  0.00  0.00     0.044 C 
BRANCH   6   7
HETATM    7  C           1     -34.257  -5.231 -10.471  0.00  0.00     0.033 C 
BRANCH   7   8
HETATM    8  C           1     -34.574  -6.693 -10.757  0.00  0.00     0.620 C 
BRANCH   8   9
HETATM    9  N           1     -34.938  -7.387  -9.478  0.00  0.00    -0.077 N 
HETATM   10  H           1     -35.658  -6.827  -8.970  0.00  0.00     0.274 HD
HETATM   11  H           1     -34.087  -7.484  -8.881  0.00  0.00     0.274 HD
HETATM   12  H           1     -35.323  -8.335  -9.694  0.00  0.00     0.274 HD
ENDBRANCH   8   9
ENDBRANCH   7   8
ENDBRANCH   6   7
ENDBRANCH   5   6
BRANCH   5  13
HETATM   13  N           1     -33.145  -3.392 -12.034  0.00  0.00    -0.067 N 
HETATM   14  H           1     -33.005  -4.427 -12.025  0.00  0.00     0.275 HD
HETATM   15  H           1     -32.939  -3.021 -12.990  0.00  0.00     0.275 HD
HETATM   16  H           1     -32.502  -2.946 -11.342  0.00  0.00     0.275 HD
ENDBRANCH   5  13
ENDBRANCH   1   5
BRANCH   3  17
HETATM   17  C           1     -36.129  -0.180 -10.910  0.00  0.00     0.191 C 
BRANCH  17  18
HETATM   18  C           1     -36.914   0.689  -9.958  0.00  0.00     0.197 C 
HETATM   19  O           1     -36.405   1.048  -8.875  0.00  0.00    -0.646 OA
HETATM   20  O           1     -38.074   1.050 -10.254  0.00  0.00    -0.646 OA
ENDBRANCH  17  18
BRANCH  17  21
HETATM   21  C           1     -36.985  -0.500 -12.128  0.00  0.00     0.094 C 
BRANCH  21  22
HETATM   22  C           1     -36.244  -0.121 -13.372  0.00  0.00     0.034 A 
HETATM   23  C           1     -34.948   0.337 -13.401  0.00  0.00     0.212 A 
HETATM   24  N           1     -34.680   0.558 -14.724  0.00  0.00    -0.072 N 
HETATM   25  C           1     -35.802   0.233 -15.430  0.00  0.00     0.277 A 
HETATM   26  H           1     -33.777   0.914 -15.124  0.00  0.00     0.272 HD
HETATM   27  N           1     -36.765  -0.181 -14.639  0.00  0.00    -0.349 N 
ATOM     28  HN          1     -37.701  -0.483 -14.909  1.00  0.00     0.166 HD
ENDBRANCH  21  22
ENDBRANCH  17  21
ENDBRANCH   3  17
TORSDOF 10
ENDMDL
MODEL 4
REMARK VINA RESULT:      -6.5     11.834     13.188
REMARK  10 active torsions:
REMARK  status: ('A' for Active; 'I' for Inactive)
REMARK    1  A    between atoms: C_1  and  C_3 
REMARK    2  A    between atoms: C_1  and  C_2 
REMARK    3  A    between atoms: C_1  and  N_6 
REMARK    4  A    between atoms: C_2  and  C_19 
REMARK       I    between atoms: C_3  and  N_18 
REMARK    5  A    between atoms: N_7  and  C_22 
REMARK    6  A    between atoms: C_8  and  C_20 
REMARK    7  A    between atoms: C_8  and  C_12 
REMARK    8  A    between atoms: C_8  and  N_18 
REMARK    9  A    between atoms: C_12  and  C_23 
REMARK   10  A    between atoms: C_19  and  C_22 
ROOT
HETATM    1  C           1     -23.663  -4.488  -9.825  0.00  0.00     0.249 C 
HETATM    2  H           1     -22.758  -5.946 -10.983  0.00  0.00     0.163 HD
HETATM    3  N           1     -22.953  -4.956 -10.898  0.00  0.00    -0.344 N 
HETATM    4  O           1     -24.867  -4.411  -9.884  0.00  0.00    -0.271 OA
ENDROOT
BRANCH   1   5
HETATM    5  C           1     -22.941  -4.069  -8.567  0.00  0.00     0.274 C 
BRANCH   5   6
HETATM    6  C           1     -21.701  -4.934  -8.382  0.00  0.00     0.044 C 
BRANCH   6   7
HETATM    7  C           1     -20.559  -4.077  -7.854  0.00  0.00     0.033 C 
BRANCH   7   8
HETATM    8  C           1     -19.732  -4.886  -6.862  0.00  0.00     0.620 C 
BRANCH   8   9
HETATM    9  N           1     -19.915  -6.350  -7.134  0.00  0.00    -0.077 N 
HETATM   10  H           1     -20.092  -6.852  -6.236  0.00  0.00     0.274 HD
HETATM   11  H           1     -19.051  -6.731  -7.581  0.00  0.00     0.274 HD
HETATM   12  H           1     -20.729  -6.486  -7.776  0.00  0.00     0.274 HD
ENDBRANCH   8   9
ENDBRANCH   7   8
ENDBRANCH   6   7
ENDBRANCH   5   6
BRANCH   5  13
HETATM   13  N           1     -23.852  -4.242  -7.388  0.00  0.00    -0.067 N 
HETATM   14  H           1     -24.162  -5.238  -7.330  0.00  0.00     0.275 HD
HETATM   15  H           1     -23.340  -3.987  -6.512  0.00  0.00     0.275 HD
HETATM   16  H           1     -24.685  -3.622  -7.497  0.00  0.00     0.275 HD
ENDBRANCH   5  13
ENDBRANCH   1   5
BRANCH   3  17
HETATM   17  C           1     -22.479  -4.034 -11.912  0.00  0.00     0.191 C 
BRANCH  17  18
HETATM   18  C           1     -21.115  -3.517 -11.524  0.00  0.00     0.197 C 
HETATM   19  O           1     -20.954  -2.304 -11.275  0.00  0.00    -0.646 OA
HETATM   20  O           1     -20.146  -4.305 -11.452  0.00  0.00    -0.646 OA
ENDBRANCH  17  18
BRANCH  17  21
HETATM   21  C           1     -23.450  -2.866 -12.028  0.00  0.00     0.094 C 
BRANCH  21  22
HETATM   22  C           1     -23.413  -2.324 -13.423  0.00  0.00     0.034 A 
HETATM   23  C           1     -22.678  -2.863 -14.452  0.00  0.00     0.212 A 
HETATM   24  N           1     -22.937  -2.062 -15.530  0.00  0.00    -0.072 N 
HETATM   25  C           1     -23.803  -1.089 -15.120  0.00  0.00     0.277 A 
HETATM   26  H           1     -22.543  -2.174 -16.496  0.00  0.00     0.272 HD
HETATM   27  N           1     -24.108  -1.221 -13.849  0.00  0.00    -0.349 N 
ATOM     28  HN          1     -24.730  -0.630 -13.298  1.00  0.00     0.166 HD
ENDBRANCH  21  22
ENDBRANCH  17  21
ENDBRANCH   3  17
TORSDOF 10
ENDMDL
MODEL 5
REMARK VINA RESULT:      -6.5      1.783      6.899
REMARK  10 active torsions:
REMARK  status: ('A' for Active; 'I' for Inactive)
REMARK    1  A    between atoms: C_1  and  C_3 
REMARK    2  A    between atoms: C_1  and  C_2 
REMARK    3  A    between atoms: C_1  and  N_6 
REMARK    4  A    between atoms: C_2  and  C_19 
REMARK       I    between atoms: C_3  and  N_18 
REMARK    5  A    between atoms: N_7  and  C_22 
REMARK    6  A    between atoms: C_8  and  C_20 
REMARK    7  A    between atoms: C_8  and  C_12 
REMARK    8  A    between atoms: C_8  and  N_18 
REMARK    9  A    between atoms: C_12  and  C_23 
REMARK   10  A    between atoms: C_19  and  C_22 
ROOT
HETATM    1  C           1     -34.084  -2.003 -11.009  0.00  0.00     0.249 C 
HETATM    2  H           1     -32.502  -2.488 -12.252  0.00  0.00     0.163 HD
HETATM    3  N           1     -33.314  -2.845 -11.764  0.00  0.00    -0.344 N 
HETATM    4  O           1     -33.832  -1.837  -9.840  0.00  0.00    -0.271 OA
ENDROOT
BRANCH   1   5
HETATM    5  C           1     -35.250  -1.279 -11.639  0.00  0.00     0.274 C 
BRANCH   5   6
HETATM    6  C           1     -34.732  -0.273 -12.659  0.00  0.00     0.044 C 
BRANCH   6   7
HETATM    7  C           1     -35.694  -0.203 -13.837  0.00  0.00     0.033 C 
BRANCH   7   8
HETATM    8  C           1     -35.247   0.894 -14.794  0.00  0.00     0.620 C 
BRANCH   8   9
HETATM    9  N           1     -36.377   1.249 -15.714  0.00  0.00    -0.077 N 
HETATM   10  H           1     -36.737   2.200 -15.474  0.00  0.00     0.274 HD
HETATM   11  H           1     -37.145   0.549 -15.607  0.00  0.00     0.274 HD
HETATM   12  H           1     -36.036   1.245 -16.702  0.00  0.00     0.274 HD
ENDBRANCH   8   9
ENDBRANCH   7   8
ENDBRANCH   6   7
ENDBRANCH   5   6
BRANCH   5  13
HETATM   13  N           1     -36.024  -0.558 -10.575  0.00  0.00    -0.067 N 
HETATM   14  H           1     -36.043   0.464 -10.789  0.00  0.00     0.275 HD
HETATM   15  H           1     -37.003  -0.925 -10.548  0.00  0.00     0.275 HD
HETATM   16  H           1     -35.568  -0.713  -9.648  0.00  0.00     0.275 HD
ENDBRANCH   5  13
ENDBRANCH   1   5
BRANCH   3  17
HETATM   17  C           1     -33.661  -4.250 -11.866  0.00  0.00     0.191 C 
BRANCH  17  18
HETATM   18  C           1     -34.427  -4.487 -13.144  0.00  0.00     0.197 C 
HETATM   19  O           1     -34.302  -3.697 -14.104  0.00  0.00    -0.646 OA
HETATM   20  O           1     -35.186  -5.476 -13.243  0.00  0.00    -0.646 OA
ENDBRANCH  17  18
BRANCH  17  21
HETATM   21  C           1     -34.525  -4.646 -10.675  0.00  0.00     0.094 C 
BRANCH  21  22
HETATM   22  C           1     -34.357  -6.108 -10.401  0.00  0.00     0.034 A 
HETATM   23  C           1     -35.176  -6.850  -9.584  0.00  0.00     0.212 A 
HETATM   24  N           1     -34.661  -8.116  -9.622  0.00  0.00    -0.072 N 
HETATM   25  C           1     -33.571  -8.092 -10.443  0.00  0.00     0.277 A 
HETATM   26  H           1     -35.035  -8.954  -9.113  0.00  0.00     0.272 HD
HETATM   27  N           1     -33.361  -6.890 -10.929  0.00  0.00    -0.349 N 
ATOM     28  HN          1     -32.617  -6.600 -11.564  1.00  0.00     0.166 HD
ENDBRANCH  21  22
ENDBRANCH  17  21
ENDBRANCH   3  17
TORSDOF 10
ENDMDL
MODEL 6
REMARK VINA RESULT:      -6.4     11.898     13.281
REMARK  10 active torsions:
REMARK  status: ('A' for Active; 'I' for Inactive)
REMARK    1  A    between atoms: C_1  and  C_3 
REMARK    2  A    between atoms: C_1  and  C_2 
REMARK    3  A    between atoms: C_1  and  N_6 
REMARK    4  A    between atoms: C_2  and  C_19 
REMARK       I    between atoms: C_3  and  N_18 
REMARK    5  A    between atoms: N_7  and  C_22 
REMARK    6  A    between atoms: C_8  and  C_20 
REMARK    7  A    between atoms: C_8  and  C_12 
REMARK    8  A    between atoms: C_8  and  N_18 
REMARK    9  A    between atoms: C_12  and  C_23 
REMARK   10  A    between atoms: C_19  and  C_22 
ROOT
HETATM    1  C           1     -21.668  -3.950  -7.560  0.00  0.00     0.249 C 
HETATM    2  H           1     -23.676  -4.434  -7.426  0.00  0.00     0.163 HD
HETATM    3  N           1     -22.960  -4.019  -8.008  0.00  0.00    -0.344 N 
HETATM    4  O           1     -21.295  -2.985  -6.939  0.00  0.00    -0.271 OA
ENDROOT
BRANCH   1   5
HETATM    5  C           1     -20.710  -5.083  -7.844  0.00  0.00     0.274 C 
BRANCH   5   6
HETATM    6  C           1     -20.988  -6.234  -6.886  0.00  0.00     0.044 C 
BRANCH   6   7
HETATM    7  C           1     -20.346  -5.939  -5.537  0.00  0.00     0.033 C 
BRANCH   7   8
HETATM    8  C           1     -21.339  -6.245  -4.423  0.00  0.00     0.620 C 
BRANCH   8   9
HETATM    9  N           1     -22.735  -6.218  -4.973  0.00  0.00    -0.077 N 
HETATM   10  H           1     -23.420  -6.235  -4.185  0.00  0.00     0.274 HD
HETATM   11  H           1     -22.884  -7.052  -5.583  0.00  0.00     0.274 HD
HETATM   12  H           1     -22.870  -5.346  -5.534  0.00  0.00     0.274 HD
ENDBRANCH   8   9
ENDBRANCH   7   8
ENDBRANCH   6   7
ENDBRANCH   5   6
BRANCH   5  13
HETATM   13  N           1     -19.301  -4.604  -7.654  0.00  0.00    -0.067 N 
HETATM   14  H           1     -19.269  -3.919  -6.866  0.00  0.00     0.275 HD
HETATM   15  H           1     -18.684  -5.418  -7.431  0.00  0.00     0.275 HD
HETATM   16  H           1     -18.969  -4.144  -8.531  0.00  0.00     0.275 HD
ENDBRANCH   5  13
ENDBRANCH   1   5
BRANCH   3  17
HETATM   17  C           1     -23.303  -3.498  -9.317  0.00  0.00     0.191 C 
BRANCH  17  18
HETATM   18  C           1     -24.736  -3.847  -9.638  0.00  0.00     0.197 C 
HETATM   19  O           1     -25.584  -2.940  -9.776  0.00  0.00    -0.646 OA
HETATM   20  O           1     -25.074  -5.044  -9.766  0.00  0.00    -0.646 OA
ENDBRANCH  17  18
BRANCH  17  21
HETATM   21  C           1     -22.384  -4.114 -10.365  0.00  0.00     0.094 C 
BRANCH  21  22
HETATM   22  C           1     -22.833  -3.696 -11.730  0.00  0.00     0.034 A 
HETATM   23  C           1     -22.579  -2.469 -12.295  0.00  0.00     0.212 A 
HETATM   24  N           1     -23.164  -2.519 -13.529  0.00  0.00    -0.072 N 
HETATM   25  C           1     -23.741  -3.750 -13.661  0.00  0.00     0.277 A 
HETATM   26  H           1     -23.171  -1.752 -14.246  0.00  0.00     0.272 HD
HETATM   27  N           1     -23.557  -4.484 -12.588  0.00  0.00    -0.349 N 
ATOM     28  HN          1     -23.883  -5.437 -12.426  1.00  0.00     0.166 HD
ENDBRANCH  21  22
ENDBRANCH  17  21
ENDBRANCH   3  17
TORSDOF 10
ENDMDL
MODEL 7
REMARK VINA RESULT:      -6.3      2.402      6.509
REMARK  10 active torsions:
REMARK  status: ('A' for Active; 'I' for Inactive)
REMARK    1  A    between atoms: C_1  and  C_3 
REMARK    2  A    between atoms: C_1  and  C_2 
REMARK    3  A    between atoms: C_1  and  N_6 
REMARK    4  A    between atoms: C_2  and  C_19 
REMARK       I    between atoms: C_3  and  N_18 
REMARK    5  A    between atoms: N_7  and  C_22 
REMARK    6  A    between atoms: C_8  and  C_20 
REMARK    7  A    between atoms: C_8  and  C_12 
REMARK    8  A    between atoms: C_8  and  N_18 
REMARK    9  A    between atoms: C_12  and  C_23 
REMARK   10  A    between atoms: C_19  and  C_22 
ROOT
HETATM    1  C           1     -33.818  -2.070 -10.980  0.00  0.00     0.249 C 
HETATM    2  H           1     -32.294  -2.645 -12.258  0.00  0.00     0.163 HD
HETATM    3  N           1     -33.114  -2.955 -11.751  0.00  0.00    -0.344 N 
HETATM    4  O           1     -33.530  -1.919  -9.817  0.00  0.00    -0.271 OA
ENDROOT
BRANCH   1   5
HETATM    5  C           1     -34.955  -1.281 -11.585  0.00  0.00     0.274 C 
BRANCH   5   6
HETATM    6  C           1     -36.282  -1.873 -11.129  0.00  0.00     0.044 C 
BRANCH   6   7
HETATM    7  C           1     -37.185  -0.761 -10.615  0.00  0.00     0.033 C 
BRANCH   7   8
HETATM    8  C           1     -36.713  -0.318  -9.236  0.00  0.00     0.620 C 
BRANCH   8   9
HETATM    9  N           1     -36.514   1.169  -9.227  0.00  0.00    -0.077 N 
HETATM   10  H           1     -36.279   1.484  -8.259  0.00  0.00     0.274 HD
HETATM   11  H           1     -37.392   1.639  -9.543  0.00  0.00     0.274 HD
HETATM   12  H           1     -35.732   1.419  -9.874  0.00  0.00     0.274 HD
ENDBRANCH   8   9
ENDBRANCH   7   8
ENDBRANCH   6   7
ENDBRANCH   5   6
BRANCH   5  13
HETATM   13  N           1     -34.867  -1.345 -13.081  0.00  0.00    -0.067 N 
HETATM   14  H           1     -34.057  -1.943 -13.358  0.00  0.00     0.275 HD
HETATM   15  H           1     -35.749  -1.756 -13.464  0.00  0.00     0.275 HD
HETATM   16  H           1     -34.736  -0.381 -13.463  0.00  0.00     0.275 HD
ENDBRANCH   5  13
ENDBRANCH   1   5
BRANCH   3  17
HETATM   17  C           1     -33.543  -4.337 -11.843  0.00  0.00     0.191 C 
BRANCH  17  18
HETATM   18  C           1     -34.349  -4.531 -13.104  0.00  0.00     0.197 C 
HETATM   19  O           1     -34.117  -3.826 -14.109  0.00  0.00    -0.646 OA
HETATM   20  O           1     -35.249  -5.399 -13.143  0.00  0.00    -0.646 OA
ENDBRANCH  17  18
BRANCH  17  21
HETATM   21  C           1     -34.402  -4.683 -10.634  0.00  0.00     0.094 C 
BRANCH  21  22
HETATM   22  C           1     -34.313  -6.153 -10.363  0.00  0.00     0.034 A 
HETATM   23  C           1     -35.165  -6.849  -9.538  0.00  0.00     0.212 A 
HETATM   24  N           1     -34.723  -8.142  -9.583  0.00  0.00    -0.072 N 
HETATM   25  C           1     -33.641  -8.178 -10.415  0.00  0.00     0.277 A 
HETATM   26  H           1     -35.138  -8.958  -9.070  0.00  0.00     0.272 HD
HETATM   27  N           1     -33.369  -6.989 -10.902  0.00  0.00    -0.349 N 
ATOM     28  HN          1     -32.617  -6.740 -11.544  1.00  0.00     0.166 HD
ENDBRANCH  21  22
ENDBRANCH  17  21
ENDBRANCH   3  17
TORSDOF 10
ENDMDL
MODEL 8
REMARK VINA RESULT:      -6.3     11.429     12.594
REMARK  10 active torsions:
REMARK  status: ('A' for Active; 'I' for Inactive)
REMARK    1  A    between atoms: C_1  and  C_3 
REMARK    2  A    between atoms: C_1  and  C_2 
REMARK    3  A    between atoms: C_1  and  N_6 
REMARK    4  A    between atoms: C_2  and  C_19 
REMARK       I    between atoms: C_3  and  N_18 
REMARK    5  A    between atoms: N_7  and  C_22 
REMARK    6  A    between atoms: C_8  and  C_20 
REMARK    7  A    between atoms: C_8  and  C_12 
REMARK    8  A    between atoms: C_8  and  N_18 
REMARK    9  A    between atoms: C_12  and  C_23 
REMARK   10  A    between atoms: C_19  and  C_22 
ROOT
HETATM    1  C           1     -21.474  -3.279 -10.872  0.00  0.00     0.249 C 
HETATM    2  H           1     -22.590  -1.792  -9.962  0.00  0.00     0.163 HD
HETATM    3  N           1     -22.610  -2.556 -10.626  0.00  0.00    -0.344 N 
HETATM    4  O           1     -20.718  -2.937 -11.749  0.00  0.00    -0.271 OA
ENDROOT
BRANCH   1   5
HETATM    5  C           1     -21.167  -4.505 -10.046  0.00  0.00     0.274 C 
BRANCH   5   6
HETATM    6  C           1     -21.084  -4.117  -8.575  0.00  0.00     0.044 C 
BRANCH   6   7
HETATM    7  C           1     -21.333  -5.346  -7.711  0.00  0.00     0.033 C 
BRANCH   7   8
HETATM    8  C           1     -22.338  -5.005  -6.618  0.00  0.00     0.620 C 
BRANCH   8   9
HETATM    9  N           1     -23.555  -4.379  -7.233  0.00  0.00    -0.077 N 
HETATM   10  H           1     -24.276  -4.220  -6.495  0.00  0.00     0.274 HD
HETATM   11  H           1     -23.941  -5.017  -7.965  0.00  0.00     0.274 HD
HETATM   12  H           1     -23.294  -3.466  -7.669  0.00  0.00     0.274 HD
ENDBRANCH   8   9
ENDBRANCH   7   8
ENDBRANCH   6   7
ENDBRANCH   5   6
BRANCH   5  13
HETATM   13  N           1     -19.855  -5.086 -10.483  0.00  0.00    -0.067 N 
HETATM   14  H           1     -19.119  -4.857  -9.779  0.00  0.00     0.275 HD
HETATM   15  H           1     -19.945  -6.125 -10.566  0.00  0.00     0.275 HD
HETATM   16  H           1     -19.589  -4.685 -11.410  0.00  0.00     0.275 HD
ENDBRANCH   5  13
ENDBRANCH   1   5
BRANCH   3  17
HETATM   17  C           1     -23.842  -2.883 -11.317  0.00  0.00     0.191 C 
BRANCH  17  18
HETATM   18  C           1     -24.705  -3.744 -10.426  0.00  0.00     0.197 C 
HETATM   19  O           1     -24.412  -4.945 -10.244  0.00  0.00    -0.646 OA
HETATM   20  O           1     -25.711  -3.254  -9.869  0.00  0.00    -0.646 OA
ENDBRANCH  17  18
BRANCH  17  21
HETATM   21  C           1     -23.519  -3.643 -12.598  0.00  0.00     0.094 C 
BRANCH  21  22
HETATM   22  C           1     -23.463  -2.683 -13.745  0.00  0.00     0.034 A 
HETATM   23  C           1     -22.646  -2.823 -14.842  0.00  0.00     0.212 A 
HETATM   24  N           1     -22.918  -1.737 -15.627  0.00  0.00    -0.072 N 
HETATM   25  C           1     -23.871  -0.996 -14.987  0.00  0.00     0.277 A 
HETATM   26  H           1     -22.476  -1.512 -16.552  0.00  0.00     0.272 HD
HETATM   27  N           1     -24.220  -1.544 -13.846  0.00  0.00    -0.349 N 
ATOM     28  HN          1     -24.906  -1.196 -13.177  1.00  0.00     0.166 HD
ENDBRANCH  21  22
ENDBRANCH  17  21
ENDBRANCH   3  17
TORSDOF 10
ENDMDL
MODEL 9
REMARK VINA RESULT:      -5.9     14.778     17.772
REMARK  10 active torsions:
REMARK  status: ('A' for Active; 'I' for Inactive)
REMARK    1  A    between atoms: C_1  and  C_3 
REMARK    2  A    between atoms: C_1  and  C_2 
REMARK    3  A    between atoms: C_1  and  N_6 
REMARK    4  A    between atoms: C_2  and  C_19 
REMARK       I    between atoms: C_3  and  N_18 
REMARK    5  A    between atoms: N_7  and  C_22 
REMARK    6  A    between atoms: C_8  and  C_20 
REMARK    7  A    between atoms: C_8  and  C_12 
REMARK    8  A    between atoms: C_8  and  N_18 
REMARK    9  A    between atoms: C_12  and  C_23 
REMARK   10  A    between atoms: C_19  and  C_22 
ROOT
HETATM    1  C           1     -21.745  -6.306  -4.283  0.00  0.00     0.249 C 
HETATM    2  H           1     -21.238  -5.673  -2.379  0.00  0.00     0.163 HD
HETATM    3  N           1     -21.439  -6.477  -2.960  0.00  0.00    -0.344 N 
HETATM    4  O           1     -22.894  -6.153  -4.623  0.00  0.00    -0.271 OA
ENDROOT
BRANCH   1   5
HETATM    5  C           1     -20.646  -6.306  -5.318  0.00  0.00     0.274 C 
BRANCH   5   6
HETATM    6  C           1     -20.583  -4.942  -5.993  0.00  0.00     0.044 C 
BRANCH   6   7
HETATM    7  C           1     -21.087  -5.060  -7.425  0.00  0.00     0.033 C 
BRANCH   7   8
HETATM    8  C           1     -22.179  -4.026  -7.667  0.00  0.00     0.620 C 
BRANCH   8   9
HETATM    9  N           1     -23.435  -4.450  -6.964  0.00  0.00    -0.077 N 
HETATM   10  H           1     -24.262  -4.218  -7.557  0.00  0.00     0.274 HD
HETATM   11  H           1     -23.509  -3.947  -6.051  0.00  0.00     0.274 HD
HETATM   12  H           1     -23.407  -5.481  -6.792  0.00  0.00     0.274 HD
ENDBRANCH   8   9
ENDBRANCH   7   8
ENDBRANCH   6   7
ENDBRANCH   5   6
BRANCH   5  13
HETATM   13  N           1     -20.929  -7.360  -6.348  0.00  0.00    -0.067 N 
HETATM   14  H           1     -21.666  -8.008  -5.990  0.00  0.00     0.275 HD
HETATM   15  H           1     -21.265  -6.905  -7.228  0.00  0.00     0.275 HD
HETATM   16  H           1     -20.056  -7.898  -6.545  0.00  0.00     0.275 HD
ENDBRANCH   5  13
ENDBRANCH   1   5
BRANCH   3  17
HETATM   17  C           1     -21.402  -7.810  -2.391  0.00  0.00     0.191 C 
BRANCH  17  18
HETATM   18  C           1     -22.145  -7.817  -1.078  0.00  0.00     0.197 C 
HETATM   19  O           1     -22.163  -8.850  -0.374  0.00  0.00    -0.646 OA
HETATM   20  O           1     -22.743  -6.788  -0.693  0.00  0.00    -0.646 OA
ENDBRANCH  17  18
BRANCH  17  21
HETATM   21  C           1     -19.954  -8.222  -2.158  0.00  0.00     0.094 C 
BRANCH  21  22
HETATM   22  C           1     -19.516  -9.147  -3.251  0.00  0.00     0.034 A 
HETATM   23  C           1     -20.353  -9.988  -3.945  0.00  0.00     0.212 A 
HETATM   24  N           1     -19.543 -10.638  -4.835  0.00  0.00    -0.072 N 
HETATM   25  C           1     -18.272 -10.174  -4.648  0.00  0.00     0.277 A 
HETATM   26  H           1     -19.842 -11.361  -5.534  0.00  0.00     0.272 HD
HETATM   27  N           1     -18.225  -9.271  -3.695  0.00  0.00    -0.349 N 
ATOM     28  HN          1     -17.403  -8.770  -3.358  1.00  0.00     0.166 HD
ENDBRANCH  21  22
ENDBRANCH  17  21
ENDBRANCH   3  17
TORSDOF 10
ENDMDL
