MODEL 1
REMARK VINA RESULT:      -7.5      0.000      0.000
REMARK  11 active torsions:
REMARK  status: ('A' for Active; 'I' for Inactive)
REMARK       I    between atoms: C_1  and  N_13 
REMARK    1  A    between atoms: C_1  and  C_2 
REMARK    2  A    between atoms: C_2  and  C_28 
REMARK    3  A    between atoms: C_2  and  N_12 
REMARK    4  A    between atoms: C_4  and  N_18 
REMARK    5  A    between atoms: C_4  and  C_21 
REMARK    6  A    between atoms: C_5  and  C_28 
REMARK    7  A    between atoms: C_5  and  C_6 
REMARK       I    between atoms: N_7  and  C_23 
REMARK    8  A    between atoms: C_11  and  C_21 
REMARK    9  A    between atoms: C_11  and  C_17 
REMARK   10  A    between atoms: N_13  and  C_17 
REMARK   11  A    between atoms: C_16  and  C_17 
REMARK       I    between atoms: N_18  and  C_23 
ROOT
HETATM    1  C           1     -22.665  -3.734  -9.640  0.00  0.00     0.185 C 
ENDROOT
BRANCH   1   2
HETATM    2  C           1     -22.091  -3.908 -11.039  0.00  0.00     0.038 C 
BRANCH   2   3
HETATM    3  C           1     -22.348  -2.647 -11.855  0.00  0.00     0.023 C 
BRANCH   3   4
HETATM    4  C           1     -23.126  -3.006 -13.113  0.00  0.00     0.138 C 
BRANCH   4   5
HETATM    5  N           1     -23.937  -1.854 -13.534  0.00  0.00    -0.227 N 
HETATM    6  C           1     -23.756  -1.334 -14.674  0.00  0.00     0.665 C 
HETATM    7  N           1     -22.876  -1.807 -15.452  0.00  0.00    -0.235 N 
HETATM    8  N           1     -24.473  -0.316 -15.046  0.00  0.00    -0.235 N 
HETATM    9  H           1     -22.297  -2.630 -15.152  0.00  0.00     0.174 HD
HETATM   10  H           1     -22.726  -1.376 -16.399  0.00  0.00     0.174 HD
HETATM   11  H           1     -25.199   0.075 -14.403  0.00  0.00     0.174 HD
HETATM   12  H           1     -24.324   0.113 -15.987  0.00  0.00     0.174 HD
HETATM   13  H           1     -24.666  -1.462 -12.888  0.00  0.00     0.177 HD
ENDBRANCH   4   5
ENDBRANCH   3   4
ENDBRANCH   2   3
ENDBRANCH   1   2
BRANCH   1  14
HETATM   14  N           1     -22.141  -4.769  -8.771  0.00  0.00    -0.345 N 
HETATM   15  C           1     -21.568  -4.434  -7.574  0.00  0.00     0.249 C 
HETATM   16  O           1     -21.500  -3.274  -7.242  0.00  0.00    -0.271 OA
HETATM   17  H           1     -22.198  -5.740  -9.049  0.00  0.00     0.163 HD
BRANCH  15  18
HETATM   18  C           1     -21.022  -5.511  -6.670  0.00  0.00     0.275 C 
BRANCH  18  19
HETATM   19  C           1     -22.077  -5.893  -5.639  0.00  0.00     0.053 C 
BRANCH  19  20
HETATM   20  C           1     -21.612  -7.120  -4.867  0.00  0.00     0.115 C 
BRANCH  20  21
HETATM   21  C           1     -21.637  -6.823  -3.387  0.00  0.00     0.172 C 
HETATM   22  O           1     -20.858  -7.425  -2.616  0.00  0.00    -0.648 OA
HETATM   23  O           1     -22.434  -5.974  -2.933  0.00  0.00    -0.648 OA
ENDBRANCH  20  21
ENDBRANCH  19  20
ENDBRANCH  18  19
BRANCH  18  24
HETATM   24  N           1     -19.799  -5.001  -5.967  0.00  0.00    -0.066 N 
HETATM   25  H           1     -19.558  -5.642  -5.178  0.00  0.00     0.275 HD
HETATM   26  H           1     -19.002  -4.963  -6.641  0.00  0.00     0.275 HD
HETATM   27  H           1     -19.987  -4.044  -5.593  0.00  0.00     0.275 HD
ENDBRANCH  18  24
ENDBRANCH  15  18
ENDBRANCH   1  14
BRANCH   1  28
HETATM   28  C           1     -24.170  -3.840  -9.696  0.00  0.00     0.196 C 
HETATM   29  O           1     -24.875  -2.829  -9.491  0.00  0.00    -0.646 OA
HETATM   30  O           1     -24.710  -4.940  -9.945  0.00  0.00    -0.646 OA
ENDBRANCH   1  28
TORSDOF 11
ENDMDL
MODEL 2
REMARK VINA RESULT:      -6.8      3.148      8.871
REMARK  11 active torsions:
REMARK  status: ('A' for Active; 'I' for Inactive)
REMARK       I    between atoms: C_1  and  N_13 
REMARK    1  A    between atoms: C_1  and  C_2 
REMARK    2  A    between atoms: C_2  and  C_28 
REMARK    3  A    between atoms: C_2  and  N_12 
REMARK    4  A    between atoms: C_4  and  N_18 
REMARK    5  A    between atoms: C_4  and  C_21 
REMARK    6  A    between atoms: C_5  and  C_28 
REMARK    7  A    between atoms: C_5  and  C_6 
REMARK       I    between atoms: N_7  and  C_23 
REMARK    8  A    between atoms: C_11  and  C_21 
REMARK    9  A    between atoms: C_11  and  C_17 
REMARK   10  A    between atoms: N_13  and  C_17 
REMARK   11  A    between atoms: C_16  and  C_17 
REMARK       I    between atoms: N_18  and  C_23 
ROOT
HETATM    1  C           1     -21.180  -4.900  -7.147  0.00  0.00     0.185 C 
ENDROOT
BRANCH   1   2
HETATM    2  C           1     -21.178  -6.318  -6.594  0.00  0.00     0.038 C 
BRANCH   2   3
HETATM    3  C           1     -22.060  -6.382  -5.353  0.00  0.00     0.023 C 
BRANCH   3   4
HETATM    4  C           1     -21.230  -6.041  -4.123  0.00  0.00     0.138 C 
BRANCH   4   5
HETATM    5  N           1     -22.082  -6.096  -2.926  0.00  0.00    -0.227 N 
HETATM    6  C           1     -21.766  -6.849  -1.958  0.00  0.00     0.665 C 
HETATM    7  N           1     -20.717  -7.554  -2.021  0.00  0.00    -0.235 N 
HETATM    8  N           1     -22.520  -6.897  -0.900  0.00  0.00    -0.235 N 
HETATM    9  H           1     -20.108  -7.515  -2.875  0.00  0.00     0.174 HD
HETATM   10  H           1     -20.455  -8.178  -1.218  0.00  0.00     0.174 HD
HETATM   11  H           1     -23.386  -6.315  -0.848  0.00  0.00     0.174 HD
HETATM   12  H           1     -22.260  -7.518  -0.100  0.00  0.00     0.174 HD
HETATM   13  H           1     -22.952  -5.511  -2.874  0.00  0.00     0.177 HD
ENDBRANCH   4   5
ENDBRANCH   3   4
ENDBRANCH   2   3
ENDBRANCH   1   2
BRANCH   1  14
HETATM   14  N           1     -21.842  -4.885  -8.437  0.00  0.00    -0.345 N 
HETATM   15  C           1     -23.143  -4.473  -8.535  0.00  0.00     0.249 C 
HETATM   16  O           1     -23.741  -4.121  -7.546  0.00  0.00    -0.271 OA
HETATM   17  H           1     -21.341  -5.180  -9.265  0.00  0.00     0.163 HD
BRANCH  15  18
HETATM   18  C           1     -23.831  -4.459  -9.878  0.00  0.00     0.275 C 
BRANCH  18  19
HETATM   19  C           1     -23.148  -3.446 -10.788  0.00  0.00     0.053 C 
BRANCH  19  20
HETATM   20  C           1     -23.236  -3.921 -12.232  0.00  0.00     0.115 C 
BRANCH  20  21
HETATM   21  C           1     -24.194  -3.038 -12.995  0.00  0.00     0.172 C 
HETATM   22  O           1     -25.363  -2.879 -12.581  0.00  0.00    -0.648 OA
HETATM   23  O           1     -23.818  -2.465 -14.041  0.00  0.00    -0.648 OA
ENDBRANCH  20  21
ENDBRANCH  19  20
ENDBRANCH  18  19
BRANCH  18  24
HETATM   24  N           1     -25.271  -4.076  -9.697  0.00  0.00    -0.066 N 
HETATM   25  H           1     -25.866  -4.934  -9.733  0.00  0.00     0.275 HD
HETATM   26  H           1     -25.391  -3.607  -8.772  0.00  0.00     0.275 HD
HETATM   27  H           1     -25.555  -3.423 -10.461  0.00  0.00     0.275 HD
ENDBRANCH  18  24
ENDBRANCH  15  18
ENDBRANCH   1  14
BRANCH   1  28
HETATM   28  C           1     -19.759  -4.419  -7.307  0.00  0.00     0.196 C 
HETATM   29  O           1     -18.899  -4.715  -6.449  0.00  0.00    -0.646 OA
HETATM   30  O           1     -19.441  -3.726  -8.297  0.00  0.00    -0.646 OA
ENDBRANCH   1  28
TORSDOF 11
ENDMDL
MODEL 3
REMARK VINA RESULT:      -6.7      2.456      3.734
REMARK  11 active torsions:
REMARK  status: ('A' for Active; 'I' for Inactive)
REMARK       I    between atoms: C_1  and  N_13 
REMARK    1  A    between atoms: C_1  and  C_2 
REMARK    2  A    between atoms: C_2  and  C_28 
REMARK    3  A    between atoms: C_2  and  N_12 
REMARK    4  A    between atoms: C_4  and  N_18 
REMARK    5  A    between atoms: C_4  and  C_21 
REMARK    6  A    between atoms: C_5  and  C_28 
REMARK    7  A    between atoms: C_5  and  C_6 
REMARK       I    between atoms: N_7  and  C_23 
REMARK    8  A    between atoms: C_11  and  C_21 
REMARK    9  A    between atoms: C_11  and  C_17 
REMARK   10  A    between atoms: N_13  and  C_17 
REMARK   11  A    between atoms: C_16  and  C_17 
REMARK       I    between atoms: N_18  and  C_23 
ROOT
HETATM    1  C           1     -21.320  -5.044  -7.291  0.00  0.00     0.185 C 
ENDROOT
BRANCH   1   2
HETATM    2  C           1     -22.313  -3.974  -7.721  0.00  0.00     0.038 C 
BRANCH   2   3
HETATM    3  C           1     -23.137  -4.487  -8.895  0.00  0.00     0.023 C 
BRANCH   3   4
HETATM    4  C           1     -22.410  -4.183 -10.198  0.00  0.00     0.138 C 
BRANCH   4   5
HETATM    5  N           1     -23.216  -3.255 -11.004  0.00  0.00    -0.227 N 
HETATM    6  C           1     -22.905  -3.031 -12.211  0.00  0.00     0.665 C 
HETATM    7  N           1     -21.900  -3.605 -12.723  0.00  0.00    -0.235 N 
HETATM    8  N           1     -23.618  -2.210 -12.924  0.00  0.00    -0.235 N 
HETATM    9  H           1     -21.324  -4.268 -12.147  0.00  0.00     0.174 HD
HETATM   10  H           1     -21.642  -3.419 -13.724  0.00  0.00     0.174 HD
HETATM   11  H           1     -24.448  -1.735 -12.501  0.00  0.00     0.174 HD
HETATM   12  H           1     -23.362  -2.024 -13.920  0.00  0.00     0.174 HD
HETATM   13  H           1     -24.050  -2.779 -10.579  0.00  0.00     0.177 HD
ENDBRANCH   4   5
ENDBRANCH   3   4
ENDBRANCH   2   3
ENDBRANCH   1   2
BRANCH   1  14
HETATM   14  N           1     -21.658  -5.510  -5.960  0.00  0.00    -0.345 N 
HETATM   15  C           1     -21.549  -6.838  -5.651  0.00  0.00     0.249 C 
HETATM   16  O           1     -21.170  -7.623  -6.487  0.00  0.00    -0.271 OA
HETATM   17  H           1     -21.975  -4.851  -5.259  0.00  0.00     0.163 HD
BRANCH  15  18
HETATM   18  C           1     -21.901  -7.322  -4.266  0.00  0.00     0.275 C 
BRANCH  18  19
HETATM   19  C           1     -21.218  -6.439  -3.229  0.00  0.00     0.053 C 
BRANCH  19  20
HETATM   20  C           1     -22.200  -6.114  -2.112  0.00  0.00     0.115 C 
BRANCH  20  21
HETATM   21  C           1     -22.104  -7.166  -1.034  0.00  0.00     0.172 C 
HETATM   22  O           1     -23.030  -7.298  -0.204  0.00  0.00    -0.648 OA
HETATM   23  O           1     -21.099  -7.906  -0.971  0.00  0.00    -0.648 OA
ENDBRANCH  20  21
ENDBRANCH  19  20
ENDBRANCH  18  19
BRANCH  18  24
HETATM   24  N           1     -21.436  -8.739  -4.099  0.00  0.00    -0.066 N 
HETATM   25  H           1     -20.491  -8.745  -3.653  0.00  0.00     0.275 HD
HETATM   26  H           1     -22.111  -9.256  -3.491  0.00  0.00     0.275 HD
HETATM   27  H           1     -21.383  -9.200  -5.035  0.00  0.00     0.275 HD
ENDBRANCH  18  24
ENDBRANCH  15  18
ENDBRANCH   1  14
BRANCH   1  28
HETATM   28  C           1     -19.926  -4.463  -7.280  0.00  0.00     0.196 C 
HETATM   29  O           1     -19.189  -4.630  -6.284  0.00  0.00    -0.646 OA
HETATM   30  O           1     -19.511  -3.815  -8.264  0.00  0.00    -0.646 OA
ENDBRANCH   1  28
TORSDOF 11
ENDMDL
MODEL 4
REMARK VINA RESULT:      -6.6      3.366      9.625
REMARK  11 active torsions:
REMARK  status: ('A' for Active; 'I' for Inactive)
REMARK       I    between atoms: C_1  and  N_13 
REMARK    1  A    between atoms: C_1  and  C_2 
REMARK    2  A    between atoms: C_2  and  C_28 
REMARK    3  A    between atoms: C_2  and  N_12 
REMARK    4  A    between atoms: C_4  and  N_18 
REMARK    5  A    between atoms: C_4  and  C_21 
REMARK    6  A    between atoms: C_5  and  C_28 
REMARK    7  A    between atoms: C_5  and  C_6 
REMARK       I    between atoms: N_7  and  C_23 
REMARK    8  A    between atoms: C_11  and  C_21 
REMARK    9  A    between atoms: C_11  and  C_17 
REMARK   10  A    between atoms: N_13  and  C_17 
REMARK   11  A    between atoms: C_16  and  C_17 
REMARK       I    between atoms: N_18  and  C_23 
ROOT
HETATM    1  C           1     -21.111  -6.239  -5.096  0.00  0.00     0.185 C 
ENDROOT
BRANCH   1   2
HETATM    2  C           1     -21.993  -6.650  -3.926  0.00  0.00     0.038 C 
BRANCH   2   3
HETATM    3  C           1     -21.479  -6.001  -2.648  0.00  0.00     0.023 C 
BRANCH   3   4
HETATM    4  C           1     -22.297  -6.494  -1.462  0.00  0.00     0.138 C 
BRANCH   4   5
HETATM    5  N           1     -21.886  -7.863  -1.118  0.00  0.00    -0.227 N 
HETATM    6  C           1     -22.475  -8.486  -0.186  0.00  0.00     0.665 C 
HETATM    7  N           1     -23.419  -7.929   0.449  0.00  0.00    -0.235 N 
HETATM    8  N           1     -22.112  -9.696   0.119  0.00  0.00    -0.235 N 
HETATM    9  H           1     -23.712  -6.952   0.203  0.00  0.00     0.174 HD
HETATM   10  H           1     -23.908  -8.446   1.222  0.00  0.00     0.174 HD
HETATM   11  H           1     -21.333 -10.156  -0.405  0.00  0.00     0.174 HD
HETATM   12  H           1     -22.598 -10.210   0.888  0.00  0.00     0.174 HD
HETATM   13  H           1     -21.104  -8.325  -1.644  0.00  0.00     0.177 HD
ENDBRANCH   4   5
ENDBRANCH   3   4
ENDBRANCH   2   3
ENDBRANCH   1   2
BRANCH   1  14
HETATM   14  N           1     -21.935  -6.021  -6.269  0.00  0.00    -0.345 N 
HETATM   15  C           1     -21.778  -4.883  -7.014  0.00  0.00     0.249 C 
HETATM   16  O           1     -20.952  -4.061  -6.694  0.00  0.00    -0.271 OA
HETATM   17  H           1     -22.626  -6.709  -6.536  0.00  0.00     0.163 HD
BRANCH  15  18
HETATM   18  C           1     -22.636  -4.656  -8.234  0.00  0.00     0.275 C 
BRANCH  18  19
HETATM   19  C           1     -21.921  -3.711  -9.190  0.00  0.00     0.053 C 
BRANCH  19  20
HETATM   20  C           1     -22.242  -4.100 -10.626  0.00  0.00     0.115 C 
BRANCH  20  21
HETATM   21  C           1     -23.223  -3.112 -11.209  0.00  0.00     0.172 C 
HETATM   22  O           1     -24.386  -3.043 -10.755  0.00  0.00    -0.648 OA
HETATM   23  O           1     -22.872  -2.361 -12.145  0.00  0.00    -0.648 OA
ENDBRANCH  20  21
ENDBRANCH  19  20
ENDBRANCH  18  19
BRANCH  18  24
HETATM   24  N           1     -23.944  -4.051  -7.819  0.00  0.00    -0.066 N 
HETATM   25  H           1     -24.570  -4.798  -7.443  0.00  0.00     0.275 HD
HETATM   26  H           1     -23.775  -3.333  -7.078  0.00  0.00     0.275 HD
HETATM   27  H           1     -24.397  -3.600  -8.646  0.00  0.00     0.275 HD
ENDBRANCH  18  24
ENDBRANCH  15  18
ENDBRANCH   1  14
BRANCH   1  28
HETATM   28  C           1     -20.111  -7.333  -5.382  0.00  0.00     0.196 C 
HETATM   29  O           1     -19.919  -8.238  -4.542  0.00  0.00    -0.646 OA
HETATM   30  O           1     -19.476  -7.333  -6.459  0.00  0.00    -0.646 OA
ENDBRANCH   1  28
TORSDOF 11
ENDMDL
MODEL 5
REMARK VINA RESULT:      -6.4      2.921      4.593
REMARK  11 active torsions:
REMARK  status: ('A' for Active; 'I' for Inactive)
REMARK       I    between atoms: C_1  and  N_13 
REMARK    1  A    between atoms: C_1  and  C_2 
REMARK    2  A    between atoms: C_2  and  C_28 
REMARK    3  A    between atoms: C_2  and  N_12 
REMARK    4  A    between atoms: C_4  and  N_18 
REMARK    5  A    between atoms: C_4  and  C_21 
REMARK    6  A    between atoms: C_5  and  C_28 
REMARK    7  A    between atoms: C_5  and  C_6 
REMARK       I    between atoms: N_7  and  C_23 
REMARK    8  A    between atoms: C_11  and  C_21 
REMARK    9  A    between atoms: C_11  and  C_17 
REMARK   10  A    between atoms: N_13  and  C_17 
REMARK   11  A    between atoms: C_16  and  C_17 
REMARK       I    between atoms: N_18  and  C_23 
ROOT
HETATM    1  C           1     -21.186  -5.489  -6.392  0.00  0.00     0.185 C 
ENDROOT
BRANCH   1   2
HETATM    2  C           1     -21.706  -4.140  -6.868  0.00  0.00     0.038 C 
BRANCH   2   3
HETATM    3  C           1     -22.597  -4.341  -8.087  0.00  0.00     0.023 C 
BRANCH   3   4
HETATM    4  C           1     -21.871  -3.852  -9.333  0.00  0.00     0.138 C 
BRANCH   4   5
HETATM    5  N           1     -22.678  -4.158 -10.523  0.00  0.00    -0.227 N 
HETATM    6  C           1     -22.291  -3.775 -11.667  0.00  0.00     0.665 C 
HETATM    7  N           1     -21.209  -3.128 -11.785  0.00  0.00    -0.235 N 
HETATM    8  N           1     -23.005  -4.045 -12.719  0.00  0.00    -0.235 N 
HETATM    9  H           1     -20.633  -2.909 -10.935  0.00  0.00     0.174 HD
HETATM   10  H           1     -20.888  -2.810 -12.733  0.00  0.00     0.174 HD
HETATM   11  H           1     -23.898  -4.579 -12.622  0.00  0.00     0.174 HD
HETATM   12  H           1     -22.686  -3.729 -13.663  0.00  0.00     0.174 HD
HETATM   13  H           1     -23.575  -4.694 -10.425  0.00  0.00     0.177 HD
ENDBRANCH   4   5
ENDBRANCH   3   4
ENDBRANCH   2   3
ENDBRANCH   1   2
BRANCH   1  14
HETATM   14  N           1     -21.119  -5.497  -4.943  0.00  0.00    -0.345 N 
HETATM   15  C           1     -21.440  -6.631  -4.248  0.00  0.00     0.249 C 
HETATM   16  O           1     -21.779  -7.627  -4.842  0.00  0.00    -0.271 OA
HETATM   17  H           1     -20.835  -4.662  -4.446  0.00  0.00     0.163 HD
BRANCH  15  18
HETATM   18  C           1     -21.370  -6.638  -2.741  0.00  0.00     0.275 C 
BRANCH  18  19
HETATM   19  C           1     -21.549  -8.062  -2.230  0.00  0.00     0.053 C 
BRANCH  19  20
HETATM   20  C           1     -20.759  -8.242  -0.941  0.00  0.00     0.115 C 
BRANCH  20  21
HETATM   21  C           1     -21.698  -8.169   0.239  0.00  0.00     0.172 C 
HETATM   22  O           1     -22.902  -7.883   0.063  0.00  0.00    -0.648 OA
HETATM   23  O           1     -21.271  -8.394   1.392  0.00  0.00    -0.648 OA
ENDBRANCH  20  21
ENDBRANCH  19  20
ENDBRANCH  18  19
BRANCH  18  24
HETATM   24  N           1     -22.460  -5.768  -2.187  0.00  0.00    -0.066 N 
HETATM   25  H           1     -23.341  -5.929  -2.725  0.00  0.00     0.275 HD
HETATM   26  H           1     -22.617  -6.007  -1.182  0.00  0.00     0.275 HD
HETATM   27  H           1     -22.180  -4.765  -2.269  0.00  0.00     0.275 HD
ENDBRANCH  18  24
ENDBRANCH  15  18
ENDBRANCH   1  14
BRANCH   1  28
HETATM   28  C           1     -19.807  -5.726  -6.958  0.00  0.00     0.196 C 
HETATM   29  O           1     -19.363  -6.891  -7.052  0.00  0.00    -0.646 OA
HETATM   30  O           1     -19.110  -4.759  -7.333  0.00  0.00    -0.646 OA
ENDBRANCH   1  28
TORSDOF 11
ENDMDL
MODEL 6
REMARK VINA RESULT:      -6.3      3.124      8.614
REMARK  11 active torsions:
REMARK  status: ('A' for Active; 'I' for Inactive)
REMARK       I    between atoms: C_1  and  N_13 
REMARK    1  A    between atoms: C_1  and  C_2 
REMARK    2  A    between atoms: C_2  and  C_28 
REMARK    3  A    between atoms: C_2  and  N_12 
REMARK    4  A    between atoms: C_4  and  N_18 
REMARK    5  A    between atoms: C_4  and  C_21 
REMARK    6  A    between atoms: C_5  and  C_28 
REMARK    7  A    between atoms: C_5  and  C_6 
REMARK       I    between atoms: N_7  and  C_23 
REMARK    8  A    between atoms: C_11  and  C_21 
REMARK    9  A    between atoms: C_11  and  C_17 
REMARK   10  A    between atoms: N_13  and  C_17 
REMARK   11  A    between atoms: C_16  and  C_17 
REMARK       I    between atoms: N_18  and  C_23 
ROOT
HETATM    1  C           1     -21.213  -4.890  -7.380  0.00  0.00     0.185 C 
ENDROOT
BRANCH   1   2
HETATM    2  C           1     -21.214  -6.336  -6.905  0.00  0.00     0.038 C 
BRANCH   2   3
HETATM    3  C           1     -21.645  -6.392  -5.446  0.00  0.00     0.023 C 
BRANCH   3   4
HETATM    4  C           1     -20.715  -7.319  -4.676  0.00  0.00     0.138 C 
BRANCH   4   5
HETATM    5  N           1     -19.846  -8.037  -5.620  0.00  0.00    -0.227 N 
HETATM    6  C           1     -19.103  -8.977  -5.208  0.00  0.00     0.665 C 
HETATM    7  N           1     -19.108  -9.297  -3.984  0.00  0.00    -0.235 N 
HETATM    8  N           1     -18.336  -9.612  -6.043  0.00  0.00    -0.235 N 
HETATM    9  H           1     -19.728  -8.784  -3.309  0.00  0.00     0.174 HD
HETATM   10  H           1     -18.492 -10.076  -3.642  0.00  0.00     0.174 HD
HETATM   11  H           1     -18.331  -9.347  -7.054  0.00  0.00     0.174 HD
HETATM   12  H           1     -17.722 -10.387  -5.704  0.00  0.00     0.174 HD
HETATM   13  H           1     -19.842  -7.772  -6.636  0.00  0.00     0.177 HD
ENDBRANCH   4   5
ENDBRANCH   3   4
ENDBRANCH   2   3
ENDBRANCH   1   2
BRANCH   1  14
HETATM   14  N           1     -21.910  -4.797  -8.648  0.00  0.00    -0.345 N 
HETATM   15  C           1     -23.218  -4.395  -8.683  0.00  0.00     0.249 C 
HETATM   16  O           1     -23.792  -4.116  -7.657  0.00  0.00    -0.271 OA
HETATM   17  H           1     -21.429  -5.030  -9.507  0.00  0.00     0.163 HD
BRANCH  15  18
HETATM   18  C           1     -23.943  -4.299 -10.003  0.00  0.00     0.275 C 
BRANCH  18  19
HETATM   19  C           1     -23.199  -3.340 -10.924  0.00  0.00     0.053 C 
BRANCH  19  20
HETATM   20  C           1     -23.021  -3.984 -12.292  0.00  0.00     0.115 C 
BRANCH  20  21
HETATM   21  C           1     -24.029  -3.406 -13.255  0.00  0.00     0.172 C 
HETATM   22  O           1     -25.175  -3.107 -12.856  0.00  0.00    -0.648 OA
HETATM   23  O           1     -23.717  -3.225 -14.452  0.00  0.00    -0.648 OA
ENDBRANCH  20  21
ENDBRANCH  19  20
ENDBRANCH  18  19
BRANCH  18  24
HETATM   24  N           1     -25.335  -3.790  -9.772  0.00  0.00    -0.066 N 
HETATM   25  H           1     -25.291  -2.845  -9.330  0.00  0.00     0.275 HD
HETATM   26  H           1     -25.836  -3.725 -10.686  0.00  0.00     0.275 HD
HETATM   27  H           1     -25.845  -4.447  -9.140  0.00  0.00     0.275 HD
ENDBRANCH  18  24
ENDBRANCH  15  18
ENDBRANCH   1  14
BRANCH   1  28
HETATM   28  C           1     -19.791  -4.417  -7.554  0.00  0.00     0.196 C 
HETATM   29  O           1     -18.957  -4.595  -6.640  0.00  0.00    -0.646 OA
HETATM   30  O           1     -19.446  -3.847  -8.612  0.00  0.00    -0.646 OA
ENDBRANCH   1  28
TORSDOF 11
ENDMDL
MODEL 7
REMARK VINA RESULT:      -6.1      3.103      8.713
REMARK  11 active torsions:
REMARK  status: ('A' for Active; 'I' for Inactive)
REMARK       I    between atoms: C_1  and  N_13 
REMARK    1  A    between atoms: C_1  and  C_2 
REMARK    2  A    between atoms: C_2  and  C_28 
REMARK    3  A    between atoms: C_2  and  N_12 
REMARK    4  A    between atoms: C_4  and  N_18 
REMARK    5  A    between atoms: C_4  and  C_21 
REMARK    6  A    between atoms: C_5  and  C_28 
REMARK    7  A    between atoms: C_5  and  C_6 
REMARK       I    between atoms: N_7  and  C_23 
REMARK    8  A    between atoms: C_11  and  C_21 
REMARK    9  A    between atoms: C_11  and  C_17 
REMARK   10  A    between atoms: N_13  and  C_17 
REMARK   11  A    between atoms: C_16  and  C_17 
REMARK       I    between atoms: N_18  and  C_23 
ROOT
HETATM    1  C           1     -20.959  -3.643  -8.417  0.00  0.00     0.185 C 
ENDROOT
BRANCH   1   2
HETATM    2  C           1     -21.564  -3.736  -7.023  0.00  0.00     0.038 C 
BRANCH   2   3
HETATM    3  C           1     -22.274  -5.074  -6.865  0.00  0.00     0.023 C 
BRANCH   3   4
HETATM    4  C           1     -21.712  -5.810  -5.657  0.00  0.00     0.138 C 
BRANCH   4   5
HETATM    5  N           1     -20.734  -6.812  -6.104  0.00  0.00    -0.227 N 
HETATM    6  C           1     -20.280  -7.664  -5.284  0.00  0.00     0.665 C 
HETATM    7  N           1     -20.669  -7.652  -4.079  0.00  0.00    -0.235 N 
HETATM    8  N           1     -19.415  -8.550  -5.679  0.00  0.00    -0.235 N 
HETATM    9  H           1     -21.367  -6.936  -3.760  0.00  0.00     0.174 HD
HETATM   10  H           1     -20.292  -8.359  -3.399  0.00  0.00     0.174 HD
HETATM   11  H           1     -19.094  -8.560  -6.674  0.00  0.00     0.174 HD
HETATM   12  H           1     -19.040  -9.253  -5.003  0.00  0.00     0.174 HD
HETATM   13  H           1     -20.411  -6.822  -7.103  0.00  0.00     0.177 HD
ENDBRANCH   4   5
ENDBRANCH   3   4
ENDBRANCH   2   3
ENDBRANCH   1   2
BRANCH   1  14
HETATM   14  N           1     -21.942  -4.059  -9.398  0.00  0.00    -0.345 N 
HETATM   15  C           1     -21.920  -3.526 -10.658  0.00  0.00     0.249 C 
HETATM   16  O           1     -21.080  -2.708 -10.953  0.00  0.00    -0.271 OA
HETATM   17  H           1     -22.645  -4.743  -9.151  0.00  0.00     0.163 HD
BRANCH  15  18
HETATM   18  C           1     -22.943  -3.958 -11.679  0.00  0.00     0.275 C 
BRANCH  18  19
HETATM   19  C           1     -22.706  -3.212 -12.986  0.00  0.00     0.053 C 
BRANCH  19  20
HETATM   20  C           1     -23.905  -2.324 -13.289  0.00  0.00     0.115 C 
BRANCH  20  21
HETATM   21  C           1     -23.755  -1.730 -14.669  0.00  0.00     0.172 C 
HETATM   22  O           1     -24.585  -0.890 -15.080  0.00  0.00    -0.648 OA
HETATM   23  O           1     -22.802  -2.077 -15.399  0.00  0.00    -0.648 OA
ENDBRANCH  20  21
ENDBRANCH  19  20
ENDBRANCH  18  19
BRANCH  18  24
HETATM   24  N           1     -24.320  -3.646 -11.169  0.00  0.00    -0.066 N 
HETATM   25  H           1     -24.976  -4.409 -11.451  0.00  0.00     0.275 HD
HETATM   26  H           1     -24.295  -3.574 -10.128  0.00  0.00     0.275 HD
HETATM   27  H           1     -24.644  -2.740 -11.576  0.00  0.00     0.275 HD
ENDBRANCH  18  24
ENDBRANCH  15  18
ENDBRANCH   1  14
BRANCH   1  28
HETATM   28  C           1     -19.752  -4.544  -8.504  0.00  0.00     0.196 C 
HETATM   29  O           1     -18.890  -4.523  -7.598  0.00  0.00    -0.646 OA
HETATM   30  O           1     -19.612  -5.310  -9.482  0.00  0.00    -0.646 OA
ENDBRANCH   1  28
TORSDOF 11
ENDMDL
MODEL 8
REMARK VINA RESULT:      -6.0      3.398      9.084
REMARK  11 active torsions:
REMARK  status: ('A' for Active; 'I' for Inactive)
REMARK       I    between atoms: C_1  and  N_13 
REMARK    1  A    between atoms: C_1  and  C_2 
REMARK    2  A    between atoms: C_2  and  C_28 
REMARK    3  A    between atoms: C_2  and  N_12 
REMARK    4  A    between atoms: C_4  and  N_18 
REMARK    5  A    between atoms: C_4  and  C_21 
REMARK    6  A    between atoms: C_5  and  C_28 
REMARK    7  A    between atoms: C_5  and  C_6 
REMARK       I    between atoms: N_7  and  C_23 
REMARK    8  A    between atoms: C_11  and  C_21 
REMARK    9  A    between atoms: C_11  and  C_17 
REMARK   10  A    between atoms: N_13  and  C_17 
REMARK   11  A    between atoms: C_16  and  C_17 
REMARK       I    between atoms: N_18  and  C_23 
ROOT
HETATM    1  C           1     -20.832  -6.587  -5.471  0.00  0.00     0.185 C 
ENDROOT
BRANCH   1   2
HETATM    2  C           1     -21.975  -6.505  -4.469  0.00  0.00     0.038 C 
BRANCH   2   3
HETATM    3  C           1     -21.425  -6.120  -3.101  0.00  0.00     0.023 C 
BRANCH   3   4
HETATM    4  C           1     -21.716  -7.235  -2.104  0.00  0.00     0.138 C 
BRANCH   4   5
HETATM    5  N           1     -20.505  -8.042  -1.903  0.00  0.00    -0.227 N 
HETATM    6  C           1     -20.493  -9.262  -2.242  0.00  0.00     0.665 C 
HETATM    7  N           1     -21.525  -9.786  -2.754  0.00  0.00    -0.235 N 
HETATM    8  N           1     -19.421  -9.976  -2.064  0.00  0.00    -0.235 N 
HETATM    9  H           1     -22.391  -9.210  -2.898  0.00  0.00     0.174 HD
HETATM   10  H           1     -21.516 -10.798  -3.035  0.00  0.00     0.174 HD
HETATM   11  H           1     -18.569  -9.543  -1.641  0.00  0.00     0.174 HD
HETATM   12  H           1     -19.411 -10.983  -2.343  0.00  0.00     0.174 HD
HETATM   13  H           1     -19.649  -7.607  -1.478  0.00  0.00     0.177 HD
ENDBRANCH   4   5
ENDBRANCH   3   4
ENDBRANCH   2   3
ENDBRANCH   1   2
BRANCH   1  14
HETATM   14  N           1     -21.268  -6.051  -6.746  0.00  0.00    -0.345 N 
HETATM   15  C           1     -21.030  -4.740  -7.056  0.00  0.00     0.249 C 
HETATM   16  O           1     -20.455  -4.028  -6.267  0.00  0.00    -0.271 OA
HETATM   17  H           1     -21.749  -6.648  -7.406  0.00  0.00     0.163 HD
BRANCH  15  18
HETATM   18  C           1     -21.485  -4.184  -8.382  0.00  0.00     0.275 C 
BRANCH  18  19
HETATM   19  C           1     -22.858  -4.746  -8.726  0.00  0.00     0.053 C 
BRANCH  19  20
HETATM   20  C           1     -23.774  -3.615  -9.171  0.00  0.00     0.115 C 
BRANCH  20  21
HETATM   21  C           1     -23.992  -3.700 -10.663  0.00  0.00     0.172 C 
HETATM   22  O           1     -24.996  -3.164 -11.179  0.00  0.00    -0.648 OA
HETATM   23  O           1     -23.168  -4.305 -11.381  0.00  0.00    -0.648 OA
ENDBRANCH  20  21
ENDBRANCH  19  20
ENDBRANCH  18  19
BRANCH  18  24
HETATM   24  N           1     -20.504  -4.573  -9.449  0.00  0.00    -0.066 N 
HETATM   25  H           1     -20.015  -3.719  -9.801  0.00  0.00     0.275 HD
HETATM   26  H           1     -19.803  -5.237  -9.051  0.00  0.00     0.275 HD
HETATM   27  H           1     -21.013  -5.032 -10.238  0.00  0.00     0.275 HD
ENDBRANCH  18  24
ENDBRANCH  15  18
ENDBRANCH   1  14
BRANCH   1  28
HETATM   28  C           1     -20.419  -8.028  -5.647  0.00  0.00     0.196 C 
HETATM   29  O           1     -19.206  -8.331  -5.672  0.00  0.00    -0.646 OA
HETATM   30  O           1     -21.288  -8.917  -5.770  0.00  0.00    -0.646 OA
ENDBRANCH   1  28
TORSDOF 11
ENDMDL
MODEL 9
REMARK VINA RESULT:      -5.9      3.903      6.498
REMARK  11 active torsions:
REMARK  status: ('A' for Active; 'I' for Inactive)
REMARK       I    between atoms: C_1  and  N_13 
REMARK    1  A    between atoms: C_1  and  C_2 
REMARK    2  A    between atoms: C_2  and  C_28 
REMARK    3  A    between atoms: C_2  and  N_12 
REMARK    4  A    between atoms: C_4  and  N_18 
REMARK    5  A    between atoms: C_4  and  C_21 
REMARK    6  A    between atoms: C_5  and  C_28 
REMARK    7  A    between atoms: C_5  and  C_6 
REMARK       I    between atoms: N_7  and  C_23 
REMARK    8  A    between atoms: C_11  and  C_21 
REMARK    9  A    between atoms: C_11  and  C_17 
REMARK   10  A    between atoms: N_13  and  C_17 
REMARK   11  A    between atoms: C_16  and  C_17 
REMARK       I    between atoms: N_18  and  C_23 
ROOT
HETATM    1  C           1     -20.648  -6.822  -5.337  0.00  0.00     0.185 C 
ENDROOT
BRANCH   1   2
HETATM    2  C           1     -20.469  -6.128  -6.679  0.00  0.00     0.038 C 
BRANCH   2   3
HETATM    3  C           1     -19.991  -4.699  -6.454  0.00  0.00     0.023 C 
BRANCH   3   4
HETATM    4  C           1     -20.608  -3.786  -7.504  0.00  0.00     0.138 C 
BRANCH   4   5
HETATM    5  N           1     -22.073  -3.827  -7.390  0.00  0.00    -0.227 N 
HETATM    6  C           1     -22.787  -3.925  -8.432  0.00  0.00     0.665 C 
HETATM    7  N           1     -22.238  -3.987  -9.571  0.00  0.00    -0.235 N 
HETATM    8  N           1     -24.082  -3.962  -8.331  0.00  0.00    -0.235 N 
HETATM    9  H           1     -21.192  -3.958  -9.652  0.00  0.00     0.174 HD
HETATM   10  H           1     -22.830  -4.069 -10.435  0.00  0.00     0.174 HD
HETATM   11  H           1     -24.535  -3.910  -7.390  0.00  0.00     0.174 HD
HETATM   12  H           1     -24.672  -4.043  -9.190  0.00  0.00     0.174 HD
HETATM   13  H           1     -22.528  -3.775  -6.445  0.00  0.00     0.177 HD
ENDBRANCH   4   5
ENDBRANCH   3   4
ENDBRANCH   2   3
ENDBRANCH   1   2
BRANCH   1  14
HETATM   14  N           1     -20.820  -8.247  -5.548  0.00  0.00    -0.345 N 
HETATM   15  C           1     -20.081  -9.141  -4.822  0.00  0.00     0.249 C 
HETATM   16  O           1     -19.285  -8.743  -4.005  0.00  0.00    -0.271 OA
HETATM   17  H           1     -21.487  -8.579  -6.233  0.00  0.00     0.163 HD
BRANCH  15  18
HETATM   18  C           1     -20.260 -10.622  -5.043  0.00  0.00     0.275 C 
BRANCH  18  19
HETATM   19  C           1     -18.895 -11.296  -5.104  0.00  0.00     0.053 C 
BRANCH  19  20
HETATM   20  C           1     -18.215 -10.948  -6.421  0.00  0.00     0.115 C 
BRANCH  20  21
HETATM   21  C           1     -17.973 -12.210  -7.213  0.00  0.00     0.172 C 
HETATM   22  O           1     -16.822 -12.693  -7.283  0.00  0.00    -0.648 OA
HETATM   23  O           1     -18.924 -12.774  -7.797  0.00  0.00    -0.648 OA
ENDBRANCH  20  21
ENDBRANCH  19  20
ENDBRANCH  18  19
BRANCH  18  24
HETATM   24  N           1     -20.987 -10.850  -6.335  0.00  0.00    -0.066 N 
HETATM   25  H           1     -21.312  -9.934  -6.718  0.00  0.00     0.275 HD
HETATM   26  H           1     -20.343 -11.306  -7.020  0.00  0.00     0.275 HD
HETATM   27  H           1     -21.812 -11.469  -6.165  0.00  0.00     0.275 HD
ENDBRANCH  18  24
ENDBRANCH  15  18
ENDBRANCH   1  14
BRANCH   1  28
HETATM   28  C           1     -21.868  -6.268  -4.641  0.00  0.00     0.196 C 
HETATM   29  O           1     -22.913  -6.053  -5.292  0.00  0.00    -0.646 OA
HETATM   30  O           1     -21.832  -6.023  -3.416  0.00  0.00    -0.646 OA
ENDBRANCH   1  28
TORSDOF 11
ENDMDL
