REMARK  0 active torsions:
REMARK  status: ('A' for Active; 'I' for Inactive)
ROOT
HETATM    1  C   UNL     1       0.954   0.069  -0.047  1.00  0.00     0.024 C 
HETATM    2  C   UNL     1       2.463   0.103   0.014  1.00  0.00     0.024 C 
HETATM    3  C   UNL     1       3.121   1.304  -0.707  1.00  0.00     0.018 C 
HETATM    4  C   UNL     1       4.560   1.300  -0.141  1.00  0.00     0.007 C 
HETATM    5  C   UNL     1       4.564   0.075   0.808  1.00  0.00     0.001 C 
HETATM    6  C   UNL     1       4.577  -1.192  -0.086  1.00  0.00     0.084 C 
HETATM    7  C   UNL     1       3.159  -1.108  -0.615  1.00  0.00     0.136 C 
HETATM    8  O   UNL     1       2.672  -1.872  -1.434  1.00  0.00    -0.297 OA
HETATM    9  C   UNL     1       3.134   0.100   1.416  1.00  0.00    -0.029 C 
HETATM   10  C   UNL     1       2.790  -1.122   2.292  1.00  0.00     0.016 C 
HETATM   11  C   UNL     1       2.836   1.348   2.271  1.00  0.00     0.016 C 
ENDROOT
TORSDOF 0
