MODEL 1
REMARK VINA RESULT:      -5.7      0.000      0.000
REMARK  0 active torsions:
REMARK  status: ('A' for Active; 'I' for Inactive)
ROOT
HETATM    1  C   UNL     1     -20.134  -8.176  -1.508  1.00  0.00     0.024 C 
HETATM    2  C   UNL     1     -21.419  -8.728  -0.938  1.00  0.00     0.024 C 
HETATM    3  C   UNL     1     -22.193  -9.686  -1.876  1.00  0.00     0.018 C 
HETATM    4  C   UNL     1     -23.183 -10.384  -0.915  1.00  0.00     0.007 C 
HETATM    5  C   UNL     1     -22.883  -9.716   0.451  1.00  0.00     0.001 C 
HETATM    6  C   UNL     1     -23.466  -8.280   0.391  1.00  0.00     0.084 C 
HETATM    7  C   UNL     1     -22.467  -7.672  -0.574  1.00  0.00     0.136 C 
HETATM    8  O   UNL     1     -22.518  -6.531  -1.006  1.00  0.00    -0.297 OA
HETATM    9  C   UNL     1     -21.344  -9.506   0.405  1.00  0.00    -0.029 C 
HETATM   10  C   UNL     1     -20.773  -8.696   1.587  1.00  0.00     0.016 C 
HETATM   11  C   UNL     1     -20.532 -10.816   0.342  1.00  0.00     0.016 C 
ENDROOT
TORSDOF 0
ENDMDL
MODEL 2
REMARK VINA RESULT:      -5.3      1.931      3.229
REMARK  0 active torsions:
REMARK  status: ('A' for Active; 'I' for Inactive)
ROOT
HETATM    1  C   UNL     1     -19.865 -11.064  -0.280  1.00  0.00     0.024 C 
HETATM    2  C   UNL     1     -21.041 -10.147  -0.039  1.00  0.00     0.024 C 
HETATM    3  C   UNL     1     -20.912  -9.227   1.199  1.00  0.00     0.018 C 
HETATM    4  C   UNL     1     -22.010  -8.165   0.956  1.00  0.00     0.007 C 
HETATM    5  C   UNL     1     -22.659  -8.626  -0.374  1.00  0.00     0.001 C 
HETATM    6  C   UNL     1     -23.508  -9.883  -0.053  1.00  0.00     0.084 C 
HETATM    7  C   UNL     1     -22.376 -10.861   0.192  1.00  0.00     0.136 C 
HETATM    8  O   UNL     1     -22.519 -12.022   0.545  1.00  0.00    -0.297 OA
HETATM    9  C   UNL     1     -21.451  -9.175  -1.181  1.00  0.00    -0.029 C 
HETATM   10  C   UNL     1     -21.828  -9.864  -2.509  1.00  0.00     0.016 C 
HETATM   11  C   UNL     1     -20.390  -8.111  -1.527  1.00  0.00     0.016 C 
ENDROOT
TORSDOF 0
ENDMDL
MODEL 3
REMARK VINA RESULT:      -5.2      1.478      2.710
REMARK  0 active torsions:
REMARK  status: ('A' for Active; 'I' for Inactive)
ROOT
HETATM    1  C   UNL     1     -22.232  -7.623  -0.775  1.00  0.00     0.024 C 
HETATM    2  C   UNL     1     -22.106  -9.080  -0.395  1.00  0.00     0.024 C 
HETATM    3  C   UNL     1     -23.438  -9.782  -0.037  1.00  0.00     0.018 C 
HETATM    4  C   UNL     1     -23.066 -11.281  -0.104  1.00  0.00     0.007 C 
HETATM    5  C   UNL     1     -21.557 -11.257  -0.455  1.00  0.00     0.001 C 
HETATM    6  C   UNL     1     -20.801 -10.805   0.821  1.00  0.00     0.084 C 
HETATM    7  C   UNL     1     -21.227  -9.350   0.831  1.00  0.00     0.136 C 
HETATM    8  O   UNL     1     -20.934  -8.542   1.698  1.00  0.00    -0.297 OA
HETATM    9  C   UNL     1     -21.443 -10.043  -1.418  1.00  0.00    -0.029 C 
HETATM   10  C   UNL     1     -19.998  -9.672  -1.810  1.00  0.00     0.016 C 
HETATM   11  C   UNL     1     -22.223 -10.211  -2.737  1.00  0.00     0.016 C 
ENDROOT
TORSDOF 0
ENDMDL
MODEL 4
REMARK VINA RESULT:      -5.2      1.583      2.841
REMARK  0 active torsions:
REMARK  status: ('A' for Active; 'I' for Inactive)
ROOT
HETATM    1  C   UNL     1     -20.676 -11.392   0.271  1.00  0.00     0.024 C 
HETATM    2  C   UNL     1     -21.099 -10.032  -0.231  1.00  0.00     0.024 C 
HETATM    3  C   UNL     1     -20.139  -9.384  -1.257  1.00  0.00     0.018 C 
HETATM    4  C   UNL     1     -21.001  -8.258  -1.873  1.00  0.00     0.007 C 
HETATM    5  C   UNL     1     -22.340  -8.373  -1.101  1.00  0.00     0.001 C 
HETATM    6  C   UNL     1     -22.088  -7.826   0.328  1.00  0.00     0.084 C 
HETATM    7  C   UNL     1     -21.229  -8.959   0.855  1.00  0.00     0.136 C 
HETATM    8  O   UNL     1     -20.707  -8.985   1.958  1.00  0.00    -0.297 OA
HETATM    9  C   UNL     1     -22.496  -9.907  -0.901  1.00  0.00    -0.029 C 
HETATM   10  C   UNL     1     -23.681 -10.317  -0.002  1.00  0.00     0.016 C 
HETATM   11  C   UNL     1     -22.649 -10.699  -2.214  1.00  0.00     0.016 C 
ENDROOT
TORSDOF 0
ENDMDL
MODEL 5
REMARK VINA RESULT:      -5.1      1.364      2.343
REMARK  0 active torsions:
REMARK  status: ('A' for Active; 'I' for Inactive)
ROOT
HETATM    1  C   UNL     1     -20.335  -8.233  -1.658  1.00  0.00     0.024 C 
HETATM    2  C   UNL     1     -21.088  -9.379  -1.022  1.00  0.00     0.024 C 
HETATM    3  C   UNL     1     -20.218 -10.598  -0.633  1.00  0.00     0.018 C 
HETATM    4  C   UNL     1     -21.139 -11.386   0.327  1.00  0.00     0.007 C 
HETATM    5  C   UNL     1     -22.439 -10.543   0.343  1.00  0.00     0.001 C 
HETATM    6  C   UNL     1     -23.143 -10.769  -1.020  1.00  0.00     0.084 C 
HETATM    7  C   UNL     1     -22.182  -9.994  -1.900  1.00  0.00     0.136 C 
HETATM    8  O   UNL     1     -22.261  -9.909  -3.116  1.00  0.00    -0.297 OA
HETATM    9  C   UNL     1     -21.910  -9.084   0.264  1.00  0.00    -0.029 C 
HETATM   10  C   UNL     1     -23.007  -8.014   0.095  1.00  0.00     0.016 C 
HETATM   11  C   UNL     1     -21.064  -8.655   1.479  1.00  0.00     0.016 C 
ENDROOT
TORSDOF 0
ENDMDL
MODEL 6
REMARK VINA RESULT:      -5.1     18.664     19.863
REMARK  0 active torsions:
REMARK  status: ('A' for Active; 'I' for Inactive)
ROOT
HETATM    1  C   UNL     1     -15.941  10.895   3.991  1.00  0.00     0.024 C 
HETATM    2  C   UNL     1     -15.285   9.992   2.974  1.00  0.00     0.024 C 
HETATM    3  C   UNL     1     -14.402  10.714   1.928  1.00  0.00     0.018 C 
HETATM    4  C   UNL     1     -13.572   9.560   1.321  1.00  0.00     0.007 C 
HETATM    5  C   UNL     1     -14.105   8.310   2.066  1.00  0.00     0.001 C 
HETATM    6  C   UNL     1     -15.516   8.011   1.498  1.00  0.00     0.084 C 
HETATM    7  C   UNL     1     -16.258   9.181   2.112  1.00  0.00     0.136 C 
HETATM    8  O   UNL     1     -17.435   9.442   1.918  1.00  0.00    -0.297 OA
HETATM    9  C   UNL     1     -14.374   8.847   3.499  1.00  0.00    -0.029 C 
HETATM   10  C   UNL     1     -15.077   7.843   4.436  1.00  0.00     0.016 C 
HETATM   11  C   UNL     1     -13.109   9.324   4.240  1.00  0.00     0.016 C 
ENDROOT
TORSDOF 0
ENDMDL
MODEL 7
REMARK VINA RESULT:      -5.0     16.636     17.737
REMARK  0 active torsions:
REMARK  status: ('A' for Active; 'I' for Inactive)
ROOT
HETATM    1  C   UNL     1     -34.684  -2.866 -13.558  1.00  0.00     0.024 C 
HETATM    2  C   UNL     1     -34.201  -3.893 -12.560  1.00  0.00     0.024 C 
HETATM    3  C   UNL     1     -32.691  -4.220 -12.636  1.00  0.00     0.018 C 
HETATM    4  C   UNL     1     -32.425  -4.938 -11.292  1.00  0.00     0.007 C 
HETATM    5  C   UNL     1     -33.824  -4.969 -10.625  1.00  0.00     0.001 C 
HETATM    6  C   UNL     1     -34.666  -6.027 -11.384  1.00  0.00     0.084 C 
HETATM    7  C   UNL     1     -34.865  -5.268 -12.681  1.00  0.00     0.136 C 
HETATM    8  O   UNL     1     -35.437  -5.706 -13.667  1.00  0.00    -0.297 OA
HETATM    9  C   UNL     1     -34.444  -3.609 -11.051  1.00  0.00    -0.029 C 
HETATM   10  C   UNL     1     -35.925  -3.431 -10.659  1.00  0.00     0.016 C 
HETATM   11  C   UNL     1     -33.696  -2.378 -10.503  1.00  0.00     0.016 C 
ENDROOT
TORSDOF 0
ENDMDL
MODEL 8
REMARK VINA RESULT:      -5.0     15.706     17.208
REMARK  0 active torsions:
REMARK  status: ('A' for Active; 'I' for Inactive)
ROOT
HETATM    1  C   UNL     1     -24.112   9.062  -4.090  1.00  0.00     0.024 C 
HETATM    2  C   UNL     1     -24.143   8.360  -2.752  1.00  0.00     0.024 C 
HETATM    3  C   UNL     1     -24.166   9.298  -1.521  1.00  0.00     0.018 C 
HETATM    4  C   UNL     1     -24.603   8.355  -0.377  1.00  0.00     0.007 C 
HETATM    5  C   UNL     1     -24.742   6.982  -1.083  1.00  0.00     0.001 C 
HETATM    6  C   UNL     1     -23.306   6.474  -1.375  1.00  0.00     0.084 C 
HETATM    7  C   UNL     1     -22.943   7.449  -2.477  1.00  0.00     0.136 C 
HETATM    8  O   UNL     1     -21.854   7.508  -3.027  1.00  0.00    -0.297 OA
HETATM    9  C   UNL     1     -25.304   7.364  -2.481  1.00  0.00    -0.029 C 
HETATM   10  C   UNL     1     -25.392   6.190  -3.477  1.00  0.00     0.016 C 
HETATM   11  C   UNL     1     -26.704   8.009  -2.440  1.00  0.00     0.016 C 
ENDROOT
TORSDOF 0
ENDMDL
MODEL 9
REMARK VINA RESULT:      -4.8     15.703     17.169
REMARK  0 active torsions:
REMARK  status: ('A' for Active; 'I' for Inactive)
ROOT
HETATM    1  C   UNL     1     -25.438   8.267  -3.968  1.00  0.00     0.024 C 
HETATM    2  C   UNL     1     -24.824   7.752  -2.688  1.00  0.00     0.024 C 
HETATM    3  C   UNL     1     -24.642   6.216  -2.620  1.00  0.00     0.018 C 
HETATM    4  C   UNL     1     -23.657   6.037  -1.441  1.00  0.00     0.007 C 
HETATM    5  C   UNL     1     -23.422   7.489  -0.952  1.00  0.00     0.001 C 
HETATM    6  C   UNL     1     -24.712   7.934  -0.216  1.00  0.00     0.084 C 
HETATM    7  C   UNL     1     -25.624   8.066  -1.420  1.00  0.00     0.136 C 
HETATM    8  O   UNL     1     -26.811   8.349  -1.370  1.00  0.00    -0.297 OA
HETATM    9  C   UNL     1     -23.433   8.308  -2.273  1.00  0.00    -0.029 C 
HETATM   10  C   UNL     1     -23.384   9.837  -2.077  1.00  0.00     0.016 C 
HETATM   11  C   UNL     1     -22.287   7.955  -3.242  1.00  0.00     0.016 C 
ENDROOT
TORSDOF 0
ENDMDL
