REMARK  15 active torsions:
REMARK  status: ('A' for Active; 'I' for Inactive)
REMARK    1  A    between atoms: O_2  and  C_3 
REMARK    2  A    between atoms: C_5  and  C_6 
REMARK    3  A    between atoms: C_6  and  C_7 
REMARK    4  A    between atoms: C_7  and  O_9 
REMARK    5  A    between atoms: O_9  and  C_10 
REMARK    6  A    between atoms: C_10  and  C_11 
REMARK    7  A    between atoms: C_18  and  O_19 
REMARK    8  A    between atoms: O_19  and  C_20 
REMARK    9  A    between atoms: C_23  and  O_24 
REMARK   10  A    between atoms: O_24  and  C_25 
REMARK   11  A    between atoms: C_25  and  C_27 
REMARK   12  A    between atoms: C_27  and  C_28 
REMARK   13  A    between atoms: C_36  and  O_37 
REMARK   14  A    between atoms: C_44  and  O_45 
REMARK   15  A    between atoms: C_49  and  O_50 
ROOT
HETATM    1  C   UNL     1      -1.441   7.026  -0.583  1.00  0.00    -0.050 C 
HETATM    2  C   UNL     1      -1.784   8.093   0.408  1.00  0.00    -0.013 C 
HETATM    3  C   UNL     1      -1.750   8.080   2.322  1.00  0.00     0.052 C 
HETATM    4  C   UNL     1      -2.365   9.357   3.307  1.00  0.00     0.046 A 
HETATM    5  C   UNL     1      -1.636  10.613   3.766  1.00  0.00    -0.005 A 
HETATM    6  C   UNL     1      -0.552  10.973   2.787  1.00  0.00     0.018 C 
HETATM    7  C   UNL     1      -2.294  11.872   4.303  1.00  0.00     0.018 C 
HETATM    8  C   UNL     1      -1.813   9.432   4.771  1.00  0.00     0.110 A 
HETATM    9  C   UNL     1      -0.857   8.337   5.101  1.00  0.00     0.174 C 
HETATM   10  C   UNL     1      -1.633   6.941   4.821  1.00  0.00     0.050 C 
HETATM   11  C   UNL     1      -3.167   6.835   4.966  1.00  0.00     0.016 C 
HETATM   12  C   UNL     1      -1.208   6.584   3.423  1.00  0.00     0.086 C 
HETATM   13  C   UNL     1      -1.516   4.915   2.734  1.00  0.00     0.131 A 
HETATM   14  C   UNL     1      -2.875   4.783   2.202  1.00  0.00    -0.000 C 
HETATM   15  C   UNL     1      -2.897   5.813   1.369  1.00  0.00    -0.029 C 
HETATM   16  C   UNL     1      -4.198   6.540   1.145  1.00  0.00     0.051 C 
HETATM   17  C   UNL     1      -1.168   5.961   1.346  1.00  0.00     0.099 A 
HETATM   18  O   UNL     1      -0.239   6.801   1.412  1.00  0.00    -0.304 OA
HETATM   19  C   UNL     1      -0.659   4.651   1.343  1.00  0.00     0.134 A 
HETATM   20  C   UNL     1      -0.674   5.375  -0.220  1.00  0.00     0.141 A 
ENDROOT
BRANCH   1  21
HETATM   21  C   UNL     1      -1.667   6.739  -2.078  1.00  0.00     0.213 C 
BRANCH  21  22
HETATM   22  O   UNL     1      -2.099   7.715  -3.001  1.00  0.00    -0.317 OA
BRANCH  22  23
HETATM   23  C   UNL     1      -3.304   7.401  -3.575  1.00  0.00     0.263 C 
HETATM   24  O   UNL     1      -4.207   6.831  -2.976  1.00  0.00    -0.265 OA
BRANCH  23  25
HETATM   25  C   UNL     1      -3.383   7.688  -5.070  1.00  0.00     0.149 C 
BRANCH  25  26
HETATM   26  C   UNL     1      -2.724   8.957  -5.538  1.00  0.00    -0.046 C 
HETATM   27  C   UNL     1      -2.544  10.013  -4.647  1.00  0.00     0.047 C 
HETATM   28  C   UNL     1      -1.789  11.133  -4.983  1.00  0.00     0.101 C 
HETATM   29  C   UNL     1      -1.360  11.282  -6.300  1.00  0.00     0.099 C 
HETATM   30  C   UNL     1      -1.627  10.292  -7.248  1.00  0.00     0.040 C 
HETATM   31  C   UNL     1      -2.290   9.118  -6.865  1.00  0.00     0.010 C 
BRANCH  28  32
HETATM   32  O   UNL     1      -1.455  12.082  -4.052  1.00  0.00    -0.353 OA
HETATM   33  C   UNL     1      -1.236  11.546  -2.741  1.00  0.00     0.210 C 
ENDBRANCH  28  32
BRANCH  29  34
HETATM   34  O   UNL     1      -0.656  12.402  -6.642  1.00  0.00    -0.358 OA
HETATM   35  H   UNL     1      -0.433  12.356  -7.584  1.00  0.00     0.217 HD
ENDBRANCH  29  34
ENDBRANCH  25  26
ENDBRANCH  23  25
ENDBRANCH  22  23
ENDBRANCH  21  22
ENDBRANCH   1  21
BRANCH  19  36
HETATM   36  O   UNL     1       0.706   4.490   1.738  1.00  0.00    -0.381 OA
HETATM   37  H   UNL     1       0.942   5.344   2.180  1.00  0.00     0.211 HD
ENDBRANCH  19  36
BRANCH  12  38
HETATM   38  O   UNL     1       0.250   6.360   3.617  1.00  0.00    -0.387 OA
HETATM   39  H   UNL     1       0.362   5.700   4.325  1.00  0.00     0.210 HD
ENDBRANCH  12  38
BRANCH   8  40
HETATM   40  O   UNL     1      -2.836   9.574   5.878  1.00  0.00    -0.306 OA
BRANCH  40  41
HETATM   41  C   UNL     1      -2.396   9.581   7.193  1.00  0.00     0.255 C 
HETATM   42  C   UNL     1      -3.400   9.074   8.206  1.00  0.00     0.126 C 
HETATM   43  O   UNL     1      -1.258   9.865   7.550  1.00  0.00    -0.266 OA
ENDBRANCH  40  41
ENDBRANCH   8  40
BRANCH   9  44
HETATM   44  O   UNL     1       0.332   8.531   4.303  1.00  0.00    -0.312 OA
BRANCH  44  45
HETATM   45  C   UNL     1       1.255   9.478   4.592  1.00  0.00     0.263 C 
HETATM   46  O   UNL     1       1.241  10.173   5.581  1.00  0.00    -0.265 OA
BRANCH  45  47
HETATM   47  C   UNL     1       2.269   9.615   3.452  1.00  0.00     0.149 C 
BRANCH  47  48
HETATM   48  C   UNL     1       3.655   9.307   3.930  1.00  0.00    -0.049 A 
HETATM   49  C   UNL     1       4.159   8.012   3.802  1.00  0.00     0.007 A 
HETATM   50  C   UNL     1       5.362   7.676   4.411  1.00  0.00     0.001 A 
HETATM   51  C   UNL     1       6.075   8.634   5.136  1.00  0.00     0.000 A 
HETATM   52  C   UNL     1       5.601   9.941   5.219  1.00  0.00     0.001 A 
HETATM   53  C   UNL     1       4.395  10.281   4.613  1.00  0.00     0.007 A 
ENDBRANCH  47  48
ENDBRANCH  45  47
ENDBRANCH  44  45
ENDBRANCH   9  44
TORSDOF 15
