MODEL 1
REMARK VINA RESULT:      -9.6      0.000      0.000
REMARK  15 active torsions:
REMARK  status: ('A' for Active; 'I' for Inactive)
REMARK    1  A    between atoms: O_2  and  C_3 
REMARK    2  A    between atoms: C_5  and  C_6 
REMARK    3  A    between atoms: C_6  and  C_7 
REMARK    4  A    between atoms: C_7  and  O_9 
REMARK    5  A    between atoms: O_9  and  C_10 
REMARK    6  A    between atoms: C_10  and  C_11 
REMARK    7  A    between atoms: C_18  and  O_19 
REMARK    8  A    between atoms: O_19  and  C_20 
REMARK    9  A    between atoms: C_23  and  O_24 
REMARK   10  A    between atoms: O_24  and  C_25 
REMARK   11  A    between atoms: C_25  and  C_27 
REMARK   12  A    between atoms: C_27  and  C_28 
REMARK   13  A    between atoms: C_36  and  O_37 
REMARK   14  A    between atoms: C_44  and  O_45 
REMARK   15  A    between atoms: C_49  and  O_50 
ROOT
HETATM    1  C   UNL     1     -21.091  -8.641  -5.032  1.00  0.00    -0.050 C 
HETATM    2  C   UNL     1     -21.920  -9.704  -4.383  1.00  0.00    -0.013 C 
HETATM    3  C   UNL     1     -21.407 -11.274  -3.416  1.00  0.00     0.052 C 
HETATM    4  C   UNL     1     -22.514 -12.493  -2.897  1.00  0.00     0.046 A 
HETATM    5  C   UNL     1     -23.322 -12.527  -1.606  1.00  0.00    -0.005 A 
HETATM    6  C   UNL     1     -23.569 -11.129  -1.109  1.00  0.00     0.018 C 
HETATM    7  C   UNL     1     -24.541 -13.396  -1.348  1.00  0.00     0.018 C 
HETATM    8  C   UNL     1     -22.037 -13.406  -1.717  1.00  0.00     0.110 A 
HETATM    9  C   UNL     1     -20.655 -13.100  -1.251  1.00  0.00     0.174 C 
HETATM   10  C   UNL     1     -19.686 -13.233  -2.545  1.00  0.00     0.050 C 
HETATM   11  C   UNL     1     -20.025 -14.200  -3.701  1.00  0.00     0.016 C 
HETATM   12  C   UNL     1     -19.587 -11.820  -3.049  1.00  0.00     0.086 C 
HETATM   13  C   UNL     1     -18.329 -11.341  -4.292  1.00  0.00     0.131 A 
HETATM   14  C   UNL     1     -18.763 -11.647  -5.658  1.00  0.00    -0.000 C 
HETATM   15  C   UNL     1     -19.927 -11.015  -5.676  1.00  0.00    -0.029 C 
HETATM   16  C   UNL     1     -21.052 -11.584  -6.503  1.00  0.00     0.051 C 
HETATM   17  C   UNL     1     -19.536 -10.043  -4.292  1.00  0.00     0.099 A 
HETATM   18  O   UNL     1     -20.003  -9.621  -3.207  1.00  0.00    -0.304 OA
HETATM   19  C   UNL     1     -18.180  -9.698  -4.422  1.00  0.00     0.134 A 
HETATM   20  C   UNL     1     -19.249  -8.441  -4.917  1.00  0.00     0.141 A 
ENDROOT
BRANCH   1  21
HETATM   21  C   UNL     1     -21.281  -7.511  -6.060  1.00  0.00     0.213 C 
BRANCH  21  22
HETATM   22  O   UNL     1     -21.670  -6.200  -5.712  1.00  0.00    -0.317 OA
BRANCH  22  23
HETATM   23  C   UNL     1     -20.809  -5.249  -6.194  1.00  0.00     0.263 C 
HETATM   24  O   UNL     1     -19.602  -5.267  -5.988  1.00  0.00    -0.265 OA
BRANCH  23  25
HETATM   25  C   UNL     1     -21.491  -4.076  -6.889  1.00  0.00     0.149 C 
BRANCH  25  26
HETATM   26  C   UNL     1     -21.538  -4.132  -8.392  1.00  0.00    -0.046 C 
HETATM   27  C   UNL     1     -22.763  -4.048  -9.050  1.00  0.00     0.047 C 
HETATM   28  C   UNL     1     -22.842  -3.921 -10.434  1.00  0.00     0.101 C 
HETATM   29  C   UNL     1     -21.681  -4.066 -11.189  1.00  0.00     0.099 C 
HETATM   30  C   UNL     1     -20.450  -4.269 -10.561  1.00  0.00     0.040 C 
HETATM   31  C   UNL     1     -20.371  -4.281  -9.162  1.00  0.00     0.010 C 
BRANCH  28  32
HETATM   32  O   UNL     1     -24.029  -3.651 -11.065  1.00  0.00    -0.353 OA
HETATM   33  C   UNL     1     -25.096  -3.326 -10.165  1.00  0.00     0.210 C 
ENDBRANCH  28  32
BRANCH  29  34
HETATM   34  O   UNL     1     -21.764  -3.984 -12.550  1.00  0.00    -0.358 OA
HETATM   35  H   UNL     1     -21.291  -3.191 -12.846  1.00  0.00     0.217 HD
ENDBRANCH  29  34
ENDBRANCH  25  26
ENDBRANCH  23  25
ENDBRANCH  22  23
ENDBRANCH  21  22
ENDBRANCH   1  21
BRANCH  19  36
HETATM   36  O   UNL     1     -17.511  -9.262  -3.236  1.00  0.00    -0.381 OA
HETATM   37  H   UNL     1     -17.619  -8.278  -3.234  1.00  0.00     0.211 HD
ENDBRANCH  19  36
BRANCH  12  38
HETATM   38  O   UNL     1     -18.883 -11.162  -1.915  1.00  0.00    -0.387 OA
HETATM   39  H   UNL     1     -18.126 -11.722  -1.665  1.00  0.00     0.210 HD
ENDBRANCH  12  38
BRANCH   8  40
HETATM   40  O   UNL     1     -22.198 -14.900  -1.904  1.00  0.00    -0.306 OA
BRANCH  40  41
HETATM   41  C   UNL     1     -21.907 -15.739  -0.839  1.00  0.00     0.255 C 
HETATM   42  C   UNL     1     -20.870 -16.803  -1.128  1.00  0.00     0.126 C 
HETATM   43  O   UNL     1     -22.348 -15.607   0.298  1.00  0.00    -0.266 OA
ENDBRANCH  40  41
ENDBRANCH   8  40
BRANCH   9  44
HETATM   44  O   UNL     1     -20.671 -11.786  -0.649  1.00  0.00    -0.312 OA
BRANCH  44  45
HETATM   45  C   UNL     1     -20.894 -11.595   0.672  1.00  0.00     0.263 C 
HETATM   46  O   UNL     1     -21.545 -12.333   1.374  1.00  0.00    -0.265 OA
BRANCH  45  47
HETATM   47  C   UNL     1     -20.289 -10.267   1.140  1.00  0.00     0.149 C 
BRANCH  47  48
HETATM   48  C   UNL     1     -21.059  -9.106   0.589  1.00  0.00    -0.049 A 
HETATM   49  C   UNL     1     -22.267  -8.734   1.180  1.00  0.00     0.007 A 
HETATM   50  C   UNL     1     -23.075  -7.787   0.563  1.00  0.00     0.001 A 
HETATM   51  C   UNL     1     -22.674  -7.194  -0.636  1.00  0.00     0.000 A 
HETATM   52  C   UNL     1     -21.443  -7.524  -1.199  1.00  0.00     0.001 A 
HETATM   53  C   UNL     1     -20.633  -8.474  -0.586  1.00  0.00     0.007 A 
ENDBRANCH  47  48
ENDBRANCH  45  47
ENDBRANCH  44  45
ENDBRANCH   9  44
TORSDOF 15
ENDMDL
MODEL 2
REMARK VINA RESULT:      -9.4      2.301      4.874
REMARK  15 active torsions:
REMARK  status: ('A' for Active; 'I' for Inactive)
REMARK    1  A    between atoms: O_2  and  C_3 
REMARK    2  A    between atoms: C_5  and  C_6 
REMARK    3  A    between atoms: C_6  and  C_7 
REMARK    4  A    between atoms: C_7  and  O_9 
REMARK    5  A    between atoms: O_9  and  C_10 
REMARK    6  A    between atoms: C_10  and  C_11 
REMARK    7  A    between atoms: C_18  and  O_19 
REMARK    8  A    between atoms: O_19  and  C_20 
REMARK    9  A    between atoms: C_23  and  O_24 
REMARK   10  A    between atoms: O_24  and  C_25 
REMARK   11  A    between atoms: C_25  and  C_27 
REMARK   12  A    between atoms: C_27  and  C_28 
REMARK   13  A    between atoms: C_36  and  O_37 
REMARK   14  A    between atoms: C_44  and  O_45 
REMARK   15  A    between atoms: C_49  and  O_50 
ROOT
HETATM    1  C   UNL     1     -20.565  -8.414  -3.583  1.00  0.00    -0.050 C 
HETATM    2  C   UNL     1     -19.540  -9.024  -2.680  1.00  0.00    -0.013 C 
HETATM    3  C   UNL     1     -19.411 -10.788  -1.947  1.00  0.00     0.052 C 
HETATM    4  C   UNL     1     -18.246 -11.258  -0.764  1.00  0.00     0.046 A 
HETATM    5  C   UNL     1     -16.826 -11.756  -1.001  1.00  0.00    -0.005 A 
HETATM    6  C   UNL     1     -16.294 -11.212  -2.299  1.00  0.00     0.018 C 
HETATM    7  C   UNL     1     -15.719 -11.804   0.038  1.00  0.00     0.018 C 
HETATM    8  C   UNL     1     -17.942 -12.792  -0.659  1.00  0.00     0.110 A 
HETATM    9  C   UNL     1     -18.760 -13.622  -1.588  1.00  0.00     0.174 C 
HETATM   10  C   UNL     1     -20.314 -13.292  -1.263  1.00  0.00     0.050 C 
HETATM   11  C   UNL     1     -20.762 -12.866   0.152  1.00  0.00     0.016 C 
HETATM   12  C   UNL     1     -20.660 -12.230  -2.270  1.00  0.00     0.086 C 
HETATM   13  C   UNL     1     -22.398 -11.745  -2.579  1.00  0.00     0.131 A 
HETATM   14  C   UNL     1     -22.879 -10.769  -1.597  1.00  0.00    -0.000 C 
HETATM   15  C   UNL     1     -21.943  -9.839  -1.720  1.00  0.00    -0.029 C 
HETATM   16  C   UNL     1     -21.555  -9.033  -0.507  1.00  0.00     0.051 C 
HETATM   17  C   UNL     1     -21.400 -10.444  -3.253  1.00  0.00     0.099 A 
HETATM   18  O   UNL     1     -20.365 -10.723  -3.904  1.00  0.00    -0.304 OA
HETATM   19  C   UNL     1     -22.553 -10.837  -3.954  1.00  0.00     0.134 A 
HETATM   20  C   UNL     1     -21.964  -9.290  -4.432  1.00  0.00     0.141 A 
ENDROOT
BRANCH   1  21
HETATM   21  C   UNL     1     -21.001  -7.007  -4.031  1.00  0.00     0.213 C 
BRANCH  21  22
HETATM   22  O   UNL     1     -20.270  -6.223  -4.949  1.00  0.00    -0.317 OA
BRANCH  22  23
HETATM   23  C   UNL     1     -20.894  -6.118  -6.166  1.00  0.00     0.263 C 
HETATM   24  O   UNL     1     -21.189  -7.085  -6.857  1.00  0.00    -0.265 OA
BRANCH  23  25
HETATM   25  C   UNL     1     -21.063  -4.688  -6.665  1.00  0.00     0.149 C 
BRANCH  25  26
HETATM   26  C   UNL     1     -21.177  -4.514  -8.155  1.00  0.00    -0.046 C 
HETATM   27  C   UNL     1     -22.404  -4.174  -8.721  1.00  0.00     0.047 C 
HETATM   28  C   UNL     1     -22.521  -3.834 -10.066  1.00  0.00     0.101 C 
HETATM   29  C   UNL     1     -21.421  -4.016 -10.901  1.00  0.00     0.099 C 
HETATM   30  C   UNL     1     -20.206  -4.469 -10.383  1.00  0.00     0.040 C 
HETATM   31  C   UNL     1     -20.074  -4.697  -9.007  1.00  0.00     0.010 C 
BRANCH  28  32
HETATM   32  O   UNL     1     -23.683  -3.322 -10.581  1.00  0.00    -0.353 OA
HETATM   33  C   UNL     1     -24.774  -3.330  -9.651  1.00  0.00     0.210 C 
ENDBRANCH  28  32
BRANCH  29  34
HETATM   34  O   UNL     1     -21.547  -3.724 -12.230  1.00  0.00    -0.358 OA
HETATM   35  H   UNL     1     -22.022  -2.885 -12.323  1.00  0.00     0.217 HD
ENDBRANCH  29  34
ENDBRANCH  25  26
ENDBRANCH  23  25
ENDBRANCH  22  23
ENDBRANCH  21  22
ENDBRANCH   1  21
BRANCH  19  36
HETATM   36  O   UNL     1     -22.365 -11.735  -5.051  1.00  0.00    -0.381 OA
HETATM   37  H   UNL     1     -23.062 -12.428  -4.930  1.00  0.00     0.211 HD
ENDBRANCH  19  36
BRANCH  12  38
HETATM   38  O   UNL     1     -20.525 -12.990  -3.542  1.00  0.00    -0.387 OA
HETATM   39  H   UNL     1     -19.644 -13.405  -3.554  1.00  0.00     0.210 HD
ENDBRANCH  12  38
BRANCH   8  40
HETATM   40  O   UNL     1     -17.964 -13.397   0.729  1.00  0.00    -0.306 OA
BRANCH  40  41
HETATM   41  C   UNL     1     -17.576 -14.719   0.883  1.00  0.00     0.255 C 
HETATM   42  C   UNL     1     -18.596 -15.610   1.560  1.00  0.00     0.126 C 
HETATM   43  O   UNL     1     -16.545 -15.205   0.432  1.00  0.00    -0.266 OA
ENDBRANCH  40  41
ENDBRANCH   8  40
BRANCH   9  44
HETATM   44  O   UNL     1     -18.352 -13.309  -2.938  1.00  0.00    -0.312 OA
BRANCH  44  45
HETATM   45  C   UNL     1     -17.555 -14.127  -3.665  1.00  0.00     0.263 C 
HETATM   46  O   UNL     1     -16.768 -14.915  -3.196  1.00  0.00    -0.265 OA
BRANCH  45  47
HETATM   47  C   UNL     1     -17.718 -13.855  -5.164  1.00  0.00     0.149 C 
BRANCH  47  48
HETATM   48  C   UNL     1     -17.086 -12.550  -5.542  1.00  0.00    -0.049 A 
HETATM   49  C   UNL     1     -15.695 -12.448  -5.602  1.00  0.00     0.007 A 
HETATM   50  C   UNL     1     -15.102 -11.202  -5.764  1.00  0.00     0.001 A 
HETATM   51  C   UNL     1     -15.892 -10.056  -5.883  1.00  0.00     0.000 A 
HETATM   52  C   UNL     1     -17.281 -10.163  -5.878  1.00  0.00     0.001 A 
HETATM   53  C   UNL     1     -17.880 -11.409  -5.713  1.00  0.00     0.007 A 
ENDBRANCH  47  48
ENDBRANCH  45  47
ENDBRANCH  44  45
ENDBRANCH   9  44
TORSDOF 15
ENDMDL
MODEL 3
REMARK VINA RESULT:      -9.0      3.055      5.548
REMARK  15 active torsions:
REMARK  status: ('A' for Active; 'I' for Inactive)
REMARK    1  A    between atoms: O_2  and  C_3 
REMARK    2  A    between atoms: C_5  and  C_6 
REMARK    3  A    between atoms: C_6  and  C_7 
REMARK    4  A    between atoms: C_7  and  O_9 
REMARK    5  A    between atoms: O_9  and  C_10 
REMARK    6  A    between atoms: C_10  and  C_11 
REMARK    7  A    between atoms: C_18  and  O_19 
REMARK    8  A    between atoms: O_19  and  C_20 
REMARK    9  A    between atoms: C_23  and  O_24 
REMARK   10  A    between atoms: O_24  and  C_25 
REMARK   11  A    between atoms: C_25  and  C_27 
REMARK   12  A    between atoms: C_27  and  C_28 
REMARK   13  A    between atoms: C_36  and  O_37 
REMARK   14  A    between atoms: C_44  and  O_45 
REMARK   15  A    between atoms: C_49  and  O_50 
ROOT
HETATM    1  C   UNL     1     -20.235  -8.236  -4.179  1.00  0.00    -0.050 C 
HETATM    2  C   UNL     1     -19.323  -8.904  -3.200  1.00  0.00    -0.013 C 
HETATM    3  C   UNL     1     -18.972 -10.758  -2.881  1.00  0.00     0.052 C 
HETATM    4  C   UNL     1     -18.018 -11.349  -1.569  1.00  0.00     0.046 A 
HETATM    5  C   UNL     1     -16.507 -11.534  -1.526  1.00  0.00    -0.005 A 
HETATM    6  C   UNL     1     -15.838 -10.578  -2.474  1.00  0.00     0.018 C 
HETATM    7  C   UNL     1     -15.671 -11.693  -0.268  1.00  0.00     0.018 C 
HETATM    8  C   UNL     1     -17.416 -12.785  -1.740  1.00  0.00     0.110 A 
HETATM    9  C   UNL     1     -17.809 -13.444  -3.018  1.00  0.00     0.174 C 
HETATM   10  C   UNL     1     -19.430 -13.463  -3.053  1.00  0.00     0.050 C 
HETATM   11  C   UNL     1     -20.258 -13.518  -1.751  1.00  0.00     0.016 C 
HETATM   12  C   UNL     1     -19.772 -12.232  -3.846  1.00  0.00     0.086 C 
HETATM   13  C   UNL     1     -21.465 -11.958  -4.490  1.00  0.00     0.131 A 
HETATM   14  C   UNL     1     -22.350 -11.378  -3.476  1.00  0.00    -0.000 C 
HETATM   15  C   UNL     1     -21.638 -10.316  -3.129  1.00  0.00    -0.029 C 
HETATM   16  C   UNL     1     -21.710  -9.825  -1.706  1.00  0.00     0.051 C 
HETATM   17  C   UNL     1     -20.655 -10.383  -4.557  1.00  0.00     0.099 A 
HETATM   18  O   UNL     1     -19.467 -10.306  -4.954  1.00  0.00    -0.304 OA
HETATM   19  C   UNL     1     -21.512 -10.741  -5.611  1.00  0.00     0.134 A 
HETATM   20  C   UNL     1     -21.187  -9.051  -5.548  1.00  0.00     0.141 A 
ENDROOT
BRANCH   1  21
HETATM   21  C   UNL     1     -20.860  -6.846  -4.395  1.00  0.00     0.213 C 
BRANCH  21  22
HETATM   22  O   UNL     1     -20.412  -5.934  -5.374  1.00  0.00    -0.317 OA
BRANCH  22  23
HETATM   23  C   UNL     1     -21.437  -5.222  -5.941  1.00  0.00     0.263 C 
HETATM   24  O   UNL     1     -22.614  -5.544  -5.845  1.00  0.00    -0.265 OA
BRANCH  23  25
HETATM   25  C   UNL     1     -20.986  -4.067  -6.828  1.00  0.00     0.149 C 
BRANCH  25  26
HETATM   26  C   UNL     1     -21.249  -4.221  -8.301  1.00  0.00    -0.046 C 
HETATM   27  C   UNL     1     -22.559  -4.330  -8.763  1.00  0.00     0.047 C 
HETATM   28  C   UNL     1     -22.860  -4.299 -10.122  1.00  0.00     0.101 C 
HETATM   29  C   UNL     1     -21.815  -4.345 -11.042  1.00  0.00     0.099 C 
HETATM   30  C   UNL     1     -20.489  -4.354 -10.607  1.00  0.00     0.040 C 
HETATM   31  C   UNL     1     -20.202  -4.270  -9.237  1.00  0.00     0.010 C 
BRANCH  28  32
HETATM   32  O   UNL     1     -24.153  -4.218 -10.571  1.00  0.00    -0.353 OA
HETATM   33  C   UNL     1     -24.951  -3.269  -9.852  1.00  0.00     0.210 C 
ENDBRANCH  28  32
BRANCH  29  34
HETATM   34  O   UNL     1     -22.111  -4.358 -12.376  1.00  0.00    -0.358 OA
HETATM   35  H   UNL     1     -22.250  -3.447 -12.675  1.00  0.00     0.217 HD
ENDBRANCH  29  34
ENDBRANCH  25  26
ENDBRANCH  23  25
ENDBRANCH  22  23
ENDBRANCH  21  22
ENDBRANCH   1  21
BRANCH  19  36
HETATM   36  O   UNL     1     -20.897 -11.262  -6.793  1.00  0.00    -0.381 OA
HETATM   37  H   UNL     1     -19.998 -11.554  -6.500  1.00  0.00     0.211 HD
ENDBRANCH  19  36
BRANCH  12  38
HETATM   38  O   UNL     1     -19.200 -12.581  -5.175  1.00  0.00    -0.387 OA
HETATM   39  H   UNL     1     -19.768 -12.185  -5.861  1.00  0.00     0.210 HD
ENDBRANCH  12  38
BRANCH   8  40
HETATM   40  O   UNL     1     -17.606 -13.745  -0.585  1.00  0.00    -0.306 OA
BRANCH  40  41
HETATM   41  C   UNL     1     -17.185 -15.058  -0.735  1.00  0.00     0.255 C 
HETATM   42  C   UNL     1     -15.686 -15.241  -0.838  1.00  0.00     0.126 C 
HETATM   43  O   UNL     1     -17.919 -16.039  -0.688  1.00  0.00    -0.266 OA
ENDBRANCH  40  41
ENDBRANCH   8  40
BRANCH   9  44
HETATM   44  O   UNL     1     -17.195 -12.712  -4.102  1.00  0.00    -0.312 OA
BRANCH  44  45
HETATM   45  C   UNL     1     -16.505 -13.322  -5.093  1.00  0.00     0.263 C 
HETATM   46  O   UNL     1     -16.908 -14.268  -5.730  1.00  0.00    -0.265 OA
BRANCH  45  47
HETATM   47  C   UNL     1     -15.108 -12.712  -5.239  1.00  0.00     0.149 C 
BRANCH  47  48
HETATM   48  C   UNL     1     -14.089 -13.529  -4.503  1.00  0.00    -0.049 A 
HETATM   49  C   UNL     1     -13.796 -14.823  -4.936  1.00  0.00     0.007 A 
HETATM   50  C   UNL     1     -12.999 -15.649  -4.153  1.00  0.00     0.001 A 
HETATM   51  C   UNL     1     -12.478 -15.182  -2.943  1.00  0.00     0.000 A 
HETATM   52  C   UNL     1     -12.725 -13.873  -2.536  1.00  0.00     0.001 A 
HETATM   53  C   UNL     1     -13.525 -13.044  -3.316  1.00  0.00     0.007 A 
ENDBRANCH  47  48
ENDBRANCH  45  47
ENDBRANCH  44  45
ENDBRANCH   9  44
TORSDOF 15
ENDMDL
MODEL 4
REMARK VINA RESULT:      -8.7      2.158      3.275
REMARK  15 active torsions:
REMARK  status: ('A' for Active; 'I' for Inactive)
REMARK    1  A    between atoms: O_2  and  C_3 
REMARK    2  A    between atoms: C_5  and  C_6 
REMARK    3  A    between atoms: C_6  and  C_7 
REMARK    4  A    between atoms: C_7  and  O_9 
REMARK    5  A    between atoms: O_9  and  C_10 
REMARK    6  A    between atoms: C_10  and  C_11 
REMARK    7  A    between atoms: C_18  and  O_19 
REMARK    8  A    between atoms: O_19  and  C_20 
REMARK    9  A    between atoms: C_23  and  O_24 
REMARK   10  A    between atoms: O_24  and  C_25 
REMARK   11  A    between atoms: C_25  and  C_27 
REMARK   12  A    between atoms: C_27  and  C_28 
REMARK   13  A    between atoms: C_36  and  O_37 
REMARK   14  A    between atoms: C_44  and  O_45 
REMARK   15  A    between atoms: C_49  and  O_50 
ROOT
HETATM    1  C   UNL     1     -19.881  -8.637  -4.893  1.00  0.00    -0.050 C 
HETATM    2  C   UNL     1     -20.881  -9.251  -3.966  1.00  0.00    -0.013 C 
HETATM    3  C   UNL     1     -21.073 -11.053  -3.349  1.00  0.00     0.052 C 
HETATM    4  C   UNL     1     -22.414 -11.618  -2.420  1.00  0.00     0.046 A 
HETATM    5  C   UNL     1     -22.583 -11.574  -0.907  1.00  0.00    -0.005 A 
HETATM    6  C   UNL     1     -21.785 -10.439  -0.327  1.00  0.00     0.018 C 
HETATM    7  C   UNL     1     -23.895 -11.727  -0.158  1.00  0.00     0.018 C 
HETATM    8  C   UNL     1     -22.179 -12.922  -1.584  1.00  0.00     0.110 A 
HETATM    9  C   UNL     1     -20.819 -13.504  -1.763  1.00  0.00     0.174 C 
HETATM   10  C   UNL     1     -20.630 -13.766  -3.352  1.00  0.00     0.050 C 
HETATM   11  C   UNL     1     -21.840 -14.075  -4.262  1.00  0.00     0.016 C 
HETATM   12  C   UNL     1     -19.916 -12.530  -3.824  1.00  0.00     0.086 C 
HETATM   13  C   UNL     1     -19.142 -12.454  -5.482  1.00  0.00     0.131 A 
HETATM   14  C   UNL     1     -20.114 -12.118  -6.527  1.00  0.00    -0.000 C 
HETATM   15  C   UNL     1     -20.615 -11.000  -6.023  1.00  0.00    -0.029 C 
HETATM   16  C   UNL     1     -22.062 -10.668  -6.286  1.00  0.00     0.051 C 
HETATM   17  C   UNL     1     -19.285 -10.776  -4.932  1.00  0.00     0.099 A 
HETATM   18  O   UNL     1     -19.009 -10.480  -3.745  1.00  0.00    -0.304 OA
HETATM   19  C   UNL     1     -18.128 -11.155  -5.635  1.00  0.00     0.134 A 
HETATM   20  C   UNL     1     -18.364  -9.449  -5.591  1.00  0.00     0.141 A 
ENDROOT
BRANCH   1  21
HETATM   21  C   UNL     1     -19.725  -7.344  -5.714  1.00  0.00     0.213 C 
BRANCH  21  22
HETATM   22  O   UNL     1     -20.686  -6.894  -6.644  1.00  0.00    -0.317 OA
BRANCH  22  23
HETATM   23  C   UNL     1     -21.392  -5.810  -6.190  1.00  0.00     0.263 C 
HETATM   24  O   UNL     1     -22.328  -5.898  -5.405  1.00  0.00    -0.265 OA
BRANCH  23  25
HETATM   25  C   UNL     1     -21.016  -4.490  -6.853  1.00  0.00     0.149 C 
BRANCH  25  26
HETATM   26  C   UNL     1     -21.179  -4.428  -8.347  1.00  0.00    -0.046 C 
HETATM   27  C   UNL     1     -22.432  -4.165  -8.897  1.00  0.00     0.047 C 
HETATM   28  C   UNL     1     -22.599  -3.926 -10.258  1.00  0.00     0.101 C 
HETATM   29  C   UNL     1     -21.519  -4.137 -11.112  1.00  0.00     0.099 C 
HETATM   30  C   UNL     1     -20.276  -4.516 -10.602  1.00  0.00     0.040 C 
HETATM   31  C   UNL     1     -20.097  -4.641  -9.218  1.00  0.00     0.010 C 
BRANCH  28  32
HETATM   32  O   UNL     1     -23.791  -3.485 -10.771  1.00  0.00    -0.353 OA
HETATM   33  C   UNL     1     -24.814  -3.318  -9.781  1.00  0.00     0.210 C 
ENDBRANCH  28  32
BRANCH  29  34
HETATM   34  O   UNL     1     -21.692  -3.945 -12.454  1.00  0.00    -0.358 OA
HETATM   35  H   UNL     1     -20.833  -4.022 -12.895  1.00  0.00     0.217 HD
ENDBRANCH  29  34
ENDBRANCH  25  26
ENDBRANCH  23  25
ENDBRANCH  22  23
ENDBRANCH  21  22
ENDBRANCH   1  21
BRANCH  19  36
HETATM   36  O   UNL     1     -16.970 -11.457  -4.853  1.00  0.00    -0.381 OA
HETATM   37  H   UNL     1     -17.127 -11.005  -3.986  1.00  0.00     0.211 HD
ENDBRANCH  19  36
BRANCH  12  38
HETATM   38  O   UNL     1     -18.622 -12.655  -3.100  1.00  0.00    -0.387 OA
HETATM   39  H   UNL     1     -18.582 -11.950  -2.429  1.00  0.00     0.210 HD
ENDBRANCH  12  38
BRANCH   8  40
HETATM   40  O   UNL     1     -23.226 -14.008  -1.709  1.00  0.00    -0.306 OA
BRANCH  40  41
HETATM   41  C   UNL     1     -23.034 -15.198  -1.023  1.00  0.00     0.255 C 
HETATM   42  C   UNL     1     -23.179 -15.101   0.480  1.00  0.00     0.126 C 
HETATM   43  O   UNL     1     -22.863 -16.292  -1.551  1.00  0.00    -0.266 OA
ENDBRANCH  40  41
ENDBRANCH   8  40
BRANCH   9  44
HETATM   44  O   UNL     1     -19.863 -12.584  -1.191  1.00  0.00    -0.312 OA
BRANCH  44  45
HETATM   45  C   UNL     1     -19.164 -12.867  -0.067  1.00  0.00     0.263 C 
HETATM   46  O   UNL     1     -19.381 -13.809   0.659  1.00  0.00    -0.265 OA
BRANCH  45  47
HETATM   47  C   UNL     1     -18.119 -11.782   0.211  1.00  0.00     0.149 C 
BRANCH  47  48
HETATM   48  C   UNL     1     -16.750 -12.377   0.332  1.00  0.00    -0.049 A 
HETATM   49  C   UNL     1     -16.046 -12.732  -0.820  1.00  0.00     0.007 A 
HETATM   50  C   UNL     1     -14.864 -13.455  -0.711  1.00  0.00     0.001 A 
HETATM   51  C   UNL     1     -14.371 -13.812   0.546  1.00  0.00     0.000 A 
HETATM   52  C   UNL     1     -15.043 -13.411   1.698  1.00  0.00     0.001 A 
HETATM   53  C   UNL     1     -16.229 -12.690   1.594  1.00  0.00     0.007 A 
ENDBRANCH  47  48
ENDBRANCH  45  47
ENDBRANCH  44  45
ENDBRANCH   9  44
TORSDOF 15
ENDMDL
MODEL 5
REMARK VINA RESULT:      -8.5      1.967      3.681
REMARK  15 active torsions:
REMARK  status: ('A' for Active; 'I' for Inactive)
REMARK    1  A    between atoms: O_2  and  C_3 
REMARK    2  A    between atoms: C_5  and  C_6 
REMARK    3  A    between atoms: C_6  and  C_7 
REMARK    4  A    between atoms: C_7  and  O_9 
REMARK    5  A    between atoms: O_9  and  C_10 
REMARK    6  A    between atoms: C_10  and  C_11 
REMARK    7  A    between atoms: C_18  and  O_19 
REMARK    8  A    between atoms: O_19  and  C_20 
REMARK    9  A    between atoms: C_23  and  O_24 
REMARK   10  A    between atoms: O_24  and  C_25 
REMARK   11  A    between atoms: C_25  and  C_27 
REMARK   12  A    between atoms: C_27  and  C_28 
REMARK   13  A    between atoms: C_36  and  O_37 
REMARK   14  A    between atoms: C_44  and  O_45 
REMARK   15  A    between atoms: C_49  and  O_50 
ROOT
HETATM    1  C   UNL     1     -21.182  -8.104  -4.849  1.00  0.00    -0.050 C 
HETATM    2  C   UNL     1     -21.228  -9.508  -5.365  1.00  0.00    -0.013 C 
HETATM    3  C   UNL     1     -20.840 -11.171  -4.500  1.00  0.00     0.052 C 
HETATM    4  C   UNL     1     -20.767 -12.690  -5.316  1.00  0.00     0.046 A 
HETATM    5  C   UNL     1     -21.917 -13.645  -5.610  1.00  0.00    -0.005 A 
HETATM    6  C   UNL     1     -23.213 -12.887  -5.700  1.00  0.00     0.018 C 
HETATM    7  C   UNL     1     -21.896 -14.767  -6.634  1.00  0.00     0.018 C 
HETATM    8  C   UNL     1     -20.952 -13.966  -4.426  1.00  0.00     0.110 A 
HETATM    9  C   UNL     1     -21.119 -13.660  -2.977  1.00  0.00     0.174 C 
HETATM   10  C   UNL     1     -19.820 -12.797  -2.531  1.00  0.00     0.050 C 
HETATM   11  C   UNL     1     -18.457 -12.980  -3.234  1.00  0.00     0.016 C 
HETATM   12  C   UNL     1     -20.292 -11.374  -2.655  1.00  0.00     0.086 C 
HETATM   13  C   UNL     1     -19.332  -9.989  -1.936  1.00  0.00     0.131 A 
HETATM   14  C   UNL     1     -18.247  -9.557  -2.820  1.00  0.00    -0.000 C 
HETATM   15  C   UNL     1     -18.932  -9.327  -3.931  1.00  0.00    -0.029 C 
HETATM   16  C   UNL     1     -18.267  -9.573  -5.260  1.00  0.00     0.051 C 
HETATM   17  C   UNL     1     -20.453  -9.257  -3.097  1.00  0.00     0.099 A 
HETATM   18  O   UNL     1     -21.641  -9.654  -3.157  1.00  0.00    -0.304 OA
HETATM   19  C   UNL     1     -20.209  -8.587  -1.886  1.00  0.00     0.134 A 
HETATM   20  C   UNL     1     -20.901  -7.572  -3.094  1.00  0.00     0.141 A 
ENDROOT
BRANCH   1  21
HETATM   21  C   UNL     1     -21.168  -6.676  -5.423  1.00  0.00     0.213 C 
BRANCH  21  22
HETATM   22  O   UNL     1     -22.288  -5.819  -5.403  1.00  0.00    -0.317 OA
BRANCH  22  23
HETATM   23  C   UNL     1     -22.355  -5.012  -6.509  1.00  0.00     0.263 C 
HETATM   24  O   UNL     1     -23.387  -4.475  -6.890  1.00  0.00    -0.265 OA
BRANCH  23  25
HETATM   25  C   UNL     1     -21.065  -4.948  -7.320  1.00  0.00     0.149 C 
BRANCH  25  26
HETATM   26  C   UNL     1     -21.221  -4.699  -8.796  1.00  0.00    -0.046 C 
HETATM   27  C   UNL     1     -22.495  -4.622  -9.354  1.00  0.00     0.047 C 
HETATM   28  C   UNL     1     -22.693  -4.223 -10.673  1.00  0.00     0.101 C 
HETATM   29  C   UNL     1     -21.583  -4.076 -11.503  1.00  0.00     0.099 C 
HETATM   30  C   UNL     1     -20.294  -4.261 -11.000  1.00  0.00     0.040 C 
HETATM   31  C   UNL     1     -20.108  -4.552  -9.641  1.00  0.00     0.010 C 
BRANCH  28  32
HETATM   32  O   UNL     1     -23.945  -3.966 -11.168  1.00  0.00    -0.353 OA
HETATM   33  C   UNL     1     -24.867  -3.497 -10.176  1.00  0.00     0.210 C 
ENDBRANCH  28  32
BRANCH  29  34
HETATM   34  O   UNL     1     -21.778  -3.726 -12.809  1.00  0.00    -0.358 OA
HETATM   35  H   UNL     1     -20.995  -3.252 -13.126  1.00  0.00     0.217 HD
ENDBRANCH  29  34
ENDBRANCH  25  26
ENDBRANCH  23  25
ENDBRANCH  22  23
ENDBRANCH  21  22
ENDBRANCH   1  21
BRANCH  19  36
HETATM   36  O   UNL     1     -21.180  -8.758  -0.849  1.00  0.00    -0.381 OA
HETATM   37  H   UNL     1     -21.119  -7.931  -0.309  1.00  0.00     0.211 HD
ENDBRANCH  19  36
BRANCH  12  38
HETATM   38  O   UNL     1     -21.351 -11.333  -1.610  1.00  0.00    -0.387 OA
HETATM   39  H   UNL     1     -21.840 -10.496  -1.709  1.00  0.00     0.210 HD
ENDBRANCH  12  38
BRANCH   8  40
HETATM   40  O   UNL     1     -19.935 -15.073  -4.605  1.00  0.00    -0.306 OA
BRANCH  40  41
HETATM   41  C   UNL     1     -20.125 -16.267  -3.925  1.00  0.00     0.255 C 
HETATM   42  C   UNL     1     -18.979 -16.682  -3.029  1.00  0.00     0.126 C 
HETATM   43  O   UNL     1     -21.163 -16.920  -3.932  1.00  0.00    -0.266 OA
ENDBRANCH  40  41
ENDBRANCH   8  40
BRANCH   9  44
HETATM   44  O   UNL     1     -22.379 -12.972  -2.812  1.00  0.00    -0.312 OA
BRANCH  44  45
HETATM   45  C   UNL     1     -23.235 -13.256  -1.803  1.00  0.00     0.263 C 
HETATM   46  O   UNL     1     -24.069 -12.494  -1.373  1.00  0.00    -0.265 OA
BRANCH  45  47
HETATM   47  C   UNL     1     -22.944 -14.641  -1.216  1.00  0.00     0.149 C 
BRANCH  47  48
HETATM   48  C   UNL     1     -23.190 -14.657   0.262  1.00  0.00    -0.049 A 
HETATM   49  C   UNL     1     -22.353 -13.932   1.111  1.00  0.00     0.007 A 
HETATM   50  C   UNL     1     -22.457 -14.094   2.487  1.00  0.00     0.001 A 
HETATM   51  C   UNL     1     -23.407 -14.966   3.023  1.00  0.00     0.000 A 
HETATM   52  C   UNL     1     -24.280 -15.650   2.179  1.00  0.00     0.001 A 
HETATM   53  C   UNL     1     -24.177 -15.493   0.800  1.00  0.00     0.007 A 
ENDBRANCH  47  48
ENDBRANCH  45  47
ENDBRANCH  44  45
ENDBRANCH   9  44
TORSDOF 15
ENDMDL
MODEL 6
REMARK VINA RESULT:      -8.3      4.412      8.950
REMARK  15 active torsions:
REMARK  status: ('A' for Active; 'I' for Inactive)
REMARK    1  A    between atoms: O_2  and  C_3 
REMARK    2  A    between atoms: C_5  and  C_6 
REMARK    3  A    between atoms: C_6  and  C_7 
REMARK    4  A    between atoms: C_7  and  O_9 
REMARK    5  A    between atoms: O_9  and  C_10 
REMARK    6  A    between atoms: C_10  and  C_11 
REMARK    7  A    between atoms: C_18  and  O_19 
REMARK    8  A    between atoms: O_19  and  C_20 
REMARK    9  A    between atoms: C_23  and  O_24 
REMARK   10  A    between atoms: O_24  and  C_25 
REMARK   11  A    between atoms: C_25  and  C_27 
REMARK   12  A    between atoms: C_27  and  C_28 
REMARK   13  A    between atoms: C_36  and  O_37 
REMARK   14  A    between atoms: C_44  and  O_45 
REMARK   15  A    between atoms: C_49  and  O_50 
ROOT
HETATM    1  C   UNL     1     -16.483 -13.113  -4.336  1.00  0.00    -0.050 C 
HETATM    2  C   UNL     1     -17.130 -12.542  -3.114  1.00  0.00    -0.013 C 
HETATM    3  C   UNL     1     -18.591 -11.320  -2.928  1.00  0.00     0.052 C 
HETATM    4  C   UNL     1     -19.082 -10.624  -1.427  1.00  0.00     0.046 A 
HETATM    5  C   UNL     1     -20.045 -11.206  -0.401  1.00  0.00    -0.005 A 
HETATM    6  C   UNL     1     -20.052 -12.708  -0.487  1.00  0.00     0.018 C 
HETATM    7  C   UNL     1     -20.169 -10.765   1.048  1.00  0.00     0.018 C 
HETATM    8  C   UNL     1     -20.551 -10.083  -1.359  1.00  0.00     0.110 A 
HETATM    9  C   UNL     1     -21.292 -10.218  -2.645  1.00  0.00     0.174 C 
HETATM   10  C   UNL     1     -20.417  -9.445  -3.771  1.00  0.00     0.050 C 
HETATM   11  C   UNL     1     -19.520  -8.244  -3.401  1.00  0.00     0.016 C 
HETATM   12  C   UNL     1     -19.599 -10.546  -4.388  1.00  0.00     0.086 C 
HETATM   13  C   UNL     1     -18.687 -10.288  -5.956  1.00  0.00     0.131 A 
HETATM   14  C   UNL     1     -17.391  -9.640  -5.736  1.00  0.00    -0.000 C 
HETATM   15  C   UNL     1     -16.869 -10.468  -4.843  1.00  0.00    -0.029 C 
HETATM   16  C   UNL     1     -15.941  -9.914  -3.793  1.00  0.00     0.051 C 
HETATM   17  C   UNL     1     -17.989 -11.740  -5.217  1.00  0.00     0.099 A 
HETATM   18  O   UNL     1     -18.738 -12.595  -4.688  1.00  0.00    -0.304 OA
HETATM   19  C   UNL     1     -18.165 -11.714  -6.612  1.00  0.00     0.134 A 
HETATM   20  C   UNL     1     -17.062 -12.931  -6.091  1.00  0.00     0.141 A 
ENDROOT
BRANCH   1  21
HETATM   21  C   UNL     1     -15.178 -13.841  -4.705  1.00  0.00     0.213 C 
BRANCH  21  22
HETATM   22  O   UNL     1     -14.926 -15.193  -4.392  1.00  0.00    -0.317 OA
BRANCH  22  23
HETATM   23  C   UNL     1     -13.943 -15.341  -3.447  1.00  0.00     0.263 C 
HETATM   24  O   UNL     1     -12.753 -15.170  -3.681  1.00  0.00    -0.265 OA
BRANCH  23  25
HETATM   25  C   UNL     1     -14.432 -15.881  -2.108  1.00  0.00     0.149 C 
BRANCH  25  26
HETATM   26  C   UNL     1     -15.090 -14.885  -1.192  1.00  0.00    -0.046 C 
HETATM   27  C   UNL     1     -16.281 -15.218  -0.549  1.00  0.00     0.047 C 
HETATM   28  C   UNL     1     -16.833 -14.404   0.436  1.00  0.00     0.101 C 
HETATM   29  C   UNL     1     -16.280 -13.143   0.650  1.00  0.00     0.099 C 
HETATM   30  C   UNL     1     -15.153 -12.732  -0.065  1.00  0.00     0.040 C 
HETATM   31  C   UNL     1     -14.543 -13.610  -0.971  1.00  0.00     0.010 C 
BRANCH  28  32
HETATM   32  O   UNL     1     -17.895 -14.815   1.198  1.00  0.00    -0.353 OA
HETATM   33  C   UNL     1     -17.527 -15.703   2.261  1.00  0.00     0.210 C 
ENDBRANCH  28  32
BRANCH  29  34
HETATM   34  O   UNL     1     -16.847 -12.324   1.586  1.00  0.00    -0.358 OA
HETATM   35  H   UNL     1     -17.739 -12.648   1.786  1.00  0.00     0.217 HD
ENDBRANCH  29  34
ENDBRANCH  25  26
ENDBRANCH  23  25
ENDBRANCH  22  23
ENDBRANCH  21  22
ENDBRANCH   1  21
BRANCH  19  36
HETATM   36  O   UNL     1     -19.328 -12.369  -7.125  1.00  0.00    -0.381 OA
HETATM   37  H   UNL     1     -19.403 -12.051  -8.060  1.00  0.00     0.211 HD
ENDBRANCH  19  36
BRANCH  12  38
HETATM   38  O   UNL     1     -20.663 -11.378  -5.011  1.00  0.00    -0.387 OA
HETATM   39  H   UNL     1     -20.272 -12.237  -5.253  1.00  0.00     0.210 HD
ENDBRANCH  12  38
BRANCH   8  40
HETATM   40  O   UNL     1     -20.738  -8.688  -0.801  1.00  0.00    -0.306 OA
BRANCH  40  41
HETATM   41  C   UNL     1     -22.027  -8.208  -0.628  1.00  0.00     0.255 C 
HETATM   42  C   UNL     1     -22.308  -6.876  -1.290  1.00  0.00     0.126 C 
HETATM   43  O   UNL     1     -22.937  -8.823  -0.082  1.00  0.00    -0.266 OA
ENDBRANCH  40  41
ENDBRANCH   8  40
BRANCH   9  44
HETATM   44  O   UNL     1     -21.484 -11.627  -2.900  1.00  0.00    -0.312 OA
BRANCH  44  45
HETATM   45  C   UNL     1     -22.710 -12.174  -3.076  1.00  0.00     0.263 C 
HETATM   46  O   UNL     1     -23.019 -12.885  -4.004  1.00  0.00    -0.265 OA
BRANCH  45  47
HETATM   47  C   UNL     1     -23.680 -11.696  -1.991  1.00  0.00     0.149 C 
BRANCH  47  48
HETATM   48  C   UNL     1     -23.751 -12.683  -0.866  1.00  0.00    -0.049 A 
HETATM   49  C   UNL     1     -23.463 -12.270   0.435  1.00  0.00     0.007 A 
HETATM   50  C   UNL     1     -23.343 -13.214   1.448  1.00  0.00     0.001 A 
HETATM   51  C   UNL     1     -23.525 -14.571   1.170  1.00  0.00     0.000 A 
HETATM   52  C   UNL     1     -23.866 -14.979  -0.117  1.00  0.00     0.001 A 
HETATM   53  C   UNL     1     -23.985 -14.038  -1.135  1.00  0.00     0.007 A 
ENDBRANCH  47  48
ENDBRANCH  45  47
ENDBRANCH  44  45
ENDBRANCH   9  44
TORSDOF 15
ENDMDL
MODEL 7
REMARK VINA RESULT:      -8.3      3.801      6.217
REMARK  15 active torsions:
REMARK  status: ('A' for Active; 'I' for Inactive)
REMARK    1  A    between atoms: O_2  and  C_3 
REMARK    2  A    between atoms: C_5  and  C_6 
REMARK    3  A    between atoms: C_6  and  C_7 
REMARK    4  A    between atoms: C_7  and  O_9 
REMARK    5  A    between atoms: O_9  and  C_10 
REMARK    6  A    between atoms: C_10  and  C_11 
REMARK    7  A    between atoms: C_18  and  O_19 
REMARK    8  A    between atoms: O_19  and  C_20 
REMARK    9  A    between atoms: C_23  and  O_24 
REMARK   10  A    between atoms: O_24  and  C_25 
REMARK   11  A    between atoms: C_25  and  C_27 
REMARK   12  A    between atoms: C_27  and  C_28 
REMARK   13  A    between atoms: C_36  and  O_37 
REMARK   14  A    between atoms: C_44  and  O_45 
REMARK   15  A    between atoms: C_49  and  O_50 
ROOT
HETATM    1  C   UNL     1     -15.976 -12.855  -2.559  1.00  0.00    -0.050 C 
HETATM    2  C   UNL     1     -17.368 -13.173  -3.005  1.00  0.00    -0.013 C 
HETATM    3  C   UNL     1     -18.961 -13.498  -1.994  1.00  0.00     0.052 C 
HETATM    4  C   UNL     1     -20.448 -14.038  -2.683  1.00  0.00     0.046 A 
HETATM    5  C   UNL     1     -21.560 -13.187  -3.284  1.00  0.00    -0.005 A 
HETATM    6  C   UNL     1     -21.000 -11.893  -3.807  1.00  0.00     0.018 C 
HETATM    7  C   UNL     1     -22.661 -13.689  -4.201  1.00  0.00     0.018 C 
HETATM    8  C   UNL     1     -21.742 -13.763  -1.845  1.00  0.00     0.110 A 
HETATM    9  C   UNL     1     -21.472 -13.104  -0.535  1.00  0.00     0.174 C 
HETATM   10  C   UNL     1     -20.430 -14.059   0.260  1.00  0.00     0.050 C 
HETATM   11  C   UNL     1     -20.408 -15.586   0.029  1.00  0.00     0.016 C 
HETATM   12  C   UNL     1     -19.091 -13.456  -0.064  1.00  0.00     0.086 C 
HETATM   13  C   UNL     1     -17.585 -13.933   0.863  1.00  0.00     0.131 A 
HETATM   14  C   UNL     1     -16.993 -15.171   0.347  1.00  0.00    -0.000 C 
HETATM   15  C   UNL     1     -16.860 -14.847  -0.931  1.00  0.00    -0.029 C 
HETATM   16  C   UNL     1     -16.999 -15.926  -1.973  1.00  0.00     0.051 C 
HETATM   17  C   UNL     1     -17.018 -13.147  -0.621  1.00  0.00     0.099 A 
HETATM   18  O   UNL     1     -17.585 -12.107  -1.034  1.00  0.00    -0.304 OA
HETATM   19  C   UNL     1     -16.327 -12.897   0.577  1.00  0.00     0.134 A 
HETATM   20  C   UNL     1     -15.417 -12.487  -0.827  1.00  0.00     0.141 A 
ENDROOT
BRANCH   1  21
HETATM   21  C   UNL     1     -14.558 -12.849  -3.157  1.00  0.00     0.213 C 
BRANCH  21  22
HETATM   22  O   UNL     1     -14.186 -13.608  -4.288  1.00  0.00    -0.317 OA
BRANCH  22  23
HETATM   23  C   UNL     1     -13.923 -12.827  -5.384  1.00  0.00     0.263 C 
HETATM   24  O   UNL     1     -12.969 -12.063  -5.452  1.00  0.00    -0.265 OA
BRANCH  23  25
HETATM   25  C   UNL     1     -14.997 -12.874  -6.464  1.00  0.00     0.149 C 
BRANCH  25  26
HETATM   26  C   UNL     1     -16.119 -11.881  -6.328  1.00  0.00    -0.046 C 
HETATM   27  C   UNL     1     -17.361 -12.157  -6.895  1.00  0.00     0.047 C 
HETATM   28  C   UNL     1     -18.472 -11.356  -6.650  1.00  0.00     0.101 C 
HETATM   29  C   UNL     1     -18.294 -10.151  -5.974  1.00  0.00     0.099 C 
HETATM   30  C   UNL     1     -17.033  -9.788  -5.494  1.00  0.00     0.040 C 
HETATM   31  C   UNL     1     -15.948 -10.662  -5.650  1.00  0.00     0.010 C 
BRANCH  28  32
HETATM   32  O   UNL     1     -19.730 -11.726  -7.050  1.00  0.00    -0.353 OA
HETATM   33  C   UNL     1     -19.875 -13.138  -7.250  1.00  0.00     0.210 C 
ENDBRANCH  28  32
BRANCH  29  34
HETATM   34  O   UNL     1     -19.376  -9.341  -5.770  1.00  0.00    -0.358 OA
HETATM   35  H   UNL     1     -19.776  -9.563  -4.916  1.00  0.00     0.217 HD
ENDBRANCH  29  34
ENDBRANCH  25  26
ENDBRANCH  23  25
ENDBRANCH  22  23
ENDBRANCH  21  22
ENDBRANCH   1  21
BRANCH  19  36
HETATM   36  O   UNL     1     -16.645 -11.683   1.262  1.00  0.00    -0.381 OA
HETATM   37  H   UNL     1     -15.829 -11.127   1.180  1.00  0.00     0.211 HD
ENDBRANCH  19  36
BRANCH  12  38
HETATM   38  O   UNL     1     -19.212 -12.126   0.593  1.00  0.00    -0.387 OA
HETATM   39  H   UNL     1     -19.206 -12.264   1.557  1.00  0.00     0.210 HD
ENDBRANCH  12  38
BRANCH   8  40
HETATM   40  O   UNL     1     -22.687 -14.930  -1.649  1.00  0.00    -0.306 OA
BRANCH  40  41
HETATM   41  C   UNL     1     -23.888 -14.709  -0.991  1.00  0.00     0.255 C 
HETATM   42  C   UNL     1     -24.161 -15.641   0.171  1.00  0.00     0.126 C 
HETATM   43  O   UNL     1     -24.655 -13.781  -1.224  1.00  0.00    -0.266 OA
ENDBRANCH  40  41
ENDBRANCH   8  40
BRANCH   9  44
HETATM   44  O   UNL     1     -20.978 -11.773  -0.803  1.00  0.00    -0.312 OA
BRANCH  44  45
HETATM   45  C   UNL     1     -21.764 -10.674  -0.713  1.00  0.00     0.263 C 
HETATM   46  O   UNL     1     -22.932 -10.637  -1.023  1.00  0.00    -0.265 OA
BRANCH  45  47
HETATM   47  C   UNL     1     -20.951  -9.460  -0.253  1.00  0.00     0.149 C 
BRANCH  47  48
HETATM   48  C   UNL     1     -21.138  -8.306  -1.189  1.00  0.00    -0.049 A 
HETATM   49  C   UNL     1     -21.962  -7.242  -0.819  1.00  0.00     0.007 A 
HETATM   50  C   UNL     1     -22.290  -6.265  -1.752  1.00  0.00     0.001 A 
HETATM   51  C   UNL     1     -21.785  -6.337  -3.052  1.00  0.00     0.000 A 
HETATM   52  C   UNL     1     -20.919  -7.369  -3.408  1.00  0.00     0.001 A 
HETATM   53  C   UNL     1     -20.590  -8.350  -2.477  1.00  0.00     0.007 A 
ENDBRANCH  47  48
ENDBRANCH  45  47
ENDBRANCH  44  45
ENDBRANCH   9  44
TORSDOF 15
ENDMDL
MODEL 8
REMARK VINA RESULT:      -8.2      3.141      6.269
REMARK  15 active torsions:
REMARK  status: ('A' for Active; 'I' for Inactive)
REMARK    1  A    between atoms: O_2  and  C_3 
REMARK    2  A    between atoms: C_5  and  C_6 
REMARK    3  A    between atoms: C_6  and  C_7 
REMARK    4  A    between atoms: C_7  and  O_9 
REMARK    5  A    between atoms: O_9  and  C_10 
REMARK    6  A    between atoms: C_10  and  C_11 
REMARK    7  A    between atoms: C_18  and  O_19 
REMARK    8  A    between atoms: O_19  and  C_20 
REMARK    9  A    between atoms: C_23  and  O_24 
REMARK   10  A    between atoms: O_24  and  C_25 
REMARK   11  A    between atoms: C_25  and  C_27 
REMARK   12  A    between atoms: C_27  and  C_28 
REMARK   13  A    between atoms: C_36  and  O_37 
REMARK   14  A    between atoms: C_44  and  O_45 
REMARK   15  A    between atoms: C_49  and  O_50 
ROOT
HETATM    1  C   UNL     1     -20.149  -9.857  -4.995  1.00  0.00    -0.050 C 
HETATM    2  C   UNL     1     -18.713 -10.227  -5.196  1.00  0.00    -0.013 C 
HETATM    3  C   UNL     1     -17.625 -11.537  -4.323  1.00  0.00     0.052 C 
HETATM    4  C   UNL     1     -15.923 -11.693  -4.563  1.00  0.00     0.046 A 
HETATM    5  C   UNL     1     -15.203 -12.492  -5.642  1.00  0.00    -0.005 A 
HETATM    6  C   UNL     1     -16.075 -12.623  -6.861  1.00  0.00     0.018 C 
HETATM    7  C   UNL     1     -13.752 -12.316  -6.055  1.00  0.00     0.018 C 
HETATM    8  C   UNL     1     -15.295 -13.082  -4.200  1.00  0.00     0.110 A 
HETATM    9  C   UNL     1     -16.282 -14.054  -3.651  1.00  0.00     0.174 C 
HETATM   10  C   UNL     1     -16.964 -13.346  -2.361  1.00  0.00     0.050 C 
HETATM   11  C   UNL     1     -16.191 -12.312  -1.513  1.00  0.00     0.016 C 
HETATM   12  C   UNL     1     -18.218 -12.736  -2.925  1.00  0.00     0.086 C 
HETATM   13  C   UNL     1     -19.546 -12.111  -1.829  1.00  0.00     0.131 A 
HETATM   14  C   UNL     1     -19.270 -10.753  -1.352  1.00  0.00    -0.000 C 
HETATM   15  C   UNL     1     -19.078 -10.137  -2.509  1.00  0.00    -0.029 C 
HETATM   16  C   UNL     1     -18.097  -8.996  -2.572  1.00  0.00     0.051 C 
HETATM   17  C   UNL     1     -19.850 -11.396  -3.422  1.00  0.00     0.099 A 
HETATM   18  O   UNL     1     -19.727 -12.095  -4.456  1.00  0.00    -0.304 OA
HETATM   19  C   UNL     1     -20.949 -11.822  -2.658  1.00  0.00     0.134 A 
HETATM   20  C   UNL     1     -21.383 -10.733  -3.920  1.00  0.00     0.141 A 
ENDROOT
BRANCH   1  21
HETATM   21  C   UNL     1     -21.093  -8.698  -5.359  1.00  0.00     0.213 C 
BRANCH  21  22
HETATM   22  O   UNL     1     -20.831  -7.350  -5.034  1.00  0.00    -0.317 OA
BRANCH  22  23
HETATM   23  C   UNL     1     -20.226  -6.668  -6.059  1.00  0.00     0.263 C 
HETATM   24  O   UNL     1     -19.336  -7.145  -6.752  1.00  0.00    -0.265 OA
BRANCH  23  25
HETATM   25  C   UNL     1     -20.648  -5.208  -6.179  1.00  0.00     0.149 C 
BRANCH  25  26
HETATM   26  C   UNL     1     -20.972  -4.723  -7.566  1.00  0.00    -0.046 C 
HETATM   27  C   UNL     1     -22.283  -4.378  -7.889  1.00  0.00     0.047 C 
HETATM   28  C   UNL     1     -22.600  -3.763  -9.097  1.00  0.00     0.101 C 
HETATM   29  C   UNL     1     -21.614  -3.660 -10.076  1.00  0.00     0.099 C 
HETATM   30  C   UNL     1     -20.315  -4.105  -9.823  1.00  0.00     0.040 C 
HETATM   31  C   UNL     1     -19.985  -4.617  -8.561  1.00  0.00     0.010 C 
BRANCH  28  32
HETATM   32  O   UNL     1     -23.850  -3.256  -9.340  1.00  0.00    -0.353 OA
HETATM   33  C   UNL     1     -24.779  -4.231  -9.831  1.00  0.00     0.210 C 
ENDBRANCH  28  32
BRANCH  29  34
HETATM   34  O   UNL     1     -21.935  -3.096 -11.279  1.00  0.00    -0.358 OA
HETATM   35  H   UNL     1     -22.494  -3.713 -11.775  1.00  0.00     0.217 HD
ENDBRANCH  29  34
ENDBRANCH  25  26
ENDBRANCH  23  25
ENDBRANCH  22  23
ENDBRANCH  21  22
ENDBRANCH   1  21
BRANCH  19  36
HETATM   36  O   UNL     1     -21.497 -13.104  -2.977  1.00  0.00    -0.381 OA
HETATM   37  H   UNL     1     -22.378 -12.906  -3.383  1.00  0.00     0.211 HD
ENDBRANCH  19  36
BRANCH  12  38
HETATM   38  O   UNL     1     -18.970 -13.954  -3.331  1.00  0.00    -0.387 OA
HETATM   39  H   UNL     1     -18.942 -14.016  -4.303  1.00  0.00     0.210 HD
ENDBRANCH  12  38
BRANCH   8  40
HETATM   40  O   UNL     1     -14.054 -13.062  -3.333  1.00  0.00    -0.306 OA
BRANCH  40  41
HETATM   41  C   UNL     1     -13.372 -14.251  -3.120  1.00  0.00     0.255 C 
HETATM   42  C   UNL     1     -13.129 -14.597  -1.667  1.00  0.00     0.126 C 
HETATM   43  O   UNL     1     -13.062 -15.048  -3.998  1.00  0.00    -0.266 OA
ENDBRANCH  40  41
ENDBRANCH   8  40
BRANCH   9  44
HETATM   44  O   UNL     1     -17.208 -14.391  -4.708  1.00  0.00    -0.312 OA
BRANCH  44  45
HETATM   45  C   UNL     1     -17.151 -15.566  -5.377  1.00  0.00     0.263 C 
HETATM   46  O   UNL     1     -16.143 -16.210  -5.551  1.00  0.00    -0.265 OA
BRANCH  45  47
HETATM   47  C   UNL     1     -18.519 -15.924  -5.966  1.00  0.00     0.149 C 
BRANCH  47  48
HETATM   48  C   UNL     1     -18.838 -15.054  -7.143  1.00  0.00    -0.049 A 
HETATM   49  C   UNL     1     -18.169 -15.252  -8.352  1.00  0.00     0.007 A 
HETATM   50  C   UNL     1     -18.320 -14.335  -9.384  1.00  0.00     0.001 A 
HETATM   51  C   UNL     1     -19.152 -13.224  -9.221  1.00  0.00     0.000 A 
HETATM   52  C   UNL     1     -19.864 -13.053  -8.036  1.00  0.00     0.001 A 
HETATM   53  C   UNL     1     -19.712 -13.969  -6.998  1.00  0.00     0.007 A 
ENDBRANCH  47  48
ENDBRANCH  45  47
ENDBRANCH  44  45
ENDBRANCH   9  44
TORSDOF 15
ENDMDL
MODEL 9
REMARK VINA RESULT:      -8.1      2.927      6.842
REMARK  15 active torsions:
REMARK  status: ('A' for Active; 'I' for Inactive)
REMARK    1  A    between atoms: O_2  and  C_3 
REMARK    2  A    between atoms: C_5  and  C_6 
REMARK    3  A    between atoms: C_6  and  C_7 
REMARK    4  A    between atoms: C_7  and  O_9 
REMARK    5  A    between atoms: O_9  and  C_10 
REMARK    6  A    between atoms: C_10  and  C_11 
REMARK    7  A    between atoms: C_18  and  O_19 
REMARK    8  A    between atoms: O_19  and  C_20 
REMARK    9  A    between atoms: C_23  and  O_24 
REMARK   10  A    between atoms: O_24  and  C_25 
REMARK   11  A    between atoms: C_25  and  C_27 
REMARK   12  A    between atoms: C_27  and  C_28 
REMARK   13  A    between atoms: C_36  and  O_37 
REMARK   14  A    between atoms: C_44  and  O_45 
REMARK   15  A    between atoms: C_49  and  O_50 
ROOT
HETATM    1  C   UNL     1     -22.294 -10.768  -0.365  1.00  0.00    -0.050 C 
HETATM    2  C   UNL     1     -20.856 -11.109  -0.136  1.00  0.00    -0.013 C 
HETATM    3  C   UNL     1     -19.792 -12.555  -0.801  1.00  0.00     0.052 C 
HETATM    4  C   UNL     1     -18.184 -12.892  -0.274  1.00  0.00     0.046 A 
HETATM    5  C   UNL     1     -16.885 -12.304  -0.811  1.00  0.00    -0.005 A 
HETATM    6  C   UNL     1     -17.135 -10.943  -1.401  1.00  0.00     0.018 C 
HETATM    7  C   UNL     1     -15.543 -12.327  -0.100  1.00  0.00     0.018 C 
HETATM    8  C   UNL     1     -17.299 -13.744  -1.246  1.00  0.00     0.110 A 
HETATM    9  C   UNL     1     -18.018 -14.176  -2.478  1.00  0.00     0.174 C 
HETATM   10  C   UNL     1     -19.332 -14.991  -1.989  1.00  0.00     0.050 C 
HETATM   11  C   UNL     1     -19.341 -15.768  -0.654  1.00  0.00     0.016 C 
HETATM   12  C   UNL     1     -20.412 -13.943  -1.998  1.00  0.00     0.086 C 
HETATM   13  C   UNL     1     -22.180 -14.401  -1.865  1.00  0.00     0.131 A 
HETATM   14  C   UNL     1     -22.590 -14.607  -0.473  1.00  0.00    -0.000 C 
HETATM   15  C   UNL     1     -22.205 -13.454   0.054  1.00  0.00    -0.029 C 
HETATM   16  C   UNL     1     -21.732 -13.430   1.484  1.00  0.00     0.051 C 
HETATM   17  C   UNL     1     -22.093 -12.671  -1.491  1.00  0.00     0.099 A 
HETATM   18  O   UNL     1     -21.359 -11.918  -2.175  1.00  0.00    -0.304 OA
HETATM   19  C   UNL     1     -23.178 -13.138  -2.251  1.00  0.00     0.134 A 
HETATM   20  C   UNL     1     -23.456 -11.586  -1.559  1.00  0.00     0.141 A 
ENDROOT
BRANCH   1  21
HETATM   21  C   UNL     1     -23.371  -9.870   0.271  1.00  0.00     0.213 C 
BRANCH  21  22
HETATM   22  O   UNL     1     -23.547  -8.510  -0.062  1.00  0.00    -0.317 OA
BRANCH  22  23
HETATM   23  C   UNL     1     -22.401  -7.775   0.104  1.00  0.00     0.263 C 
HETATM   24  O   UNL     1     -21.677  -7.870   1.087  1.00  0.00    -0.265 OA
BRANCH  23  25
HETATM   25  C   UNL     1     -22.172  -6.716  -0.968  1.00  0.00     0.149 C 
BRANCH  25  26
HETATM   26  C   UNL     1     -21.515  -7.188  -2.237  1.00  0.00    -0.046 C 
HETATM   27  C   UNL     1     -21.774  -6.528  -3.437  1.00  0.00     0.047 C 
HETATM   28  C   UNL     1     -21.062  -6.815  -4.598  1.00  0.00     0.101 C 
HETATM   29  C   UNL     1     -20.203  -7.911  -4.603  1.00  0.00     0.099 C 
HETATM   30  C   UNL     1     -20.010  -8.666  -3.444  1.00  0.00     0.040 C 
HETATM   31  C   UNL     1     -20.649  -8.294  -2.253  1.00  0.00     0.010 C 
BRANCH  28  32
HETATM   32  O   UNL     1     -21.182  -6.045  -5.725  1.00  0.00    -0.353 OA
HETATM   33  C   UNL     1     -20.316  -4.902  -5.733  1.00  0.00     0.210 C 
ENDBRANCH  28  32
BRANCH  29  34
HETATM   34  O   UNL     1     -19.536  -8.221  -5.755  1.00  0.00    -0.358 OA
HETATM   35  H   UNL     1     -19.004  -7.457  -6.024  1.00  0.00     0.217 HD
ENDBRANCH  29  34
ENDBRANCH  25  26
ENDBRANCH  23  25
ENDBRANCH  22  23
ENDBRANCH  21  22
ENDBRANCH   1  21
BRANCH  19  36
HETATM   36  O   UNL     1     -23.087 -12.976  -3.669  1.00  0.00    -0.381 OA
HETATM   37  H   UNL     1     -24.011 -12.767  -3.958  1.00  0.00     0.211 HD
ENDBRANCH  19  36
BRANCH  12  38
HETATM   38  O   UNL     1     -20.486 -13.624  -3.449  1.00  0.00    -0.387 OA
HETATM   39  H   UNL     1     -20.446 -12.655  -3.547  1.00  0.00     0.210 HD
ENDBRANCH  12  38
BRANCH   8  40
HETATM   40  O   UNL     1     -16.562 -14.920  -0.640  1.00  0.00    -0.306 OA
BRANCH  40  41
HETATM   41  C   UNL     1     -15.825 -15.745  -1.477  1.00  0.00     0.255 C 
HETATM   42  C   UNL     1     -14.492 -15.182  -1.919  1.00  0.00     0.126 C 
HETATM   43  O   UNL     1     -16.135 -16.892  -1.781  1.00  0.00    -0.266 OA
ENDBRANCH  40  41
ENDBRANCH   8  40
BRANCH   9  44
HETATM   44  O   UNL     1     -18.304 -12.996  -3.261  1.00  0.00    -0.312 OA
BRANCH  44  45
HETATM   45  C   UNL     1     -17.992 -12.902  -4.575  1.00  0.00     0.263 C 
HETATM   46  O   UNL     1     -18.189 -13.771  -5.392  1.00  0.00    -0.265 OA
BRANCH  45  47
HETATM   47  C   UNL     1     -17.269 -11.584  -4.870  1.00  0.00     0.149 C 
BRANCH  47  48
HETATM   48  C   UNL     1     -15.809 -11.817  -5.109  1.00  0.00    -0.049 A 
HETATM   49  C   UNL     1     -15.334 -11.949  -6.415  1.00  0.00     0.007 A 
HETATM   50  C   UNL     1     -14.023 -12.352  -6.636  1.00  0.00     0.001 A 
HETATM   51  C   UNL     1     -13.175 -12.609  -5.556  1.00  0.00     0.000 A 
HETATM   52  C   UNL     1     -13.631 -12.426  -4.252  1.00  0.00     0.001 A 
HETATM   53  C   UNL     1     -14.944 -12.025  -4.027  1.00  0.00     0.007 A 
ENDBRANCH  47  48
ENDBRANCH  45  47
ENDBRANCH  44  45
ENDBRANCH   9  44
TORSDOF 15
ENDMDL
