REMARK  3 active torsions:
REMARK  status: ('A' for Active; 'I' for Inactive)
REMARK    1  A    between atoms: N_9  and  C_10 
REMARK    2  A    between atoms: C_10  and  C_11 
REMARK    3  A    between atoms: C_15  and  C_16 
ROOT
HETATM    1  C   UNL     1       1.275   0.554   0.657  1.00  0.00     0.050 C 
HETATM    2  C   UNL     1       2.716   0.256   0.386  1.00  0.00    -0.033 A 
HETATM    3  C   UNL     1       3.610   1.353   0.325  1.00  0.00     0.033 A 
HETATM    4  C   UNL     1       4.985   1.177   0.127  1.00  0.00     0.035 A 
HETATM    5 CL   UNL     1       6.021   2.548   0.041  1.00  0.00    -0.084 Cl
HETATM    6  C   UNL     1       5.521  -0.096   0.003  1.00  0.00     0.036 A 
HETATM    7  C   UNL     1       4.645  -1.174   0.042  1.00  0.00     0.018 A 
HETATM    8  C   UNL     1       3.253  -1.015   0.188  1.00  0.00     0.053 A 
HETATM    9  N   UNL     1       2.644  -2.287   0.064  1.00  0.00    -0.310 N 
HETATM   10  C   UNL     1       3.606  -3.293  -0.157  1.00  0.00     0.268 C 
HETATM   11  O   UNL     1       3.388  -4.469  -0.419  1.00  0.00    -0.269 OA
HETATM   12  C   UNL     1       4.985  -2.628  -0.073  1.00  0.00     0.227 A 
HETATM   13  N   UNL     1       5.863  -2.928  -1.176  1.00  0.00    -0.313 N 
HETATM   14  C   UNL     1       6.963  -3.641  -0.763  1.00  0.00     0.324 A 
HETATM   15  O   UNL     1       7.831  -4.069  -1.499  1.00  0.00    -0.247 OA
HETATM   16  N   UNL     1       6.927  -3.756   0.586  1.00  0.00    -0.276 N 
HETATM   17  C   UNL     1       5.799  -3.180   1.093  1.00  0.00     0.268 A 
HETATM   18  O   UNL     1       5.518  -3.126   2.282  1.00  0.00    -0.269 OA
HETATM   19  H   UNL     1       5.648  -2.809  -2.155  1.00  0.00     0.166 HD
HETATM   20  H   UNL     1       7.632  -4.223   1.130  1.00  0.00     0.173 HD
ENDROOT
BRANCH   9  21
HETATM   21  C   UNL     1       1.234  -2.586  -0.075  1.00  0.00     0.171 C 
BRANCH  21  22
HETATM   22  C   UNL     1       0.568  -3.224   1.130  1.00  0.00    -0.039 A 
HETATM   23  C   UNL     1       1.142  -3.233   2.407  1.00  0.00     0.009 A 
HETATM   24  C   UNL     1       0.521  -3.903   3.465  1.00  0.00     0.001 A 
HETATM   25  C   UNL     1      -0.687  -4.571   3.265  1.00  0.00     0.016 A 
HETATM   26  C   UNL     1      -1.300  -4.563   2.007  1.00  0.00     0.048 A 
HETATM   27  C   UNL     1      -0.675  -3.868   0.955  1.00  0.00     0.025 A 
BRANCH  26  28
HETATM   28  C   UNL     1      -2.594  -5.304   1.768  1.00  0.00     0.417 C 
HETATM   29  F   UNL     1      -2.991  -6.068   2.825  1.00  0.00    -0.166 F 
HETATM   30  F   UNL     1      -3.634  -4.468   1.502  1.00  0.00    -0.166 F 
HETATM   31  F   UNL     1      -2.520  -6.154   0.705  1.00  0.00    -0.166 F 
ENDBRANCH  26  28
ENDBRANCH  21  22
ENDBRANCH   9  21
TORSDOF 3
