MODEL 1
REMARK VINA RESULT:      -8.8      0.000      0.000
REMARK  3 active torsions:
REMARK  status: ('A' for Active; 'I' for Inactive)
REMARK    1  A    between atoms: N_9  and  C_10 
REMARK    2  A    between atoms: C_10  and  C_11 
REMARK    3  A    between atoms: C_15  and  C_16 
ROOT
HETATM    1  C   UNL     1     -21.986  -6.949  -1.384  1.00  0.00     0.050 C 
HETATM    2  C   UNL     1     -21.224  -7.491  -2.551  1.00  0.00    -0.033 A 
HETATM    3  C   UNL     1     -21.353  -6.813  -3.788  1.00  0.00     0.033 A 
HETATM    4  C   UNL     1     -20.642  -7.211  -4.928  1.00  0.00     0.035 A 
HETATM    5 CL   UNL     1     -20.855  -6.362  -6.409  1.00  0.00    -0.084 Cl
HETATM    6  C   UNL     1     -19.764  -8.283  -4.872  1.00  0.00     0.036 A 
HETATM    7  C   UNL     1     -19.650  -8.963  -3.665  1.00  0.00     0.018 A 
HETATM    8  C   UNL     1     -20.394  -8.612  -2.523  1.00  0.00     0.053 A 
HETATM    9  N   UNL     1     -20.140  -9.570  -1.513  1.00  0.00    -0.310 N 
HETATM   10  C   UNL     1     -19.233 -10.553  -1.960  1.00  0.00     0.268 C 
HETATM   11  O   UNL     1     -18.907 -11.572  -1.365  1.00  0.00    -0.269 OA
HETATM   12  C   UNL     1     -18.777 -10.143  -3.365  1.00  0.00     0.227 A 
HETATM   13  N   UNL     1     -18.865 -11.189  -4.353  1.00  0.00    -0.313 N 
HETATM   14  C   UNL     1     -17.622 -11.545  -4.820  1.00  0.00     0.324 A 
HETATM   15  O   UNL     1     -17.408 -12.438  -5.616  1.00  0.00    -0.247 OA
HETATM   16  N   UNL     1     -16.698 -10.721  -4.270  1.00  0.00    -0.276 N 
HETATM   17  C   UNL     1     -17.281  -9.847  -3.401  1.00  0.00     0.268 A 
HETATM   18  O   UNL     1     -16.684  -8.982  -2.775  1.00  0.00    -0.269 OA
HETATM   19  H   UNL     1     -19.686 -11.737  -4.565  1.00  0.00     0.166 HD
HETATM   20  H   UNL     1     -15.713 -10.769  -4.468  1.00  0.00     0.173 HD
ENDROOT
BRANCH   9  21
HETATM   21  C   UNL     1     -20.841  -9.745  -0.258  1.00  0.00     0.171 C 
BRANCH  21  22
HETATM   22  C   UNL     1     -21.983 -10.744  -0.268  1.00  0.00    -0.039 A 
HETATM   23  C   UNL     1     -23.084 -10.639  -1.127  1.00  0.00     0.009 A 
HETATM   24  C   UNL     1     -24.146 -11.544  -1.040  1.00  0.00     0.001 A 
HETATM   25  C   UNL     1     -24.123 -12.571  -0.097  1.00  0.00     0.016 A 
HETATM   26  C   UNL     1     -23.028 -12.718   0.762  1.00  0.00     0.048 A 
HETATM   27  C   UNL     1     -21.956 -11.814   0.651  1.00  0.00     0.025 A 
BRANCH  26  28
HETATM   28  C   UNL     1     -23.000 -13.809   1.806  1.00  0.00     0.417 C 
HETATM   29  F   UNL     1     -21.876 -13.801   2.577  1.00  0.00    -0.166 F 
HETATM   30  F   UNL     1     -24.046 -13.730   2.673  1.00  0.00    -0.166 F 
HETATM   31  F   UNL     1     -23.064 -15.056   1.260  1.00  0.00    -0.166 F 
ENDBRANCH  26  28
ENDBRANCH  21  22
ENDBRANCH   9  21
TORSDOF 3
ENDMDL
MODEL 2
REMARK VINA RESULT:      -8.7      3.592      5.341
REMARK  3 active torsions:
REMARK  status: ('A' for Active; 'I' for Inactive)
REMARK    1  A    between atoms: N_9  and  C_10 
REMARK    2  A    between atoms: C_10  and  C_11 
REMARK    3  A    between atoms: C_15  and  C_16 
ROOT
HETATM    1  C   UNL     1     -16.262  -9.444  -2.683  1.00  0.00     0.050 C 
HETATM    2  C   UNL     1     -16.295 -10.330  -3.888  1.00  0.00    -0.033 A 
HETATM    3  C   UNL     1     -15.064 -10.871  -4.334  1.00  0.00     0.033 A 
HETATM    4  C   UNL     1     -14.993 -11.752  -5.421  1.00  0.00     0.035 A 
HETATM    5 CL   UNL     1     -13.468 -12.362  -5.932  1.00  0.00    -0.084 Cl
HETATM    6  C   UNL     1     -16.145 -12.140  -6.088  1.00  0.00     0.036 A 
HETATM    7  C   UNL     1     -17.352 -11.596  -5.667  1.00  0.00     0.018 A 
HETATM    8  C   UNL     1     -17.438 -10.669  -4.609  1.00  0.00     0.053 A 
HETATM    9  N   UNL     1     -18.778 -10.221  -4.517  1.00  0.00    -0.310 N 
HETATM   10  C   UNL     1     -19.589 -10.837  -5.491  1.00  0.00     0.268 C 
HETATM   11  O   UNL     1     -20.759 -10.575  -5.742  1.00  0.00    -0.269 OA
HETATM   12  C   UNL     1     -18.715 -11.858  -6.229  1.00  0.00     0.227 A 
HETATM   13  N   UNL     1     -18.772 -11.768  -7.666  1.00  0.00    -0.313 N 
HETATM   14  C   UNL     1     -19.326 -12.897  -8.220  1.00  0.00     0.324 A 
HETATM   15  O   UNL     1     -19.541 -13.057  -9.406  1.00  0.00    -0.247 OA
HETATM   16  N   UNL     1     -19.559 -13.796  -7.234  1.00  0.00    -0.276 N 
HETATM   17  C   UNL     1     -19.222 -13.281  -6.016  1.00  0.00     0.268 A 
HETATM   18  O   UNL     1     -19.316 -13.882  -4.955  1.00  0.00    -0.269 OA
HETATM   19  H   UNL     1     -18.607 -10.937  -8.216  1.00  0.00     0.166 HD
HETATM   20  H   UNL     1     -19.948 -14.711  -7.387  1.00  0.00     0.173 HD
ENDROOT
BRANCH   9  21
HETATM   21  C   UNL     1     -19.293  -9.116  -3.735  1.00  0.00     0.171 C 
BRANCH  21  22
HETATM   22  C   UNL     1     -19.865  -9.474  -2.376  1.00  0.00    -0.039 A 
HETATM   23  C   UNL     1     -19.625 -10.698  -1.742  1.00  0.00     0.009 A 
HETATM   24  C   UNL     1     -20.241 -11.006  -0.526  1.00  0.00     0.001 A 
HETATM   25  C   UNL     1     -21.104 -10.093   0.079  1.00  0.00     0.016 A 
HETATM   26  C   UNL     1     -21.349  -8.850  -0.516  1.00  0.00     0.048 A 
HETATM   27  C   UNL     1     -20.707  -8.544  -1.730  1.00  0.00     0.025 A 
BRANCH  26  28
HETATM   28  C   UNL     1     -22.302  -7.862   0.113  1.00  0.00     0.417 C 
HETATM   29  F   UNL     1     -22.510  -6.745  -0.642  1.00  0.00    -0.166 F 
HETATM   30  F   UNL     1     -23.535  -8.393   0.337  1.00  0.00    -0.166 F 
HETATM   31  F   UNL     1     -21.866  -7.414   1.323  1.00  0.00    -0.166 F 
ENDBRANCH  26  28
ENDBRANCH  21  22
ENDBRANCH   9  21
TORSDOF 3
ENDMDL
MODEL 3
REMARK VINA RESULT:      -8.6      5.799      8.104
REMARK  3 active torsions:
REMARK  status: ('A' for Active; 'I' for Inactive)
REMARK    1  A    between atoms: N_9  and  C_10 
REMARK    2  A    between atoms: C_10  and  C_11 
REMARK    3  A    between atoms: C_15  and  C_16 
ROOT
HETATM    1  C   UNL     1     -22.273  -6.278  -1.834  1.00  0.00     0.050 C 
HETATM    2  C   UNL     1     -21.440  -7.493  -2.097  1.00  0.00    -0.033 A 
HETATM    3  C   UNL     1     -21.287  -8.423  -1.040  1.00  0.00     0.033 A 
HETATM    4  C   UNL     1     -20.570  -9.615  -1.200  1.00  0.00     0.035 A 
HETATM    5 CL   UNL     1     -20.400 -10.698   0.127  1.00  0.00    -0.084 Cl
HETATM    6  C   UNL     1     -19.998  -9.933  -2.422  1.00  0.00     0.036 A 
HETATM    7  C   UNL     1     -20.128  -9.015  -3.457  1.00  0.00     0.018 A 
HETATM    8  C   UNL     1     -20.801  -7.787  -3.301  1.00  0.00     0.053 A 
HETATM    9  N   UNL     1     -20.646  -7.040  -4.493  1.00  0.00    -0.310 N 
HETATM   10  C   UNL     1     -19.886  -7.749  -5.444  1.00  0.00     0.268 C 
HETATM   11  O   UNL     1     -19.483  -7.328  -6.521  1.00  0.00    -0.269 OA
HETATM   12  C   UNL     1     -19.598  -9.134  -4.852  1.00  0.00     0.227 A 
HETATM   13  N   UNL     1     -18.215  -9.535  -4.910  1.00  0.00    -0.313 N 
HETATM   14  C   UNL     1     -18.041 -10.626  -5.727  1.00  0.00     0.324 A 
HETATM   15  O   UNL     1     -16.968 -11.131  -5.994  1.00  0.00    -0.247 OA
HETATM   16  N   UNL     1     -19.255 -11.050  -6.152  1.00  0.00    -0.276 N 
HETATM   17  C   UNL     1     -20.246 -10.239  -5.681  1.00  0.00     0.268 A 
HETATM   18  O   UNL     1     -21.439 -10.398  -5.898  1.00  0.00    -0.269 OA
HETATM   19  H   UNL     1     -17.429  -9.006  -4.561  1.00  0.00     0.166 HD
HETATM   20  H   UNL     1     -19.395 -11.846  -6.751  1.00  0.00     0.173 HD
ENDROOT
BRANCH   9  21
HETATM   21  C   UNL     1     -20.971  -5.646  -4.715  1.00  0.00     0.171 C 
BRANCH  21  22
HETATM   22  C   UNL     1     -20.727  -5.122  -6.118  1.00  0.00    -0.039 A 
HETATM   23  C   UNL     1     -19.468  -4.715  -6.576  1.00  0.00     0.009 A 
HETATM   24  C   UNL     1     -19.314  -4.167  -7.853  1.00  0.00     0.001 A 
HETATM   25  C   UNL     1     -20.416  -4.023  -8.696  1.00  0.00     0.016 A 
HETATM   26  C   UNL     1     -21.685  -4.441  -8.279  1.00  0.00     0.048 A 
HETATM   27  C   UNL     1     -21.823  -5.009  -6.999  1.00  0.00     0.025 A 
BRANCH  26  28
HETATM   28  C   UNL     1     -22.893  -4.266  -9.169  1.00  0.00     0.417 C 
HETATM   29  F   UNL     1     -24.048  -4.027  -8.486  1.00  0.00    -0.166 F 
HETATM   30  F   UNL     1     -22.755  -3.230 -10.040  1.00  0.00    -0.166 F 
HETATM   31  F   UNL     1     -23.139  -5.366  -9.937  1.00  0.00    -0.166 F 
ENDBRANCH  26  28
ENDBRANCH  21  22
ENDBRANCH   9  21
TORSDOF 3
ENDMDL
MODEL 4
REMARK VINA RESULT:      -8.5      4.549      5.902
REMARK  3 active torsions:
REMARK  status: ('A' for Active; 'I' for Inactive)
REMARK    1  A    between atoms: N_9  and  C_10 
REMARK    2  A    between atoms: C_10  and  C_11 
REMARK    3  A    between atoms: C_15  and  C_16 
ROOT
HETATM    1  C   UNL     1     -22.511 -11.453  -3.523  1.00  0.00     0.050 C 
HETATM    2  C   UNL     1     -21.298 -11.883  -4.286  1.00  0.00    -0.033 A 
HETATM    3  C   UNL     1     -21.462 -12.905  -5.253  1.00  0.00     0.033 A 
HETATM    4  C   UNL     1     -20.401 -13.344  -6.054  1.00  0.00     0.035 A 
HETATM    5 CL   UNL     1     -20.654 -14.604  -7.198  1.00  0.00    -0.084 Cl
HETATM    6  C   UNL     1     -19.145 -12.767  -5.936  1.00  0.00     0.036 A 
HETATM    7  C   UNL     1     -18.975 -11.778  -4.975  1.00  0.00     0.018 A 
HETATM    8  C   UNL     1     -20.016 -11.360  -4.124  1.00  0.00     0.053 A 
HETATM    9  N   UNL     1     -19.485 -10.440  -3.188  1.00  0.00    -0.310 N 
HETATM   10  C   UNL     1     -18.108 -10.233  -3.404  1.00  0.00     0.268 C 
HETATM   11  O   UNL     1     -17.345  -9.589  -2.694  1.00  0.00    -0.269 OA
HETATM   12  C   UNL     1     -17.722 -11.020  -4.662  1.00  0.00     0.227 A 
HETATM   13  N   UNL     1     -16.562 -11.862  -4.510  1.00  0.00    -0.313 N 
HETATM   14  C   UNL     1     -15.528 -11.442  -5.312  1.00  0.00     0.324 A 
HETATM   15  O   UNL     1     -14.419 -11.941  -5.336  1.00  0.00    -0.247 OA
HETATM   16  N   UNL     1     -15.960 -10.412  -6.078  1.00  0.00    -0.276 N 
HETATM   17  C   UNL     1     -17.251 -10.091  -5.777  1.00  0.00     0.268 A 
HETATM   18  O   UNL     1     -17.897  -9.209  -6.326  1.00  0.00    -0.269 OA
HETATM   19  H   UNL     1     -16.425 -12.559  -3.793  1.00  0.00     0.166 HD
HETATM   20  H   UNL     1     -15.392  -9.941  -6.760  1.00  0.00     0.173 HD
ENDROOT
BRANCH   9  21
HETATM   21  C   UNL     1     -20.121  -9.920  -1.996  1.00  0.00     0.171 C 
BRANCH  21  22
HETATM   22  C   UNL     1     -20.774  -8.557  -2.133  1.00  0.00    -0.039 A 
HETATM   23  C   UNL     1     -21.536  -7.967  -1.117  1.00  0.00     0.009 A 
HETATM   24  C   UNL     1     -22.180  -6.744  -1.324  1.00  0.00     0.001 A 
HETATM   25  C   UNL     1     -22.069  -6.087  -2.550  1.00  0.00     0.016 A 
HETATM   26  C   UNL     1     -21.296  -6.637  -3.579  1.00  0.00     0.048 A 
HETATM   27  C   UNL     1     -20.637  -7.858  -3.351  1.00  0.00     0.025 A 
BRANCH  26  28
HETATM   28  C   UNL     1     -21.188  -5.951  -4.920  1.00  0.00     0.417 C 
HETATM   29  F   UNL     1     -20.568  -4.738  -4.867  1.00  0.00    -0.166 F 
HETATM   30  F   UNL     1     -20.489  -6.685  -5.828  1.00  0.00    -0.166 F 
HETATM   31  F   UNL     1     -22.405  -5.719  -5.488  1.00  0.00    -0.166 F 
ENDBRANCH  26  28
ENDBRANCH  21  22
ENDBRANCH   9  21
TORSDOF 3
ENDMDL
MODEL 5
REMARK VINA RESULT:      -8.4      3.414      5.154
REMARK  3 active torsions:
REMARK  status: ('A' for Active; 'I' for Inactive)
REMARK    1  A    between atoms: N_9  and  C_10 
REMARK    2  A    between atoms: C_10  and  C_11 
REMARK    3  A    between atoms: C_15  and  C_16 
ROOT
HETATM    1  C   UNL     1     -22.254 -11.544  -4.329  1.00  0.00     0.050 C 
HETATM    2  C   UNL     1     -21.271 -12.134  -3.368  1.00  0.00    -0.033 A 
HETATM    3  C   UNL     1     -21.611 -13.368  -2.760  1.00  0.00     0.033 A 
HETATM    4  C   UNL     1     -20.739 -14.028  -1.886  1.00  0.00     0.035 A 
HETATM    5 CL   UNL     1     -21.214 -15.514  -1.161  1.00  0.00    -0.084 Cl
HETATM    6  C   UNL     1     -19.491 -13.495  -1.602  1.00  0.00     0.036 A 
HETATM    7  C   UNL     1     -19.160 -12.275  -2.180  1.00  0.00     0.018 A 
HETATM    8  C   UNL     1     -20.044 -11.570  -3.021  1.00  0.00     0.053 A 
HETATM    9  N   UNL     1     -19.458 -10.321  -3.336  1.00  0.00    -0.310 N 
HETATM   10  C   UNL     1     -18.195 -10.182  -2.726  1.00  0.00     0.268 C 
HETATM   11  O   UNL     1     -17.495  -9.178  -2.712  1.00  0.00    -0.269 OA
HETATM   12  C   UNL     1     -17.884 -11.508  -2.021  1.00  0.00     0.227 A 
HETATM   13  N   UNL     1     -17.461 -11.373  -0.650  1.00  0.00    -0.313 N 
HETATM   14  C   UNL     1     -16.163 -11.791  -0.481  1.00  0.00     0.324 A 
HETATM   15  O   UNL     1     -15.543 -11.732   0.564  1.00  0.00    -0.247 OA
HETATM   16  N   UNL     1     -15.712 -12.298  -1.653  1.00  0.00    -0.276 N 
HETATM   17  C   UNL     1     -16.660 -12.187  -2.628  1.00  0.00     0.268 A 
HETATM   18  O   UNL     1     -16.525 -12.577  -3.779  1.00  0.00    -0.269 OA
HETATM   19  H   UNL     1     -17.955 -10.877   0.077  1.00  0.00     0.166 HD
HETATM   20  H   UNL     1     -14.793 -12.685  -1.782  1.00  0.00     0.173 HD
ENDROOT
BRANCH   9  21
HETATM   21  C   UNL     1     -20.082  -9.185  -3.981  1.00  0.00     0.171 C 
BRANCH  21  22
HETATM   22  C   UNL     1     -20.889  -8.270  -3.079  1.00  0.00    -0.039 A 
HETATM   23  C   UNL     1     -21.199  -6.945  -3.412  1.00  0.00     0.009 A 
HETATM   24  C   UNL     1     -21.879  -6.122  -2.509  1.00  0.00     0.001 A 
HETATM   25  C   UNL     1     -22.264  -6.611  -1.261  1.00  0.00     0.016 A 
HETATM   26  C   UNL     1     -21.991  -7.937  -0.905  1.00  0.00     0.048 A 
HETATM   27  C   UNL     1     -21.324  -8.761  -1.830  1.00  0.00     0.025 A 
BRANCH  26  28
HETATM   28  C   UNL     1     -22.378  -8.473   0.453  1.00  0.00     0.417 C 
HETATM   29  F   UNL     1     -23.713  -8.389   0.714  1.00  0.00    -0.166 F 
HETATM   30  F   UNL     1     -22.049  -9.783   0.611  1.00  0.00    -0.166 F 
HETATM   31  F   UNL     1     -21.760  -7.810   1.471  1.00  0.00    -0.166 F 
ENDBRANCH  26  28
ENDBRANCH  21  22
ENDBRANCH   9  21
TORSDOF 3
ENDMDL
MODEL 6
REMARK VINA RESULT:      -8.1      4.207      5.610
REMARK  3 active torsions:
REMARK  status: ('A' for Active; 'I' for Inactive)
REMARK    1  A    between atoms: N_9  and  C_10 
REMARK    2  A    between atoms: C_10  and  C_11 
REMARK    3  A    between atoms: C_15  and  C_16 
ROOT
HETATM    1  C   UNL     1     -20.297 -12.608   0.469  1.00  0.00     0.050 C 
HETATM    2  C   UNL     1     -19.028 -12.225  -0.225  1.00  0.00    -0.033 A 
HETATM    3  C   UNL     1     -17.821 -12.349   0.505  1.00  0.00     0.033 A 
HETATM    4  C   UNL     1     -16.576 -12.065  -0.069  1.00  0.00     0.035 A 
HETATM    5 CL   UNL     1     -15.144 -12.214   0.873  1.00  0.00    -0.084 Cl
HETATM    6  C   UNL     1     -16.487 -11.667  -1.394  1.00  0.00     0.036 A 
HETATM    7  C   UNL     1     -17.670 -11.524  -2.109  1.00  0.00     0.018 A 
HETATM    8  C   UNL     1     -18.935 -11.755  -1.534  1.00  0.00     0.053 A 
HETATM    9  N   UNL     1     -19.926 -11.403  -2.482  1.00  0.00    -0.310 N 
HETATM   10  C   UNL     1     -19.344 -10.947  -3.682  1.00  0.00     0.268 C 
HETATM   11  O   UNL     1     -19.930 -10.463  -4.642  1.00  0.00    -0.269 OA
HETATM   12  C   UNL     1     -17.826 -11.107  -3.539  1.00  0.00     0.227 A 
HETATM   13  N   UNL     1     -17.065  -9.932  -3.881  1.00  0.00    -0.313 N 
HETATM   14  C   UNL     1     -16.274 -10.149  -4.984  1.00  0.00     0.324 A 
HETATM   15  O   UNL     1     -15.575  -9.308  -5.515  1.00  0.00    -0.247 OA
HETATM   16  N   UNL     1     -16.385 -11.448  -5.351  1.00  0.00    -0.276 N 
HETATM   17  C   UNL     1     -17.274 -12.105  -4.551  1.00  0.00     0.268 A 
HETATM   18  O   UNL     1     -17.555 -13.291  -4.650  1.00  0.00    -0.269 OA
HETATM   19  H   UNL     1     -17.200  -9.006  -3.502  1.00  0.00     0.166 HD
HETATM   20  H   UNL     1     -15.889 -11.859  -6.124  1.00  0.00     0.173 HD
ENDROOT
BRANCH   9  21
HETATM   21  C   UNL     1     -21.351 -11.264  -2.266  1.00  0.00     0.171 C 
BRANCH  21  22
HETATM   22  C   UNL     1     -21.791 -10.023  -1.510  1.00  0.00    -0.039 A 
HETATM   23  C   UNL     1     -22.429 -10.071  -0.265  1.00  0.00     0.009 A 
HETATM   24  C   UNL     1     -22.882  -8.901   0.351  1.00  0.00     0.001 A 
HETATM   25  C   UNL     1     -22.701  -7.663  -0.265  1.00  0.00     0.016 A 
HETATM   26  C   UNL     1     -22.046  -7.577  -1.500  1.00  0.00     0.048 A 
HETATM   27  C   UNL     1     -21.577  -8.760  -2.100  1.00  0.00     0.025 A 
BRANCH  26  28
HETATM   28  C   UNL     1     -21.866  -6.247  -2.192  1.00  0.00     0.417 C 
HETATM   29  F   UNL     1     -21.950  -5.176  -1.353  1.00  0.00    -0.166 F 
HETATM   30  F   UNL     1     -20.660  -6.140  -2.812  1.00  0.00    -0.166 F 
HETATM   31  F   UNL     1     -22.801  -6.032  -3.160  1.00  0.00    -0.166 F 
ENDBRANCH  26  28
ENDBRANCH  21  22
ENDBRANCH   9  21
TORSDOF 3
ENDMDL
MODEL 7
REMARK VINA RESULT:      -8.0      5.335      6.823
REMARK  3 active torsions:
REMARK  status: ('A' for Active; 'I' for Inactive)
REMARK    1  A    between atoms: N_9  and  C_10 
REMARK    2  A    between atoms: C_10  and  C_11 
REMARK    3  A    between atoms: C_15  and  C_16 
ROOT
HETATM    1  C   UNL     1     -21.732 -11.555  -6.771  1.00  0.00     0.050 C 
HETATM    2  C   UNL     1     -20.307 -12.013  -6.787  1.00  0.00    -0.033 A 
HETATM    3  C   UNL     1     -19.932 -12.948  -7.783  1.00  0.00     0.033 A 
HETATM    4  C   UNL     1     -18.613 -13.400  -7.914  1.00  0.00     0.035 A 
HETATM    5 CL   UNL     1     -18.220 -14.551  -9.130  1.00  0.00    -0.084 Cl
HETATM    6  C   UNL     1     -17.619 -12.923  -7.074  1.00  0.00     0.036 A 
HETATM    7  C   UNL     1     -17.986 -12.021  -6.082  1.00  0.00     0.018 A 
HETATM    8  C   UNL     1     -19.316 -11.594  -5.900  1.00  0.00     0.053 A 
HETATM    9  N   UNL     1     -19.369 -10.785  -4.740  1.00  0.00    -0.310 N 
HETATM   10  C   UNL     1     -18.097 -10.659  -4.148  1.00  0.00     0.268 C 
HETATM   11  O   UNL     1     -17.838 -10.124  -3.077  1.00  0.00    -0.269 OA
HETATM   12  C   UNL     1     -17.098 -11.377  -5.063  1.00  0.00     0.227 A 
HETATM   13  N   UNL     1     -16.228 -12.307  -4.388  1.00  0.00    -0.313 N 
HETATM   14  C   UNL     1     -14.916 -11.904  -4.449  1.00  0.00     0.324 A 
HETATM   15  O   UNL     1     -13.986 -12.476  -3.914  1.00  0.00    -0.247 OA
HETATM   16  N   UNL     1     -14.837 -10.793  -5.220  1.00  0.00    -0.276 N 
HETATM   17  C   UNL     1     -16.075 -10.405  -5.641  1.00  0.00     0.268 A 
HETATM   18  O   UNL     1     -16.296  -9.442  -6.362  1.00  0.00    -0.269 OA
HETATM   19  H   UNL     1     -16.520 -13.064  -3.786  1.00  0.00     0.166 HD
HETATM   20  H   UNL     1     -13.978 -10.314  -5.431  1.00  0.00     0.173 HD
ENDROOT
BRANCH   9  21
HETATM   21  C   UNL     1     -20.546 -10.309  -4.043  1.00  0.00     0.171 C 
BRANCH  21  22
HETATM   22  C   UNL     1     -20.736  -8.804  -4.010  1.00  0.00    -0.039 A 
HETATM   23  C   UNL     1     -21.197  -8.115  -2.882  1.00  0.00     0.009 A 
HETATM   24  C   UNL     1     -21.428  -6.737  -2.931  1.00  0.00     0.001 A 
HETATM   25  C   UNL     1     -21.198  -6.025  -4.107  1.00  0.00     0.016 A 
HETATM   26  C   UNL     1     -20.716  -6.678  -5.247  1.00  0.00     0.048 A 
HETATM   27  C   UNL     1     -20.468  -8.062  -5.179  1.00  0.00     0.025 A 
BRANCH  26  28
HETATM   28  C   UNL     1     -20.488  -5.926  -6.537  1.00  0.00     0.417 C 
HETATM   29  F   UNL     1     -21.470  -6.115  -7.463  1.00  0.00    -0.166 F 
HETATM   30  F   UNL     1     -20.407  -4.580  -6.350  1.00  0.00    -0.166 F 
HETATM   31  F   UNL     1     -19.326  -6.285  -7.152  1.00  0.00    -0.166 F 
ENDBRANCH  26  28
ENDBRANCH  21  22
ENDBRANCH   9  21
TORSDOF 3
ENDMDL
MODEL 8
REMARK VINA RESULT:      -7.9      2.742      4.083
REMARK  3 active torsions:
REMARK  status: ('A' for Active; 'I' for Inactive)
REMARK    1  A    between atoms: N_9  and  C_10 
REMARK    2  A    between atoms: C_10  and  C_11 
REMARK    3  A    between atoms: C_15  and  C_16 
ROOT
HETATM    1  C   UNL     1     -18.440 -12.515  -0.109  1.00  0.00     0.050 C 
HETATM    2  C   UNL     1     -18.487 -11.409  -1.116  1.00  0.00    -0.033 A 
HETATM    3  C   UNL     1     -17.324 -11.182  -1.891  1.00  0.00     0.033 A 
HETATM    4  C   UNL     1     -17.282 -10.205  -2.894  1.00  0.00     0.035 A 
HETATM    5 CL   UNL     1     -15.835  -9.960  -3.791  1.00  0.00    -0.084 Cl
HETATM    6  C   UNL     1     -18.401  -9.435  -3.173  1.00  0.00     0.036 A 
HETATM    7  C   UNL     1     -19.538  -9.640  -2.401  1.00  0.00     0.018 A 
HETATM    8  C   UNL     1     -19.583 -10.581  -1.353  1.00  0.00     0.053 A 
HETATM    9  N   UNL     1     -20.829 -10.454  -0.694  1.00  0.00    -0.310 N 
HETATM   10  C   UNL     1     -21.618  -9.448  -1.286  1.00  0.00     0.268 C 
HETATM   11  O   UNL     1     -22.690  -9.022  -0.875  1.00  0.00    -0.269 OA
HETATM   12  C   UNL     1     -20.853  -8.934  -2.511  1.00  0.00     0.227 A 
HETATM   13  N   UNL     1     -20.732  -7.499  -2.583  1.00  0.00    -0.313 N 
HETATM   14  C   UNL     1     -21.404  -6.992  -3.669  1.00  0.00     0.324 A 
HETATM   15  O   UNL     1     -21.508  -5.809  -3.932  1.00  0.00    -0.247 OA
HETATM   16  N   UNL     1     -21.896  -8.022  -4.398  1.00  0.00    -0.276 N 
HETATM   17  C   UNL     1     -21.615  -9.217  -3.802  1.00  0.00     0.268 A 
HETATM   18  O   UNL     1     -21.929 -10.310  -4.251  1.00  0.00    -0.269 OA
HETATM   19  H   UNL     1     -20.368  -6.897  -1.859  1.00  0.00     0.166 HD
HETATM   20  H   UNL     1     -22.415  -7.910  -5.252  1.00  0.00     0.173 HD
ENDROOT
BRANCH   9  21
HETATM   21  C   UNL     1     -21.233 -11.050   0.562  1.00  0.00     0.171 C 
BRANCH  21  22
HETATM   22  C   UNL     1     -22.107 -12.287   0.460  1.00  0.00    -0.039 A 
HETATM   23  C   UNL     1     -22.738 -12.683  -0.725  1.00  0.00     0.009 A 
HETATM   24  C   UNL     1     -23.595 -13.787  -0.744  1.00  0.00     0.001 A 
HETATM   25  C   UNL     1     -23.831 -14.517   0.421  1.00  0.00     0.016 A 
HETATM   26  C   UNL     1     -23.199 -14.162   1.619  1.00  0.00     0.048 A 
HETATM   27  C   UNL     1     -22.323 -13.061   1.620  1.00  0.00     0.025 A 
BRANCH  26  28
HETATM   28  C   UNL     1     -23.465 -14.926   2.894  1.00  0.00     0.417 C 
HETATM   29  F   UNL     1     -23.549 -16.275   2.718  1.00  0.00    -0.166 F 
HETATM   30  F   UNL     1     -22.498 -14.732   3.831  1.00  0.00    -0.166 F 
HETATM   31  F   UNL     1     -24.636 -14.557   3.488  1.00  0.00    -0.166 F 
ENDBRANCH  26  28
ENDBRANCH  21  22
ENDBRANCH   9  21
TORSDOF 3
ENDMDL
MODEL 9
REMARK VINA RESULT:      -7.8      4.481      6.226
REMARK  3 active torsions:
REMARK  status: ('A' for Active; 'I' for Inactive)
REMARK    1  A    between atoms: N_9  and  C_10 
REMARK    2  A    between atoms: C_10  and  C_11 
REMARK    3  A    between atoms: C_15  and  C_16 
ROOT
HETATM    1  C   UNL     1     -23.708 -10.810  -0.118  1.00  0.00     0.050 C 
HETATM    2  C   UNL     1     -23.245 -11.972  -0.939  1.00  0.00    -0.033 A 
HETATM    3  C   UNL     1     -24.090 -13.108  -0.999  1.00  0.00     0.033 A 
HETATM    4  C   UNL     1     -23.772 -14.226  -1.780  1.00  0.00     0.035 A 
HETATM    5 CL   UNL     1     -24.826 -15.585  -1.798  1.00  0.00    -0.084 Cl
HETATM    6  C   UNL     1     -22.615 -14.245  -2.543  1.00  0.00     0.036 A 
HETATM    7  C   UNL     1     -21.773 -13.142  -2.472  1.00  0.00     0.018 A 
HETATM    8  C   UNL     1     -22.049 -12.030  -1.652  1.00  0.00     0.053 A 
HETATM    9  N   UNL     1     -20.944 -11.147  -1.713  1.00  0.00    -0.310 N 
HETATM   10  C   UNL     1     -19.938 -11.648  -2.563  1.00  0.00     0.268 C 
HETATM   11  O   UNL     1     -18.820 -11.177  -2.732  1.00  0.00    -0.269 OA
HETATM   12  C   UNL     1     -20.478 -12.937  -3.195  1.00  0.00     0.227 A 
HETATM   13  N   UNL     1     -19.586 -14.065  -3.109  1.00  0.00    -0.313 N 
HETATM   14  C   UNL     1     -19.164 -14.468  -4.353  1.00  0.00     0.324 A 
HETATM   15  O   UNL     1     -18.365 -15.361  -4.562  1.00  0.00    -0.247 OA
HETATM   16  N   UNL     1     -19.805 -13.730  -5.291  1.00  0.00    -0.276 N 
HETATM   17  C   UNL     1     -20.614 -12.800  -4.708  1.00  0.00     0.268 A 
HETATM   18  O   UNL     1     -21.320 -12.010  -5.318  1.00  0.00    -0.269 OA
HETATM   19  H   UNL     1     -19.162 -14.424  -2.266  1.00  0.00     0.166 HD
HETATM   20  H   UNL     1     -19.678 -13.847  -6.282  1.00  0.00     0.173 HD
ENDROOT
BRANCH   9  21
HETATM   21  C   UNL     1     -20.682  -9.995  -0.876  1.00  0.00     0.171 C 
BRANCH  21  22
HETATM   22  C   UNL     1     -21.150  -8.658  -1.421  1.00  0.00    -0.039 A 
HETATM   23  C   UNL     1     -21.794  -7.694  -0.635  1.00  0.00     0.009 A 
HETATM   24  C   UNL     1     -22.274  -6.512  -1.205  1.00  0.00     0.001 A 
HETATM   25  C   UNL     1     -22.114  -6.271  -2.570  1.00  0.00     0.016 A 
HETATM   26  C   UNL     1     -21.455  -7.202  -3.380  1.00  0.00     0.048 A 
HETATM   27  C   UNL     1     -20.958  -8.379  -2.790  1.00  0.00     0.025 A 
BRANCH  26  28
HETATM   28  C   UNL     1     -21.297  -6.968  -4.863  1.00  0.00     0.417 C 
HETATM   29  F   UNL     1     -22.062  -5.945  -5.341  1.00  0.00    -0.166 F 
HETATM   30  F   UNL     1     -20.016  -6.668  -5.212  1.00  0.00    -0.166 F 
HETATM   31  F   UNL     1     -21.637  -8.060  -5.603  1.00  0.00    -0.166 F 
ENDBRANCH  26  28
ENDBRANCH  21  22
ENDBRANCH   9  21
TORSDOF 3
ENDMDL
