REMARK  10 active torsions:
REMARK  status: ('A' for Active; 'I' for Inactive)
REMARK    1  A    between atoms: C_2  and  O_3 
REMARK    2  A    between atoms: O_3  and  C_4 
REMARK    3  A    between atoms: C_4  and  C_6 
REMARK    4  A    between atoms: C_7  and  C_8 
REMARK    5  A    between atoms: C_17  and  C_18 
REMARK    6  A    between atoms: C_18  and  S_20 
REMARK    7  A    between atoms: S_20  and  C_21 
REMARK    8  A    between atoms: C_21  and  C_22 
REMARK    9  A    between atoms: C_22  and  O_23 
REMARK   10  A    between atoms: C_25  and  C_26 
ROOT
HETATM    1  C   UNL     1       4.736  -2.905  -0.395  1.00  0.00     0.053 A 
HETATM    2  C   UNL     1       5.715  -3.330   0.432  1.00  0.00     0.055 A 
HETATM    3  N   UNL     1       6.095  -4.654   0.460  1.00  0.00    -0.358 N 
HETATM    4  C   UNL     1       5.471  -5.676  -0.229  1.00  0.00     0.017 A 
HETATM    5  C   UNL     1       6.069  -7.043   0.034  1.00  0.00     0.069 C 
HETATM    6  C   UNL     1       4.442  -5.403  -1.070  1.00  0.00     0.030 A 
HETATM    7  C   UNL     1       4.006  -3.925  -1.323  1.00  0.00     0.066 A 
HETATM    8  H   UNL     1       6.847  -4.894   1.099  1.00  0.00     0.166 HD
ENDROOT
BRANCH   6   9
HETATM    9  C   UNL     1       3.729  -6.582  -1.681  1.00  0.00     0.217 C 
HETATM   10  O   UNL     1       3.643  -7.666  -1.112  1.00  0.00    -0.280 OA
BRANCH   9  11
HETATM   11  S   UNL     1       3.015  -6.385  -3.267  1.00  0.00    -0.085 SA
BRANCH  11  12
HETATM   12  C   UNL     1       1.527  -7.452  -3.091  1.00  0.00     0.108 C 
BRANCH  12  13
HETATM   13  C   UNL     1       0.683  -7.348  -1.808  1.00  0.00     0.177 C 
BRANCH  13  14
HETATM   14  O   UNL     1       0.018  -6.089  -1.707  1.00  0.00    -0.395 OA
HETATM   15  C   UNL     1      -0.795  -6.030  -0.535  1.00  0.00     0.201 C 
ENDBRANCH  13  14
ENDBRANCH  12  13
ENDBRANCH  11  12
ENDBRANCH   9  11
ENDBRANCH   6   9
BRANCH   7  16
HETATM   16  C   UNL     1       2.465  -3.739  -1.365  1.00  0.00     0.010 C 
HETATM   17  C   UNL     1       1.751  -3.847  -0.032  1.00  0.00     0.006 C 
ENDBRANCH   7  16
BRANCH   1  18
HETATM   18  C   UNL     1       4.448  -1.439  -0.463  1.00  0.00     0.292 C 
HETATM   19  O   UNL     1       5.281  -0.553  -0.349  1.00  0.00    -0.259 OA
BRANCH  18  20
HETATM   20  O   UNL     1       3.135  -1.220  -0.680  1.00  0.00    -0.318 OA
BRANCH  20  21
HETATM   21  C   UNL     1       2.683   0.137  -0.801  1.00  0.00     0.174 C 
HETATM   22  C   UNL     1       3.126   0.755  -2.113  1.00  0.00     0.034 C 
ENDBRANCH  20  21
ENDBRANCH  18  20
ENDBRANCH   1  18
BRANCH   2  23
HETATM   23  C   UNL     1       6.461  -2.492   1.398  1.00  0.00    -0.009 A 
HETATM   24  C   UNL     1       5.995  -2.381   2.715  1.00  0.00     0.014 A 
HETATM   25  C   UNL     1       6.723  -1.655   3.661  1.00  0.00     0.001 A 
HETATM   26  C   UNL     1       7.917  -1.035   3.295  1.00  0.00     0.000 A 
HETATM   27  C   UNL     1       8.389  -1.145   1.987  1.00  0.00     0.001 A 
HETATM   28  C   UNL     1       7.669  -1.877   1.043  1.00  0.00     0.014 A 
ENDBRANCH   2  23
TORSDOF 10
