MODEL 1
REMARK VINA RESULT:      -6.0      0.000      0.000
REMARK  10 active torsions:
REMARK  status: ('A' for Active; 'I' for Inactive)
REMARK    1  A    between atoms: C_2  and  O_3 
REMARK    2  A    between atoms: O_3  and  C_4 
REMARK    3  A    between atoms: C_4  and  C_6 
REMARK    4  A    between atoms: C_7  and  C_8 
REMARK    5  A    between atoms: C_17  and  C_18 
REMARK    6  A    between atoms: C_18  and  S_20 
REMARK    7  A    between atoms: S_20  and  C_21 
REMARK    8  A    between atoms: C_21  and  C_22 
REMARK    9  A    between atoms: C_22  and  O_23 
REMARK   10  A    between atoms: C_25  and  C_26 
ROOT
HETATM    1  C   UNL     1     -20.009 -10.608  -1.916  1.00  0.00     0.053 A 
HETATM    2  C   UNL     1     -19.657  -9.529  -2.647  1.00  0.00     0.055 A 
HETATM    3  N   UNL     1     -18.352  -9.335  -3.044  1.00  0.00    -0.358 N 
HETATM    4  C   UNL     1     -17.279 -10.116  -2.659  1.00  0.00     0.017 A 
HETATM    5  C   UNL     1     -15.949  -9.635  -3.203  1.00  0.00     0.069 C 
HETATM    6  C   UNL     1     -17.476 -11.215  -1.888  1.00  0.00     0.030 A 
HETATM    7  C   UNL     1     -18.924 -11.647  -1.494  1.00  0.00     0.066 A 
HETATM    8  H   UNL     1     -18.168  -8.507  -3.602  1.00  0.00     0.166 HD
ENDROOT
BRANCH   6   9
HETATM    9  C   UNL     1     -16.246 -11.936  -1.401  1.00  0.00     0.217 C 
HETATM   10  O   UNL     1     -15.604 -11.558  -0.426  1.00  0.00    -0.280 OA
BRANCH   9  11
HETATM   11  S   UNL     1     -15.720 -13.357  -2.279  1.00  0.00    -0.085 SA
BRANCH  11  12
HETATM   12  C   UNL     1     -14.141 -12.736  -2.991  1.00  0.00     0.108 C 
BRANCH  12  13
HETATM   13  C   UNL     1     -13.773 -13.121  -4.435  1.00  0.00     0.177 C 
BRANCH  13  14
HETATM   14  O   UNL     1     -13.729 -11.984  -5.296  1.00  0.00    -0.395 OA
HETATM   15  C   UNL     1     -14.901 -11.908  -6.107  1.00  0.00     0.201 C 
ENDBRANCH  13  14
ENDBRANCH  12  13
ENDBRANCH  11  12
ENDBRANCH   9  11
ENDBRANCH   6   9
BRANCH   7  16
HETATM   16  C   UNL     1     -19.045 -12.111  -0.017  1.00  0.00     0.010 C 
HETATM   17  C   UNL     1     -19.226 -13.601   0.194  1.00  0.00     0.006 C 
ENDBRANCH   7  16
BRANCH   1  18
HETATM   18  C   UNL     1     -21.458 -10.822  -1.615  1.00  0.00     0.292 C 
HETATM   19  O   UNL     1     -22.241 -11.432  -2.326  1.00  0.00    -0.259 OA
BRANCH  18  20
HETATM   20  O   UNL     1     -21.789 -10.257  -0.436  1.00  0.00    -0.318 OA
BRANCH  20  21
HETATM   21  C   UNL     1     -23.111  -9.718  -0.288  1.00  0.00     0.174 C 
HETATM   22  C   UNL     1     -23.088  -8.379   0.424  1.00  0.00     0.034 C 
ENDBRANCH  20  21
ENDBRANCH  18  20
ENDBRANCH   1  18
BRANCH   2  23
HETATM   23  C   UNL     1     -20.562  -8.440  -3.080  1.00  0.00    -0.009 A 
HETATM   24  C   UNL     1     -20.816  -7.371  -2.210  1.00  0.00     0.014 A 
HETATM   25  C   UNL     1     -21.608  -6.298  -2.625  1.00  0.00     0.001 A 
HETATM   26  C   UNL     1     -22.152  -6.289  -3.909  1.00  0.00     0.000 A 
HETATM   27  C   UNL     1     -21.900  -7.348  -4.781  1.00  0.00     0.001 A 
HETATM   28  C   UNL     1     -21.101  -8.416  -4.373  1.00  0.00     0.014 A 
ENDBRANCH   2  23
TORSDOF 10
ENDMDL
MODEL 2
REMARK VINA RESULT:      -6.0      2.307      3.815
REMARK  10 active torsions:
REMARK  status: ('A' for Active; 'I' for Inactive)
REMARK    1  A    between atoms: C_2  and  O_3 
REMARK    2  A    between atoms: O_3  and  C_4 
REMARK    3  A    between atoms: C_4  and  C_6 
REMARK    4  A    between atoms: C_7  and  C_8 
REMARK    5  A    between atoms: C_17  and  C_18 
REMARK    6  A    between atoms: C_18  and  S_20 
REMARK    7  A    between atoms: S_20  and  C_21 
REMARK    8  A    between atoms: C_21  and  C_22 
REMARK    9  A    between atoms: C_22  and  O_23 
REMARK   10  A    between atoms: C_25  and  C_26 
ROOT
HETATM    1  C   UNL     1     -19.859  -9.466  -4.371  1.00  0.00     0.053 A 
HETATM    2  C   UNL     1     -19.555  -9.012  -3.137  1.00  0.00     0.055 A 
HETATM    3  N   UNL     1     -18.264  -9.066  -2.659  1.00  0.00    -0.358 N 
HETATM    4  C   UNL     1     -17.202  -9.671  -3.302  1.00  0.00     0.017 A 
HETATM    5  C   UNL     1     -15.907  -9.627  -2.516  1.00  0.00     0.069 C 
HETATM    6  C   UNL     1     -17.368 -10.208  -4.537  1.00  0.00     0.030 A 
HETATM    7  C   UNL     1     -18.741 -10.080  -5.270  1.00  0.00     0.066 A 
HETATM    8  H   UNL     1     -18.112  -8.693  -1.726  1.00  0.00     0.166 HD
ENDROOT
BRANCH   6   9
HETATM    9  C   UNL     1     -16.200 -10.965  -5.115  1.00  0.00     0.217 C 
HETATM   10  O   UNL     1     -15.472 -10.490  -5.981  1.00  0.00    -0.280 OA
BRANCH   9  11
HETATM   11  S   UNL     1     -15.894 -12.586  -4.528  1.00  0.00    -0.085 SA
BRANCH  11  12
HETATM   12  C   UNL     1     -14.077 -12.693  -4.798  1.00  0.00     0.108 C 
BRANCH  12  13
HETATM   13  C   UNL     1     -13.151 -12.860  -3.579  1.00  0.00     0.177 C 
BRANCH  13  14
HETATM   14  O   UNL     1     -12.705 -14.207  -3.428  1.00  0.00    -0.395 OA
HETATM   15  C   UNL     1     -12.951 -14.685  -2.106  1.00  0.00     0.201 C 
ENDBRANCH  13  14
ENDBRANCH  12  13
ENDBRANCH  11  12
ENDBRANCH   9  11
ENDBRANCH   6   9
BRANCH   7  16
HETATM   16  C   UNL     1     -19.171 -11.381  -6.000  1.00  0.00     0.010 C 
HETATM   17  C   UNL     1     -19.661 -12.506  -5.109  1.00  0.00     0.006 C 
ENDBRANCH   7  16
BRANCH   1  18
HETATM   18  C   UNL     1     -21.254  -9.275  -4.877  1.00  0.00     0.292 C 
HETATM   19  O   UNL     1     -22.255  -9.767  -4.380  1.00  0.00    -0.259 OA
BRANCH  18  20
HETATM   20  O   UNL     1     -21.263  -8.471  -5.959  1.00  0.00    -0.318 OA
BRANCH  20  21
HETATM   21  C   UNL     1     -21.449  -7.062  -5.758  1.00  0.00     0.174 C 
HETATM   22  C   UNL     1     -20.193  -6.282  -6.097  1.00  0.00     0.034 C 
ENDBRANCH  20  21
ENDBRANCH  18  20
ENDBRANCH   1  18
BRANCH   2  23
HETATM   23  C   UNL     1     -20.513  -8.450  -2.157  1.00  0.00    -0.009 A 
HETATM   24  C   UNL     1     -21.008  -7.153  -2.347  1.00  0.00     0.014 A 
HETATM   25  C   UNL     1     -21.968  -6.631  -1.476  1.00  0.00     0.001 A 
HETATM   26  C   UNL     1     -22.434  -7.401  -0.411  1.00  0.00     0.000 A 
HETATM   27  C   UNL     1     -21.949  -8.694  -0.219  1.00  0.00     0.001 A 
HETATM   28  C   UNL     1     -20.998  -9.221  -1.093  1.00  0.00     0.014 A 
ENDBRANCH   2  23
TORSDOF 10
ENDMDL
MODEL 3
REMARK VINA RESULT:      -6.0      1.857      3.681
REMARK  10 active torsions:
REMARK  status: ('A' for Active; 'I' for Inactive)
REMARK    1  A    between atoms: C_2  and  O_3 
REMARK    2  A    between atoms: O_3  and  C_4 
REMARK    3  A    between atoms: C_4  and  C_6 
REMARK    4  A    between atoms: C_7  and  C_8 
REMARK    5  A    between atoms: C_17  and  C_18 
REMARK    6  A    between atoms: C_18  and  S_20 
REMARK    7  A    between atoms: S_20  and  C_21 
REMARK    8  A    between atoms: C_21  and  C_22 
REMARK    9  A    between atoms: C_22  and  O_23 
REMARK   10  A    between atoms: C_25  and  C_26 
ROOT
HETATM    1  C   UNL     1     -19.922  -9.534  -2.911  1.00  0.00     0.053 A 
HETATM    2  C   UNL     1     -20.317 -10.292  -1.866  1.00  0.00     0.055 A 
HETATM    3  N   UNL     1     -19.430 -11.120  -1.215  1.00  0.00    -0.358 N 
HETATM    4  C   UNL     1     -18.126 -11.357  -1.608  1.00  0.00     0.017 A 
HETATM    5  C   UNL     1     -17.399 -12.359  -0.735  1.00  0.00     0.069 C 
HETATM    6  C   UNL     1     -17.603 -10.695  -2.670  1.00  0.00     0.030 A 
HETATM    7  C   UNL     1     -18.444  -9.606  -3.408  1.00  0.00     0.066 A 
HETATM    8  H   UNL     1     -19.799 -11.649  -0.430  1.00  0.00     0.166 HD
ENDROOT
BRANCH   6   9
HETATM    9  C   UNL     1     -16.223 -11.105  -3.117  1.00  0.00     0.217 C 
HETATM   10  O   UNL     1     -15.215 -10.485  -2.793  1.00  0.00    -0.280 OA
BRANCH   9  11
HETATM   11  S   UNL     1     -16.072 -12.511  -4.148  1.00  0.00    -0.085 SA
BRANCH  11  12
HETATM   12  C   UNL     1     -15.103 -11.796  -5.538  1.00  0.00     0.108 C 
BRANCH  12  13
HETATM   13  C   UNL     1     -13.662 -12.286  -5.772  1.00  0.00     0.177 C 
BRANCH  13  14
HETATM   14  O   UNL     1     -13.409 -13.530  -5.120  1.00  0.00    -0.395 OA
HETATM   15  C   UNL     1     -13.327 -14.597  -6.065  1.00  0.00     0.201 C 
ENDBRANCH  13  14
ENDBRANCH  12  13
ENDBRANCH  11  12
ENDBRANCH   9  11
ENDBRANCH   6   9
BRANCH   7  16
HETATM   16  C   UNL     1     -18.307  -9.668  -4.954  1.00  0.00     0.010 C 
HETATM   17  C   UNL     1     -19.039 -10.808  -5.635  1.00  0.00     0.006 C 
ENDBRANCH   7  16
BRANCH   1  18
HETATM   18  C   UNL     1     -20.900  -8.570  -3.502  1.00  0.00     0.292 C 
HETATM   19  O   UNL     1     -21.817  -8.870  -4.252  1.00  0.00    -0.259 OA
BRANCH  18  20
HETATM   20  O   UNL     1     -20.643  -7.313  -3.087  1.00  0.00    -0.318 OA
BRANCH  20  21
HETATM   21  C   UNL     1     -21.736  -6.386  -3.008  1.00  0.00     0.174 C 
HETATM   22  C   UNL     1     -22.285  -6.293  -1.598  1.00  0.00     0.034 C 
ENDBRANCH  20  21
ENDBRANCH  18  20
ENDBRANCH   1  18
BRANCH   2  23
HETATM   23  C   UNL     1     -21.689 -10.364  -1.315  1.00  0.00    -0.009 A 
HETATM   24  C   UNL     1     -22.569 -11.346  -1.790  1.00  0.00     0.014 A 
HETATM   25  C   UNL     1     -23.843 -11.479  -1.233  1.00  0.00     0.001 A 
HETATM   26  C   UNL     1     -24.245 -10.630  -0.202  1.00  0.00     0.000 A 
HETATM   27  C   UNL     1     -23.372  -9.653   0.278  1.00  0.00     0.001 A 
HETATM   28  C   UNL     1     -22.096  -9.525  -0.270  1.00  0.00     0.014 A 
ENDBRANCH   2  23
TORSDOF 10
ENDMDL
MODEL 4
REMARK VINA RESULT:      -6.0      1.604      2.498
REMARK  10 active torsions:
REMARK  status: ('A' for Active; 'I' for Inactive)
REMARK    1  A    between atoms: C_2  and  O_3 
REMARK    2  A    between atoms: O_3  and  C_4 
REMARK    3  A    between atoms: C_4  and  C_6 
REMARK    4  A    between atoms: C_7  and  C_8 
REMARK    5  A    between atoms: C_17  and  C_18 
REMARK    6  A    between atoms: C_18  and  S_20 
REMARK    7  A    between atoms: S_20  and  C_21 
REMARK    8  A    between atoms: C_21  and  C_22 
REMARK    9  A    between atoms: C_22  and  O_23 
REMARK   10  A    between atoms: C_25  and  C_26 
ROOT
HETATM    1  C   UNL     1     -19.960 -10.600  -1.864  1.00  0.00     0.053 A 
HETATM    2  C   UNL     1     -19.605  -9.524  -2.599  1.00  0.00     0.055 A 
HETATM    3  N   UNL     1     -18.288  -9.300  -2.939  1.00  0.00    -0.358 N 
HETATM    4  C   UNL     1     -17.213 -10.042  -2.490  1.00  0.00     0.017 A 
HETATM    5  C   UNL     1     -15.873  -9.534  -2.981  1.00  0.00     0.069 C 
HETATM    6  C   UNL     1     -17.415 -11.132  -1.707  1.00  0.00     0.030 A 
HETATM    7  C   UNL     1     -18.867 -11.599  -1.372  1.00  0.00     0.066 A 
HETATM    8  H   UNL     1     -18.102  -8.478  -3.504  1.00  0.00     0.166 HD
ENDROOT
BRANCH   6   9
HETATM    9  C   UNL     1     -16.189 -11.808  -1.149  1.00  0.00     0.217 C 
HETATM   10  O   UNL     1     -15.600 -11.389  -0.158  1.00  0.00    -0.280 OA
BRANCH   9  11
HETATM   11  S   UNL     1     -15.589 -13.236  -1.966  1.00  0.00    -0.085 SA
BRANCH  11  12
HETATM   12  C   UNL     1     -14.472 -13.910  -0.669  1.00  0.00     0.108 C 
BRANCH  12  13
HETATM   13  C   UNL     1     -15.071 -14.775   0.454  1.00  0.00     0.177 C 
BRANCH  13  14
HETATM   14  O   UNL     1     -14.756 -14.263   1.749  1.00  0.00    -0.395 OA
HETATM   15  C   UNL     1     -15.919 -13.744   2.393  1.00  0.00     0.201 C 
ENDBRANCH  13  14
ENDBRANCH  12  13
ENDBRANCH  11  12
ENDBRANCH   9  11
ENDBRANCH   6   9
BRANCH   7  16
HETATM   16  C   UNL     1     -19.044 -12.038   0.107  1.00  0.00     0.010 C 
HETATM   17  C   UNL     1     -19.237 -13.524   0.335  1.00  0.00     0.006 C 
ENDBRANCH   7  16
BRANCH   1  18
HETATM   18  C   UNL     1     -21.415 -10.850  -1.626  1.00  0.00     0.292 C 
HETATM   19  O   UNL     1     -22.160 -11.444  -2.390  1.00  0.00    -0.259 OA
BRANCH  18  20
HETATM   20  O   UNL     1     -21.799 -10.339  -0.438  1.00  0.00    -0.318 OA
BRANCH  20  21
HETATM   21  C   UNL     1     -23.120  -9.787  -0.331  1.00  0.00     0.174 C 
HETATM   22  C   UNL     1     -23.104  -8.443   0.371  1.00  0.00     0.034 C 
ENDBRANCH  20  21
ENDBRANCH  18  20
ENDBRANCH   1  18
BRANCH   2  23
HETATM   23  C   UNL     1     -20.519  -8.471  -3.095  1.00  0.00    -0.009 A 
HETATM   24  C   UNL     1     -20.839  -7.391  -2.261  1.00  0.00     0.014 A 
HETATM   25  C   UNL     1     -21.641  -6.349  -2.734  1.00  0.00     0.001 A 
HETATM   26  C   UNL     1     -22.128  -6.383  -4.040  1.00  0.00     0.000 A 
HETATM   27  C   UNL     1     -21.810  -7.453  -4.877  1.00  0.00     0.001 A 
HETATM   28  C   UNL     1     -21.002  -8.489  -4.410  1.00  0.00     0.014 A 
ENDBRANCH   2  23
TORSDOF 10
ENDMDL
MODEL 5
REMARK VINA RESULT:      -6.0      2.440      3.926
REMARK  10 active torsions:
REMARK  status: ('A' for Active; 'I' for Inactive)
REMARK    1  A    between atoms: C_2  and  O_3 
REMARK    2  A    between atoms: O_3  and  C_4 
REMARK    3  A    between atoms: C_4  and  C_6 
REMARK    4  A    between atoms: C_7  and  C_8 
REMARK    5  A    between atoms: C_17  and  C_18 
REMARK    6  A    between atoms: C_18  and  S_20 
REMARK    7  A    between atoms: S_20  and  C_21 
REMARK    8  A    between atoms: C_21  and  C_22 
REMARK    9  A    between atoms: C_22  and  O_23 
REMARK   10  A    between atoms: C_25  and  C_26 
ROOT
HETATM    1  C   UNL     1     -19.894  -9.537  -4.259  1.00  0.00     0.053 A 
HETATM    2  C   UNL     1     -19.588  -9.143  -3.004  1.00  0.00     0.055 A 
HETATM    3  N   UNL     1     -18.285  -9.151  -2.556  1.00  0.00    -0.358 N 
HETATM    4  C   UNL     1     -17.205  -9.650  -3.258  1.00  0.00     0.017 A 
HETATM    5  C   UNL     1     -15.897  -9.579  -2.496  1.00  0.00     0.069 C 
HETATM    6  C   UNL     1     -17.369 -10.118  -4.520  1.00  0.00     0.030 A 
HETATM    7  C   UNL     1     -18.764 -10.026  -5.217  1.00  0.00     0.066 A 
HETATM    8  H   UNL     1     -18.134  -8.829  -1.605  1.00  0.00     0.166 HD
ENDROOT
BRANCH   6   9
HETATM    9  C   UNL     1     -16.173 -10.767  -5.168  1.00  0.00     0.217 C 
HETATM   10  O   UNL     1     -15.480 -10.188  -5.999  1.00  0.00    -0.280 OA
BRANCH   9  11
HETATM   11  S   UNL     1     -15.780 -12.413  -4.718  1.00  0.00    -0.085 SA
BRANCH  11  12
HETATM   12  C   UNL     1     -15.592 -13.172  -6.383  1.00  0.00     0.108 C 
BRANCH  12  13
HETATM   13  C   UNL     1     -16.627 -14.213  -6.848  1.00  0.00     0.177 C 
BRANCH  13  14
HETATM   14  O   UNL     1     -17.432 -13.723  -7.919  1.00  0.00    -0.395 OA
HETATM   15  C   UNL     1     -18.219 -14.769  -8.490  1.00  0.00     0.201 C 
ENDBRANCH  13  14
ENDBRANCH  12  13
ENDBRANCH  11  12
ENDBRANCH   9  11
ENDBRANCH   6   9
BRANCH   7  16
HETATM   16  C   UNL     1     -19.134 -11.302  -6.019  1.00  0.00     0.010 C 
HETATM   17  C   UNL     1     -19.537 -12.507  -5.193  1.00  0.00     0.006 C 
ENDBRANCH   7  16
BRANCH   1  18
HETATM   18  C   UNL     1     -21.309  -9.397  -4.724  1.00  0.00     0.292 C 
HETATM   19  O   UNL     1     -22.275  -9.937  -4.207  1.00  0.00    -0.259 OA
BRANCH  18  20
HETATM   20  O   UNL     1     -21.381  -8.579  -5.794  1.00  0.00    -0.318 OA
BRANCH  20  21
HETATM   21  C   UNL     1     -21.067  -7.190  -5.610  1.00  0.00     0.174 C 
HETATM   22  C   UNL     1     -22.292  -6.392  -5.208  1.00  0.00     0.034 C 
ENDBRANCH  20  21
ENDBRANCH  18  20
ENDBRANCH   1  18
BRANCH   2  23
HETATM   23  C   UNL     1     -20.554  -8.701  -1.973  1.00  0.00    -0.009 A 
HETATM   24  C   UNL     1     -21.030  -7.383  -1.996  1.00  0.00     0.014 A 
HETATM   25  C   UNL     1     -21.996  -6.967  -1.077  1.00  0.00     0.001 A 
HETATM   26  C   UNL     1     -22.488  -7.863  -0.129  1.00  0.00     0.000 A 
HETATM   27  C   UNL     1     -22.022  -9.178  -0.103  1.00  0.00     0.001 A 
HETATM   28  C   UNL     1     -21.064  -9.599  -1.025  1.00  0.00     0.014 A 
ENDBRANCH   2  23
TORSDOF 10
ENDMDL
MODEL 6
REMARK VINA RESULT:      -5.9      1.430      1.914
REMARK  10 active torsions:
REMARK  status: ('A' for Active; 'I' for Inactive)
REMARK    1  A    between atoms: C_2  and  O_3 
REMARK    2  A    between atoms: O_3  and  C_4 
REMARK    3  A    between atoms: C_4  and  C_6 
REMARK    4  A    between atoms: C_7  and  C_8 
REMARK    5  A    between atoms: C_17  and  C_18 
REMARK    6  A    between atoms: C_18  and  S_20 
REMARK    7  A    between atoms: S_20  and  C_21 
REMARK    8  A    between atoms: C_21  and  C_22 
REMARK    9  A    between atoms: C_22  and  O_23 
REMARK   10  A    between atoms: C_25  and  C_26 
ROOT
HETATM    1  C   UNL     1     -20.017 -10.899  -2.321  1.00  0.00     0.053 A 
HETATM    2  C   UNL     1     -19.650  -9.600  -2.356  1.00  0.00     0.055 A 
HETATM    3  N   UNL     1     -18.337  -9.239  -2.572  1.00  0.00    -0.358 N 
HETATM    4  C   UNL     1     -17.273 -10.117  -2.652  1.00  0.00     0.017 A 
HETATM    5  C   UNL     1     -15.933  -9.435  -2.838  1.00  0.00     0.069 C 
HETATM    6  C   UNL     1     -17.487 -11.456  -2.592  1.00  0.00     0.030 A 
HETATM    7  C   UNL     1     -18.943 -12.015  -2.508  1.00  0.00     0.066 A 
HETATM    8  H   UNL     1     -18.142  -8.243  -2.597  1.00  0.00     0.166 HD
ENDROOT
BRANCH   6   9
HETATM    9  C   UNL     1     -16.267 -12.340  -2.552  1.00  0.00     0.217 C 
HETATM   10  O   UNL     1     -15.512 -12.376  -1.586  1.00  0.00    -0.280 OA
BRANCH   9  11
HETATM   11  S   UNL     1     -15.922 -13.335  -3.951  1.00  0.00    -0.085 SA
BRANCH  11  12
HETATM   12  C   UNL     1     -14.967 -12.142  -4.974  1.00  0.00     0.108 C 
BRANCH  12  13
HETATM   13  C   UNL     1     -15.695 -11.360  -6.082  1.00  0.00     0.177 C 
BRANCH  13  14
HETATM   14  O   UNL     1     -17.075 -11.716  -6.167  1.00  0.00    -0.395 OA
HETATM   15  C   UNL     1     -17.904 -10.554  -6.194  1.00  0.00     0.201 C 
ENDBRANCH  13  14
ENDBRANCH  12  13
ENDBRANCH  11  12
ENDBRANCH   9  11
ENDBRANCH   6   9
BRANCH   7  16
HETATM   16  C   UNL     1     -19.089 -13.196  -1.511  1.00  0.00     0.010 C 
HETATM   17  C   UNL     1     -18.788 -12.875  -0.060  1.00  0.00     0.006 C 
ENDBRANCH   7  16
BRANCH   1  18
HETATM   18  C   UNL     1     -21.471 -11.225  -2.199  1.00  0.00     0.292 C 
HETATM   19  O   UNL     1     -22.261 -11.272  -3.130  1.00  0.00    -0.259 OA
BRANCH  18  20
HETATM   20  O   UNL     1     -21.799 -11.472  -0.915  1.00  0.00    -0.318 OA
BRANCH  20  21
HETATM   21  C   UNL     1     -23.161 -11.812  -0.614  1.00  0.00     0.174 C 
HETATM   22  C   UNL     1     -23.943 -10.603  -0.139  1.00  0.00     0.034 C 
ENDBRANCH  20  21
ENDBRANCH  18  20
ENDBRANCH   1  18
BRANCH   2  23
HETATM   23  C   UNL     1     -20.544  -8.439  -2.149  1.00  0.00    -0.009 A 
HETATM   24  C   UNL     1     -20.888  -7.633  -3.243  1.00  0.00     0.014 A 
HETATM   25  C   UNL     1     -21.788  -6.576  -3.084  1.00  0.00     0.001 A 
HETATM   26  C   UNL     1     -22.345  -6.318  -1.832  1.00  0.00     0.000 A 
HETATM   27  C   UNL     1     -22.010  -7.119  -0.740  1.00  0.00     0.001 A 
HETATM   28  C   UNL     1     -21.119  -8.180  -0.898  1.00  0.00     0.014 A 
ENDBRANCH   2  23
TORSDOF 10
ENDMDL
MODEL 7
REMARK VINA RESULT:      -5.6      1.625      1.958
REMARK  10 active torsions:
REMARK  status: ('A' for Active; 'I' for Inactive)
REMARK    1  A    between atoms: C_2  and  O_3 
REMARK    2  A    between atoms: O_3  and  C_4 
REMARK    3  A    between atoms: C_4  and  C_6 
REMARK    4  A    between atoms: C_7  and  C_8 
REMARK    5  A    between atoms: C_17  and  C_18 
REMARK    6  A    between atoms: C_18  and  S_20 
REMARK    7  A    between atoms: S_20  and  C_21 
REMARK    8  A    between atoms: C_21  and  C_22 
REMARK    9  A    between atoms: C_22  and  O_23 
REMARK   10  A    between atoms: C_25  and  C_26 
ROOT
HETATM    1  C   UNL     1     -20.112 -10.833  -2.898  1.00  0.00     0.053 A 
HETATM    2  C   UNL     1     -19.761  -9.557  -2.630  1.00  0.00     0.055 A 
HETATM    3  N   UNL     1     -18.441  -9.164  -2.652  1.00  0.00    -0.358 N 
HETATM    4  C   UNL     1     -17.362 -10.010  -2.822  1.00  0.00     0.017 A 
HETATM    5  C   UNL     1     -16.020  -9.310  -2.746  1.00  0.00     0.069 C 
HETATM    6  C   UNL     1     -17.561 -11.330  -3.060  1.00  0.00     0.030 A 
HETATM    7  C   UNL     1     -19.010 -11.889  -3.220  1.00  0.00     0.066 A 
HETATM    8  H   UNL     1     -18.258  -8.185  -2.453  1.00  0.00     0.166 HD
ENDROOT
BRANCH   6   9
HETATM    9  C   UNL     1     -16.336 -12.208  -3.101  1.00  0.00     0.217 C 
HETATM   10  O   UNL     1     -15.814 -12.656  -2.085  1.00  0.00    -0.280 OA
BRANCH   9  11
HETATM   11  S   UNL     1     -15.639 -12.582  -4.663  1.00  0.00    -0.085 SA
BRANCH  11  12
HETATM   12  C   UNL     1     -14.989 -14.271  -4.335  1.00  0.00     0.108 C 
BRANCH  12  13
HETATM   13  C   UNL     1     -13.473 -14.463  -4.147  1.00  0.00     0.177 C 
BRANCH  13  14
HETATM   14  O   UNL     1     -12.944 -15.441  -5.041  1.00  0.00    -0.395 OA
HETATM   15  C   UNL     1     -13.315 -15.159  -6.390  1.00  0.00     0.201 C 
ENDBRANCH  13  14
ENDBRANCH  12  13
ENDBRANCH  11  12
ENDBRANCH   9  11
ENDBRANCH   6   9
BRANCH   7  16
HETATM   16  C   UNL     1     -19.224 -13.252  -2.507  1.00  0.00     0.010 C 
HETATM   17  C   UNL     1     -19.135 -13.225  -0.994  1.00  0.00     0.006 C 
ENDBRANCH   7  16
BRANCH   1  18
HETATM   18  C   UNL     1     -21.567 -11.171  -2.972  1.00  0.00     0.292 C 
HETATM   19  O   UNL     1     -22.256 -11.096  -3.978  1.00  0.00    -0.259 OA
BRANCH  18  20
HETATM   20  O   UNL     1     -22.022 -11.584  -1.771  1.00  0.00    -0.318 OA
BRANCH  20  21
HETATM   21  C   UNL     1     -23.441 -11.608  -1.554  1.00  0.00     0.174 C 
HETATM   22  C   UNL     1     -23.829 -10.807  -0.326  1.00  0.00     0.034 C 
ENDBRANCH  20  21
ENDBRANCH  18  20
ENDBRANCH   1  18
BRANCH   2  23
HETATM   23  C   UNL     1     -20.686  -8.460  -2.263  1.00  0.00    -0.009 A 
HETATM   24  C   UNL     1     -21.150  -8.364  -0.944  1.00  0.00     0.014 A 
HETATM   25  C   UNL     1     -21.965  -7.296  -0.560  1.00  0.00     0.001 A 
HETATM   26  C   UNL     1     -22.322  -6.322  -1.491  1.00  0.00     0.000 A 
HETATM   27  C   UNL     1     -21.860  -6.409  -2.805  1.00  0.00     0.001 A 
HETATM   28  C   UNL     1     -21.039  -7.469  -3.189  1.00  0.00     0.014 A 
ENDBRANCH   2  23
TORSDOF 10
ENDMDL
MODEL 8
REMARK VINA RESULT:      -5.3      3.091      6.271
REMARK  10 active torsions:
REMARK  status: ('A' for Active; 'I' for Inactive)
REMARK    1  A    between atoms: C_2  and  O_3 
REMARK    2  A    between atoms: O_3  and  C_4 
REMARK    3  A    between atoms: C_4  and  C_6 
REMARK    4  A    between atoms: C_7  and  C_8 
REMARK    5  A    between atoms: C_17  and  C_18 
REMARK    6  A    between atoms: C_18  and  S_20 
REMARK    7  A    between atoms: S_20  and  C_21 
REMARK    8  A    between atoms: C_21  and  C_22 
REMARK    9  A    between atoms: C_22  and  O_23 
REMARK   10  A    between atoms: C_25  and  C_26 
ROOT
HETATM    1  C   UNL     1     -20.305  -9.630  -3.715  1.00  0.00     0.053 A 
HETATM    2  C   UNL     1     -19.195 -10.336  -3.408  1.00  0.00     0.055 A 
HETATM    3  N   UNL     1     -19.062 -10.950  -2.182  1.00  0.00    -0.358 N 
HETATM    4  C   UNL     1     -19.946 -10.825  -1.128  1.00  0.00     0.017 A 
HETATM    5  C   UNL     1     -19.517 -11.569   0.120  1.00  0.00     0.069 C 
HETATM    6  C   UNL     1     -21.090 -10.110  -1.278  1.00  0.00     0.030 A 
HETATM    7  C   UNL     1     -21.450  -9.488  -2.665  1.00  0.00     0.066 A 
HETATM    8  H   UNL     1     -18.204 -11.473  -2.030  1.00  0.00     0.166 HD
ENDROOT
BRANCH   6   9
HETATM    9  C   UNL     1     -21.935  -9.909  -0.047  1.00  0.00     0.217 C 
HETATM   10  O   UNL     1     -21.536  -9.285   0.931  1.00  0.00    -0.280 OA
BRANCH   9  11
HETATM   11  S   UNL     1     -23.539 -10.611  -0.023  1.00  0.00    -0.085 SA
BRANCH  11  12
HETATM   12  C   UNL     1     -23.125 -12.360   0.369  1.00  0.00     0.108 C 
BRANCH  12  13
HETATM   13  C   UNL     1     -23.249 -13.421  -0.739  1.00  0.00     0.177 C 
BRANCH  13  14
HETATM   14  O   UNL     1     -23.180 -12.843  -2.043  1.00  0.00    -0.395 OA
HETATM   15  C   UNL     1     -22.095 -13.391  -2.791  1.00  0.00     0.201 C 
ENDBRANCH  13  14
ENDBRANCH  12  13
ENDBRANCH  11  12
ENDBRANCH   9  11
ENDBRANCH   6   9
BRANCH   7  16
HETATM   16  C   UNL     1     -22.027  -8.051  -2.561  1.00  0.00     0.010 C 
HETATM   17  C   UNL     1     -21.088  -7.002  -1.997  1.00  0.00     0.006 C 
ENDBRANCH   7  16
BRANCH   1  18
HETATM   18  C   UNL     1     -20.440  -9.084  -5.100  1.00  0.00     0.292 C 
HETATM   19  O   UNL     1     -20.899  -9.693  -6.054  1.00  0.00    -0.259 OA
BRANCH  18  20
HETATM   20  O   UNL     1     -19.995  -7.812  -5.158  1.00  0.00    -0.318 OA
BRANCH  20  21
HETATM   21  C   UNL     1     -20.823  -6.830  -5.798  1.00  0.00     0.174 C 
HETATM   22  C   UNL     1     -20.176  -5.459  -5.776  1.00  0.00     0.034 C 
ENDBRANCH  20  21
ENDBRANCH  18  20
ENDBRANCH   1  18
BRANCH   2  23
HETATM   23  C   UNL     1     -18.012 -10.517  -4.279  1.00  0.00    -0.009 A 
HETATM   24  C   UNL     1     -16.893  -9.692  -4.100  1.00  0.00     0.014 A 
HETATM   25  C   UNL     1     -15.740  -9.894  -4.862  1.00  0.00     0.001 A 
HETATM   26  C   UNL     1     -15.700 -10.918  -5.808  1.00  0.00     0.000 A 
HETATM   27  C   UNL     1     -16.809 -11.745  -5.988  1.00  0.00     0.001 A 
HETATM   28  C   UNL     1     -17.958 -11.552  -5.222  1.00  0.00     0.014 A 
ENDBRANCH   2  23
TORSDOF 10
ENDMDL
MODEL 9
REMARK VINA RESULT:      -5.1      2.920      7.033
REMARK  10 active torsions:
REMARK  status: ('A' for Active; 'I' for Inactive)
REMARK    1  A    between atoms: C_2  and  O_3 
REMARK    2  A    between atoms: O_3  and  C_4 
REMARK    3  A    between atoms: C_4  and  C_6 
REMARK    4  A    between atoms: C_7  and  C_8 
REMARK    5  A    between atoms: C_17  and  C_18 
REMARK    6  A    between atoms: C_18  and  S_20 
REMARK    7  A    between atoms: S_20  and  C_21 
REMARK    8  A    between atoms: C_21  and  C_22 
REMARK    9  A    between atoms: C_22  and  O_23 
REMARK   10  A    between atoms: C_25  and  C_26 
ROOT
HETATM    1  C   UNL     1     -17.652 -12.407  -1.620  1.00  0.00     0.053 A 
HETATM    2  C   UNL     1     -17.982 -12.506  -0.315  1.00  0.00     0.055 A 
HETATM    3  N   UNL     1     -19.065 -11.824   0.197  1.00  0.00    -0.358 N 
HETATM    4  C   UNL     1     -19.830 -10.908  -0.499  1.00  0.00     0.017 A 
HETATM    5  C   UNL     1     -20.923 -10.269   0.333  1.00  0.00     0.069 C 
HETATM    6  C   UNL     1     -19.587 -10.675  -1.813  1.00  0.00     0.030 A 
HETATM    7  C   UNL     1     -18.491 -11.494  -2.566  1.00  0.00     0.066 A 
HETATM    8  H   UNL     1     -19.257 -11.959   1.185  1.00  0.00     0.166 HD
ENDROOT
BRANCH   6   9
HETATM    9  C   UNL     1     -20.375  -9.568  -2.466  1.00  0.00     0.217 C 
HETATM   10  O   UNL     1     -20.084  -8.384  -2.329  1.00  0.00    -0.280 OA
BRANCH   9  11
HETATM   11  S   UNL     1     -21.761 -10.005  -3.442  1.00  0.00    -0.085 SA
BRANCH  11  12
HETATM   12  C   UNL     1     -21.012  -9.944  -5.121  1.00  0.00     0.108 C 
BRANCH  12  13
HETATM   13  C   UNL     1     -20.556 -11.257  -5.782  1.00  0.00     0.177 C 
BRANCH  13  14
HETATM   14  O   UNL     1     -19.479 -11.048  -6.696  1.00  0.00    -0.395 OA
HETATM   15  C   UNL     1     -18.736 -12.250  -6.897  1.00  0.00     0.201 C 
ENDBRANCH  13  14
ENDBRANCH  12  13
ENDBRANCH  11  12
ENDBRANCH   9  11
ENDBRANCH   6   9
BRANCH   7  16
HETATM   16  C   UNL     1     -17.630 -10.628  -3.525  1.00  0.00     0.010 C 
HETATM   17  C   UNL     1     -16.756  -9.582  -2.863  1.00  0.00     0.006 C 
ENDBRANCH   7  16
BRANCH   1  18
HETATM   18  C   UNL     1     -16.538 -13.260  -2.139  1.00  0.00     0.292 C 
HETATM   19  O   UNL     1     -16.669 -14.386  -2.593  1.00  0.00    -0.259 OA
BRANCH  18  20
HETATM   20  O   UNL     1     -15.359 -12.611  -2.051  1.00  0.00    -0.318 OA
BRANCH  20  21
HETATM   21  C   UNL     1     -14.294 -13.015  -2.924  1.00  0.00     0.174 C 
HETATM   22  C   UNL     1     -14.313 -12.231  -4.222  1.00  0.00     0.034 C 
ENDBRANCH  20  21
ENDBRANCH  18  20
ENDBRANCH   1  18
BRANCH   2  23
HETATM   23  C   UNL     1     -17.255 -13.291   0.708  1.00  0.00    -0.009 A 
HETATM   24  C   UNL     1     -16.196 -12.696   1.407  1.00  0.00     0.014 A 
HETATM   25  C   UNL     1     -15.544 -13.395   2.427  1.00  0.00     0.001 A 
HETATM   26  C   UNL     1     -15.946 -14.690   2.751  1.00  0.00     0.000 A 
HETATM   27  C   UNL     1     -17.003 -15.287   2.062  1.00  0.00     0.001 A 
HETATM   28  C   UNL     1     -17.661 -14.588   1.050  1.00  0.00     0.014 A 
ENDBRANCH   2  23
TORSDOF 10
ENDMDL
