REMARK  4 active torsions:
REMARK  status: ('A' for Active; 'I' for Inactive)
REMARK       I    between atoms: C_2  and  N_3 
REMARK       I    between atoms: C_2  and  N_15 
REMARK    1  A    between atoms: N_3  and  C_4 
REMARK    2  A    between atoms: C_7  and  C_8 
REMARK    3  A    between atoms: N_18  and  C_19 
REMARK    4  A    between atoms: C_25  and  C_26 
ROOT
HETATM    1  O   UNL     1       0.982   0.281   0.054  1.00  0.00    -0.247 OA
HETATM    2  C   UNL     1       2.127  -0.105  -0.159  1.00  0.00     0.324 C 
HETATM    3  N   UNL     1       2.762  -1.084   0.566  1.00  0.00    -0.295 N 
HETATM    4  N   UNL     1       2.911   0.450  -1.149  1.00  0.00    -0.331 N 
HETATM    5  C   UNL     1       2.560   1.762  -1.726  1.00  0.00     0.147 C 
HETATM    6  C   UNL     1       2.623   1.775  -3.269  1.00  0.00     0.144 C 
HETATM    7  N   UNL     1       3.929   1.203  -3.668  1.00  0.00    -0.363 N 
HETATM    8  C   UNL     1       4.049  -0.197  -3.244  1.00  0.00     0.144 C 
HETATM    9  C   UNL     1       4.110  -0.194  -1.705  1.00  0.00     0.147 C 
HETATM   10  H   UNL     1       3.719  -0.874   0.806  1.00  0.00     0.172 HD
ENDROOT
BRANCH   3  11
HETATM   11  C   UNL     1       2.120  -1.810   1.566  1.00  0.00     0.108 A 
HETATM   12  C   UNL     1       0.843  -2.322   1.385  1.00  0.00     0.049 A 
HETATM   13  C   UNL     1       0.249  -3.010   2.438  1.00  0.00     0.021 A 
HETATM   14  C   UNL     1       0.937  -3.149   3.643  1.00  0.00     0.063 A 
HETATM   15  C   UNL     1       2.220  -2.622   3.716  1.00  0.00     0.106 A 
HETATM   16  N   UNL     1       2.839  -1.994   2.690  1.00  0.00    -0.351 N 
ATOM     17  HN  UNL     1       3.805  -1.675   2.764  1.00  0.00     0.166 HD
BRANCH  14  18
HETATM   18  C   UNL     1       0.341  -3.807   4.846  1.00  0.00     0.418 C 
HETATM   19  F   UNL     1      -0.885  -4.353   4.615  1.00  0.00    -0.166 F 
HETATM   20  F   UNL     1       1.116  -4.821   5.320  1.00  0.00    -0.166 F 
HETATM   21  F   UNL     1       0.176  -2.946   5.887  1.00  0.00    -0.166 F 
ENDBRANCH  14  18
ENDBRANCH   3  11
BRANCH   7  22
HETATM   22  C   UNL     1       4.584   1.690  -4.773  1.00  0.00     0.118 A 
HETATM   23  N   UNL     1       3.819   2.357  -5.677  1.00  0.00    -0.352 N 
HETATM   24  C   UNL     1       4.396   2.913  -6.768  1.00  0.00     0.089 A 
ATOM     25  HN  UNL     1       2.812   2.438  -5.534  1.00  0.00     0.166 HD
HETATM   26  C   UNL     1       5.743   2.851  -7.034  1.00  0.00     0.018 A 
HETATM   27  C   UNL     1       6.531   2.186  -6.117  1.00  0.00     0.021 A 
HETATM   28  C   UNL     1       5.967   1.599  -4.958  1.00  0.00     0.091 A 
BRANCH  28  29
HETATM   29  C   UNL     1       6.965   1.002  -4.010  1.00  0.00     0.421 C 
HETATM   30  F   UNL     1       6.518   0.547  -2.813  1.00  0.00    -0.166 F 
HETATM   31  F   UNL     1       7.606  -0.066  -4.573  1.00  0.00    -0.166 F 
HETATM   32  F   UNL     1       7.959   1.883  -3.688  1.00  0.00    -0.166 F 
ENDBRANCH  28  29
ENDBRANCH   7  22
TORSDOF 4
