MODEL 1
REMARK VINA RESULT:      -9.6      0.000      0.000
REMARK  4 active torsions:
REMARK  status: ('A' for Active; 'I' for Inactive)
REMARK       I    between atoms: C_2  and  N_3 
REMARK       I    between atoms: C_2  and  N_15 
REMARK    1  A    between atoms: N_3  and  C_4 
REMARK    2  A    between atoms: C_7  and  C_8 
REMARK    3  A    between atoms: N_18  and  C_19 
REMARK    4  A    between atoms: C_25  and  C_26 
ROOT
HETATM    1  O   UNL     1     -20.313  -4.786  -5.206  1.00  0.00    -0.247 OA
HETATM    2  C   UNL     1     -21.097  -5.721  -5.330  1.00  0.00     0.324 C 
HETATM    3  N   UNL     1     -21.856  -5.952  -6.452  1.00  0.00    -0.295 N 
HETATM    4  N   UNL     1     -21.318  -6.628  -4.314  1.00  0.00    -0.331 N 
HETATM    5  C   UNL     1     -20.927  -6.300  -2.929  1.00  0.00     0.147 C 
HETATM    6  C   UNL     1     -20.169  -7.451  -2.232  1.00  0.00     0.144 C 
HETATM    7  N   UNL     1     -20.961  -8.688  -2.423  1.00  0.00    -0.363 N 
HETATM    8  C   UNL     1     -21.064  -9.039  -3.844  1.00  0.00     0.144 C 
HETATM    9  C   UNL     1     -21.926  -7.951  -4.512  1.00  0.00     0.147 C 
HETATM   10  H   UNL     1     -22.815  -6.204  -6.265  1.00  0.00     0.172 HD
ENDROOT
BRANCH   3  11
HETATM   11  C   UNL     1     -21.732  -5.188  -7.610  1.00  0.00     0.108 A 
HETATM   12  C   UNL     1     -22.773  -4.395  -8.071  1.00  0.00     0.049 A 
HETATM   13  C   UNL     1     -22.592  -3.683  -9.252  1.00  0.00     0.021 A 
HETATM   14  C   UNL     1     -21.388  -3.798  -9.946  1.00  0.00     0.063 A 
HETATM   15  C   UNL     1     -20.398  -4.599  -9.389  1.00  0.00     0.106 A 
HETATM   16  N   UNL     1     -20.531  -5.260  -8.216  1.00  0.00    -0.351 N 
ATOM     17  HN  UNL     1     -19.759  -5.789  -7.811  1.00  0.00     0.166 HD
BRANCH  14  18
HETATM   18  C   UNL     1     -21.141  -3.127 -11.259  1.00  0.00     0.418 C 
HETATM   19  F   UNL     1     -22.007  -2.110 -11.520  1.00  0.00    -0.166 F 
HETATM   20  F   UNL     1     -19.895  -2.584 -11.337  1.00  0.00    -0.166 F 
HETATM   21  F   UNL     1     -21.242  -3.983 -12.312  1.00  0.00    -0.166 F 
ENDBRANCH  14  18
ENDBRANCH   3  11
BRANCH   7  22
HETATM   22  C   UNL     1     -21.002  -9.637  -1.430  1.00  0.00     0.118 A 
HETATM   23  N   UNL     1     -20.192 -10.715  -1.599  1.00  0.00    -0.352 N 
HETATM   24  C   UNL     1     -20.136 -11.671  -0.642  1.00  0.00     0.089 A 
ATOM     25  HN  UNL     1     -19.629 -10.804  -2.444  1.00  0.00     0.166 HD
HETATM   26  C   UNL     1     -20.860 -11.626   0.525  1.00  0.00     0.018 A 
HETATM   27  C   UNL     1     -21.677 -10.530   0.712  1.00  0.00     0.021 A 
HETATM   28  C   UNL     1     -21.757  -9.504  -0.261  1.00  0.00     0.091 A 
BRANCH  28  29
HETATM   29  C   UNL     1     -22.609  -8.333   0.133  1.00  0.00     0.421 C 
HETATM   30  F   UNL     1     -22.938  -7.430  -0.824  1.00  0.00    -0.166 F 
HETATM   31  F   UNL     1     -23.805  -8.743   0.652  1.00  0.00    -0.166 F 
HETATM   32  F   UNL     1     -22.031  -7.586   1.120  1.00  0.00    -0.166 F 
ENDBRANCH  28  29
ENDBRANCH   7  22
TORSDOF 4
ENDMDL
MODEL 2
REMARK VINA RESULT:      -8.0      2.828      4.236
REMARK  4 active torsions:
REMARK  status: ('A' for Active; 'I' for Inactive)
REMARK       I    between atoms: C_2  and  N_3 
REMARK       I    between atoms: C_2  and  N_15 
REMARK    1  A    between atoms: N_3  and  C_4 
REMARK    2  A    between atoms: C_7  and  C_8 
REMARK    3  A    between atoms: N_18  and  C_19 
REMARK    4  A    between atoms: C_25  and  C_26 
ROOT
HETATM    1  O   UNL     1     -20.581  -7.534  -1.979  1.00  0.00    -0.247 OA
HETATM    2  C   UNL     1     -21.070  -8.528  -2.506  1.00  0.00     0.324 C 
HETATM    3  N   UNL     1     -21.527  -8.573  -3.801  1.00  0.00    -0.295 N 
HETATM    4  N   UNL     1     -21.242  -9.709  -1.814  1.00  0.00    -0.331 N 
HETATM    5  C   UNL     1     -21.208  -9.718  -0.339  1.00  0.00     0.147 C 
HETATM    6  C   UNL     1     -20.329 -10.852   0.234  1.00  0.00     0.144 C 
HETATM    7  N   UNL     1     -20.738 -12.112  -0.428  1.00  0.00    -0.363 N 
HETATM    8  C   UNL     1     -20.486 -12.061  -1.873  1.00  0.00     0.144 C 
HETATM    9  C   UNL     1     -21.453 -11.014  -2.458  1.00  0.00     0.147 C 
HETATM   10  H   UNL     1     -22.410  -9.046  -3.918  1.00  0.00     0.172 HD
ENDROOT
BRANCH   3  11
HETATM   11  C   UNL     1     -21.386  -7.504  -4.681  1.00  0.00     0.108 A 
HETATM   12  C   UNL     1     -22.453  -6.673  -4.991  1.00  0.00     0.049 A 
HETATM   13  C   UNL     1     -22.249  -5.644  -5.904  1.00  0.00     0.021 A 
HETATM   14  C   UNL     1     -20.995  -5.486  -6.493  1.00  0.00     0.063 A 
HETATM   15  C   UNL     1     -19.985  -6.354  -6.098  1.00  0.00     0.106 A 
HETATM   16  N   UNL     1     -20.145  -7.330  -5.175  1.00  0.00    -0.351 N 
ATOM     17  HN  UNL     1     -19.362  -7.907  -4.868  1.00  0.00     0.166 HD
BRANCH  14  18
HETATM   18  C   UNL     1     -20.713  -4.454  -7.538  1.00  0.00     0.418 C 
HETATM   19  F   UNL     1     -21.281  -4.734  -8.744  1.00  0.00    -0.166 F 
HETATM   20  F   UNL     1     -21.174  -3.222  -7.187  1.00  0.00    -0.166 F 
HETATM   21  F   UNL     1     -19.383  -4.301  -7.778  1.00  0.00    -0.166 F 
ENDBRANCH  14  18
ENDBRANCH   3  11
BRANCH   7  22
HETATM   22  C   UNL     1     -20.724 -13.293   0.274  1.00  0.00     0.118 A 
HETATM   23  N   UNL     1     -19.517 -13.907   0.390  1.00  0.00    -0.352 N 
HETATM   24  C   UNL     1     -19.408 -15.048   1.110  1.00  0.00     0.089 A 
ATOM     25  HN  UNL     1     -18.696 -13.509  -0.066  1.00  0.00     0.166 HD
HETATM   26  C   UNL     1     -20.464 -15.647   1.754  1.00  0.00     0.018 A 
HETATM   27  C   UNL     1     -21.692 -15.026   1.653  1.00  0.00     0.021 A 
HETATM   28  C   UNL     1     -21.846 -13.826   0.917  1.00  0.00     0.091 A 
BRANCH  28  29
HETATM   29  C   UNL     1     -23.217 -13.221   0.986  1.00  0.00     0.421 C 
HETATM   30  F   UNL     1     -23.343 -11.892   0.746  1.00  0.00    -0.166 F 
HETATM   31  F   UNL     1     -24.068 -13.819   0.099  1.00  0.00    -0.166 F 
HETATM   32  F   UNL     1     -23.797 -13.400   2.211  1.00  0.00    -0.166 F 
ENDBRANCH  28  29
ENDBRANCH   7  22
TORSDOF 4
ENDMDL
MODEL 3
REMARK VINA RESULT:      -8.0      2.166      9.937
REMARK  4 active torsions:
REMARK  status: ('A' for Active; 'I' for Inactive)
REMARK       I    between atoms: C_2  and  N_3 
REMARK       I    between atoms: C_2  and  N_15 
REMARK    1  A    between atoms: N_3  and  C_4 
REMARK    2  A    between atoms: C_7  and  C_8 
REMARK    3  A    between atoms: N_18  and  C_19 
REMARK    4  A    between atoms: C_25  and  C_26 
ROOT
HETATM    1  O   UNL     1     -20.841  -5.778  -3.201  1.00  0.00    -0.247 OA
HETATM    2  C   UNL     1     -20.633  -6.488  -4.179  1.00  0.00     0.324 C 
HETATM    3  N   UNL     1     -20.412  -7.843  -4.121  1.00  0.00    -0.295 N 
HETATM    4  N   UNL     1     -20.564  -5.969  -5.455  1.00  0.00    -0.331 N 
HETATM    5  C   UNL     1     -20.355  -4.522  -5.658  1.00  0.00     0.147 C 
HETATM    6  C   UNL     1     -21.316  -3.918  -6.705  1.00  0.00     0.144 C 
HETATM    7  N   UNL     1     -21.255  -4.772  -7.913  1.00  0.00    -0.363 N 
HETATM    8  C   UNL     1     -21.729  -6.132  -7.628  1.00  0.00     0.144 C 
HETATM    9  C   UNL     1     -20.700  -6.774  -6.678  1.00  0.00     0.147 C 
HETATM   10  H   UNL     1     -19.660  -8.171  -4.707  1.00  0.00     0.172 HD
ENDROOT
BRANCH   3  11
HETATM   11  C   UNL     1     -20.503  -8.566  -2.934  1.00  0.00     0.108 A 
HETATM   12  C   UNL     1     -19.530  -9.485  -2.568  1.00  0.00     0.049 A 
HETATM   13  C   UNL     1     -19.700 -10.195  -1.384  1.00  0.00     0.021 A 
HETATM   14  C   UNL     1     -20.842  -9.981  -0.613  1.00  0.00     0.063 A 
HETATM   15  C   UNL     1     -21.745  -9.021  -1.052  1.00  0.00     0.106 A 
HETATM   16  N   UNL     1     -21.577  -8.282  -2.172  1.00  0.00    -0.351 N 
ATOM     17  HN  UNL     1     -22.233  -7.544  -2.428  1.00  0.00     0.166 HD
BRANCH  14  18
HETATM   18  C   UNL     1     -21.137 -10.756   0.631  1.00  0.00     0.418 C 
HETATM   19  F   UNL     1     -20.419 -11.908   0.737  1.00  0.00    -0.166 F 
HETATM   20  F   UNL     1     -20.868 -10.045   1.761  1.00  0.00    -0.166 F 
HETATM   21  F   UNL     1     -22.445 -11.121   0.724  1.00  0.00    -0.166 F 
ENDBRANCH  14  18
ENDBRANCH   3  11
BRANCH   7  22
HETATM   22  C   UNL     1     -21.364  -4.207  -9.160  1.00  0.00     0.118 A 
HETATM   23  N   UNL     1     -20.220  -4.142  -9.890  1.00  0.00    -0.352 N 
HETATM   24  C   UNL     1     -20.252  -3.647 -11.150  1.00  0.00     0.089 A 
ATOM     25  HN  UNL     1     -19.339  -4.465  -9.490  1.00  0.00     0.166 HD
HETATM   26  C   UNL     1     -21.395  -3.194 -11.763  1.00  0.00     0.018 A 
HETATM   27  C   UNL     1     -22.565  -3.266 -11.035  1.00  0.00     0.021 A 
HETATM   28  C   UNL     1     -22.576  -3.786  -9.718  1.00  0.00     0.091 A 
BRANCH  28  29
HETATM   29  C   UNL     1     -23.938  -3.892  -9.098  1.00  0.00     0.421 C 
HETATM   30  F   UNL     1     -24.020  -3.994  -7.748  1.00  0.00    -0.166 F 
HETATM   31  F   UNL     1     -24.712  -2.811  -9.415  1.00  0.00    -0.166 F 
HETATM   32  F   UNL     1     -24.631  -4.974  -9.563  1.00  0.00    -0.166 F 
ENDBRANCH  28  29
ENDBRANCH   7  22
TORSDOF 4
ENDMDL
MODEL 4
REMARK VINA RESULT:      -7.9      2.105      2.428
REMARK  4 active torsions:
REMARK  status: ('A' for Active; 'I' for Inactive)
REMARK       I    between atoms: C_2  and  N_3 
REMARK       I    between atoms: C_2  and  N_15 
REMARK    1  A    between atoms: N_3  and  C_4 
REMARK    2  A    between atoms: C_7  and  C_8 
REMARK    3  A    between atoms: N_18  and  C_19 
REMARK    4  A    between atoms: C_25  and  C_26 
ROOT
HETATM    1  O   UNL     1     -19.445  -7.539  -6.735  1.00  0.00    -0.247 OA
HETATM    2  C   UNL     1     -20.213  -7.126  -5.872  1.00  0.00     0.324 C 
HETATM    3  N   UNL     1     -21.014  -6.019  -6.012  1.00  0.00    -0.295 N 
HETATM    4  N   UNL     1     -20.317  -7.734  -4.638  1.00  0.00    -0.331 N 
HETATM    5  C   UNL     1     -19.257  -8.647  -4.169  1.00  0.00     0.147 C 
HETATM    6  C   UNL     1     -19.815  -9.961  -3.579  1.00  0.00     0.144 C 
HETATM    7  N   UNL     1     -20.863  -9.601  -2.597  1.00  0.00    -0.363 N 
HETATM    8  C   UNL     1     -21.984  -8.910  -3.245  1.00  0.00     0.144 C 
HETATM    9  C   UNL     1     -21.451  -7.546  -3.722  1.00  0.00     0.147 C 
HETATM   10  H   UNL     1     -21.037  -5.413  -5.206  1.00  0.00     0.172 HD
ENDROOT
BRANCH   3  11
HETATM   11  C   UNL     1     -21.101  -5.304  -7.204  1.00  0.00     0.108 A 
HETATM   12  C   UNL     1     -22.297  -4.742  -7.628  1.00  0.00     0.049 A 
HETATM   13  C   UNL     1     -22.319  -4.069  -8.845  1.00  0.00     0.021 A 
HETATM   14  C   UNL     1     -21.155  -3.995  -9.610  1.00  0.00     0.063 A 
HETATM   15  C   UNL     1     -20.003  -4.569  -9.088  1.00  0.00     0.106 A 
HETATM   16  N   UNL     1     -19.944  -5.183  -7.884  1.00  0.00    -0.351 N 
ATOM     17  HN  UNL     1     -19.065  -5.538  -7.509  1.00  0.00     0.166 HD
BRANCH  14  18
HETATM   18  C   UNL     1     -21.113  -3.357 -10.962  1.00  0.00     0.418 C 
HETATM   19  F   UNL     1     -22.120  -2.465 -11.173  1.00  0.00    -0.166 F 
HETATM   20  F   UNL     1     -19.957  -2.670 -11.175  1.00  0.00    -0.166 F 
HETATM   21  F   UNL     1     -21.200  -4.264 -11.973  1.00  0.00    -0.166 F 
ENDBRANCH  14  18
ENDBRANCH   3  11
BRANCH   7  22
HETATM   22  C   UNL     1     -21.028 -10.355  -1.461  1.00  0.00     0.118 A 
HETATM   23  N   UNL     1     -20.412  -9.893  -0.341  1.00  0.00    -0.352 N 
HETATM   24  C   UNL     1     -20.567 -10.549   0.833  1.00  0.00     0.089 A 
ATOM     25  HN  UNL     1     -19.833  -9.054  -0.385  1.00  0.00     0.166 HD
HETATM   26  C   UNL     1     -21.329 -11.683   0.978  1.00  0.00     0.018 A 
HETATM   27  C   UNL     1     -21.969 -12.155  -0.150  1.00  0.00     0.021 A 
HETATM   28  C   UNL     1     -21.839 -11.492  -1.395  1.00  0.00     0.091 A 
BRANCH  28  29
HETATM   29  C   UNL     1     -22.675 -12.067  -2.500  1.00  0.00     0.421 C 
HETATM   30  F   UNL     1     -22.095 -12.249  -3.712  1.00  0.00    -0.166 F 
HETATM   31  F   UNL     1     -23.168 -13.296  -2.160  1.00  0.00    -0.166 F 
HETATM   32  F   UNL     1     -23.777 -11.303  -2.763  1.00  0.00    -0.166 F 
ENDBRANCH  28  29
ENDBRANCH   7  22
TORSDOF 4
ENDMDL
MODEL 5
REMARK VINA RESULT:      -7.8      2.888      3.802
REMARK  4 active torsions:
REMARK  status: ('A' for Active; 'I' for Inactive)
REMARK       I    between atoms: C_2  and  N_3 
REMARK       I    between atoms: C_2  and  N_15 
REMARK    1  A    between atoms: N_3  and  C_4 
REMARK    2  A    between atoms: C_7  and  C_8 
REMARK    3  A    between atoms: N_18  and  C_19 
REMARK    4  A    between atoms: C_25  and  C_26 
ROOT
HETATM    1  O   UNL     1     -21.200  -9.492  -5.858  1.00  0.00    -0.247 OA
HETATM    2  C   UNL     1     -21.061  -8.973  -4.754  1.00  0.00     0.324 C 
HETATM    3  N   UNL     1     -20.874  -7.628  -4.549  1.00  0.00    -0.295 N 
HETATM    4  N   UNL     1     -21.046  -9.720  -3.595  1.00  0.00    -0.331 N 
HETATM    5  C   UNL     1     -20.810 -11.176  -3.652  1.00  0.00     0.147 C 
HETATM    6  C   UNL     1     -21.808 -11.979  -2.790  1.00  0.00     0.144 C 
HETATM    7  N   UNL     1     -21.833 -11.364  -1.444  1.00  0.00    -0.363 N 
HETATM    8  C   UNL     1     -22.327  -9.983  -1.499  1.00  0.00     0.144 C 
HETATM    9  C   UNL     1     -21.266  -9.159  -2.254  1.00  0.00     0.147 C 
HETATM   10  H   UNL     1     -20.162  -7.403  -3.871  1.00  0.00     0.172 HD
ENDROOT
BRANCH   3  11
HETATM   11  C   UNL     1     -20.921  -6.699  -5.585  1.00  0.00     0.108 A 
HETATM   12  C   UNL     1     -21.960  -5.786  -5.694  1.00  0.00     0.049 A 
HETATM   13  C   UNL     1     -21.960  -4.907  -6.773  1.00  0.00     0.021 A 
HETATM   14  C   UNL     1     -20.937  -4.979  -7.718  1.00  0.00     0.063 A 
HETATM   15  C   UNL     1     -19.930  -5.912  -7.506  1.00  0.00     0.106 A 
HETATM   16  N   UNL     1     -19.880  -6.742  -6.439  1.00  0.00    -0.351 N 
ATOM     17  HN  UNL     1     -19.091  -7.370  -6.288  1.00  0.00     0.166 HD
BRANCH  14  18
HETATM   18  C   UNL     1     -20.904  -4.124  -8.944  1.00  0.00     0.418 C 
HETATM   19  F   UNL     1     -21.986  -3.307  -9.066  1.00  0.00    -0.166 F 
HETATM   20  F   UNL     1     -19.815  -3.307  -8.977  1.00  0.00    -0.166 F 
HETATM   21  F   UNL     1     -20.856  -4.855 -10.092  1.00  0.00    -0.166 F 
ENDBRANCH  14  18
ENDBRANCH   3  11
BRANCH   7  22
HETATM   22  C   UNL     1     -21.993 -12.153  -0.330  1.00  0.00     0.118 A 
HETATM   23  N   UNL     1     -23.270 -12.337   0.095  1.00  0.00    -0.352 N 
HETATM   24  C   UNL     1     -23.518 -13.142   1.154  1.00  0.00     0.089 A 
ATOM     25  HN  UNL     1     -24.041 -11.869  -0.383  1.00  0.00     0.166 HD
HETATM   26  C   UNL     1     -22.539 -13.810   1.851  1.00  0.00     0.018 A 
HETATM   27  C   UNL     1     -21.239 -13.639   1.421  1.00  0.00     0.021 A 
HETATM   28  C   UNL     1     -20.939 -12.812   0.311  1.00  0.00     0.091 A 
BRANCH  28  29
HETATM   29  C   UNL     1     -19.495 -12.809  -0.095  1.00  0.00     0.421 C 
HETATM   30  F   UNL     1     -19.181 -13.229  -1.346  1.00  0.00    -0.166 F 
HETATM   31  F   UNL     1     -18.956 -11.557  -0.001  1.00  0.00    -0.166 F 
HETATM   32  F   UNL     1     -18.729 -13.588   0.726  1.00  0.00    -0.166 F 
ENDBRANCH  28  29
ENDBRANCH   7  22
TORSDOF 4
ENDMDL
MODEL 6
REMARK VINA RESULT:      -7.8      3.279      4.406
REMARK  4 active torsions:
REMARK  status: ('A' for Active; 'I' for Inactive)
REMARK       I    between atoms: C_2  and  N_3 
REMARK       I    between atoms: C_2  and  N_15 
REMARK    1  A    between atoms: N_3  and  C_4 
REMARK    2  A    between atoms: C_7  and  C_8 
REMARK    3  A    between atoms: N_18  and  C_19 
REMARK    4  A    between atoms: C_25  and  C_26 
ROOT
HETATM    1  O   UNL     1     -19.705  -8.889  -3.085  1.00  0.00    -0.247 OA
HETATM    2  C   UNL     1     -20.860  -9.231  -3.317  1.00  0.00     0.324 C 
HETATM    3  N   UNL     1     -21.693  -8.595  -4.205  1.00  0.00    -0.295 N 
HETATM    4  N   UNL     1     -21.451 -10.292  -2.663  1.00  0.00    -0.331 N 
HETATM    5  C   UNL     1     -20.871 -10.807  -1.408  1.00  0.00     0.147 C 
HETATM    6  C   UNL     1     -20.762 -12.347  -1.385  1.00  0.00     0.144 C 
HETATM    7  N   UNL     1     -22.080 -12.894  -1.780  1.00  0.00    -0.363 N 
HETATM    8  C   UNL     1     -22.427 -12.508  -3.152  1.00  0.00     0.144 C 
HETATM    9  C   UNL     1     -22.656 -10.984  -3.143  1.00  0.00     0.147 C 
HETATM   10  H   UNL     1     -22.635  -8.457  -3.871  1.00  0.00     0.172 HD
ENDROOT
BRANCH   3  11
HETATM   11  C   UNL     1     -21.265  -7.542  -5.010  1.00  0.00     0.108 A 
HETATM   12  C   UNL     1     -21.996  -6.368  -5.119  1.00  0.00     0.049 A 
HETATM   13  C   UNL     1     -21.526  -5.370  -5.967  1.00  0.00     0.021 A 
HETATM   14  C   UNL     1     -20.354  -5.581  -6.693  1.00  0.00     0.063 A 
HETATM   15  C   UNL     1     -19.682  -6.780  -6.495  1.00  0.00     0.106 A 
HETATM   16  N   UNL     1     -20.091  -7.744  -5.639  1.00  0.00    -0.351 N 
ATOM     17  HN  UNL     1     -19.537  -8.585  -5.477  1.00  0.00     0.166 HD
BRANCH  14  18
HETATM   18  C   UNL     1     -19.823  -4.592  -7.680  1.00  0.00     0.418 C 
HETATM   19  F   UNL     1     -20.433  -3.376  -7.614  1.00  0.00    -0.166 F 
HETATM   20  F   UNL     1     -18.494  -4.351  -7.509  1.00  0.00    -0.166 F 
HETATM   21  F   UNL     1     -19.963  -5.010  -8.968  1.00  0.00    -0.166 F 
ENDBRANCH  14  18
ENDBRANCH   3  11
BRANCH   7  22
HETATM   22  C   UNL     1     -22.540 -14.056  -1.210  1.00  0.00     0.118 A 
HETATM   23  N   UNL     1     -22.372 -15.190  -1.941  1.00  0.00    -0.352 N 
HETATM   24  C   UNL     1     -22.752 -16.384  -1.429  1.00  0.00     0.089 A 
ATOM     25  HN  UNL     1     -21.961 -15.140  -2.874  1.00  0.00     0.166 HD
HETATM   26  C   UNL     1     -23.310 -16.537  -0.183  1.00  0.00     0.018 A 
HETATM   27  C   UNL     1     -23.476 -15.395   0.573  1.00  0.00     0.021 A 
HETATM   28  C   UNL     1     -23.083 -14.127   0.077  1.00  0.00     0.091 A 
BRANCH  28  29
HETATM   29  C   UNL     1     -23.233 -12.999   1.055  1.00  0.00     0.421 C 
HETATM   30  F   UNL     1     -23.895 -11.886   0.651  1.00  0.00    -0.166 F 
HETATM   31  F   UNL     1     -23.887 -13.405   2.184  1.00  0.00    -0.166 F 
HETATM   32  F   UNL     1     -22.024 -12.534   1.493  1.00  0.00    -0.166 F 
ENDBRANCH  28  29
ENDBRANCH   7  22
TORSDOF 4
ENDMDL
MODEL 7
REMARK VINA RESULT:      -7.7      6.583     10.070
REMARK  4 active torsions:
REMARK  status: ('A' for Active; 'I' for Inactive)
REMARK       I    between atoms: C_2  and  N_3 
REMARK       I    between atoms: C_2  and  N_15 
REMARK    1  A    between atoms: N_3  and  C_4 
REMARK    2  A    between atoms: C_7  and  C_8 
REMARK    3  A    between atoms: N_18  and  C_19 
REMARK    4  A    between atoms: C_25  and  C_26 
ROOT
HETATM    1  O   UNL     1     -20.260 -12.142  -3.789  1.00  0.00    -0.247 OA
HETATM    2  C   UNL     1     -19.125 -11.731  -3.570  1.00  0.00     0.324 C 
HETATM    3  N   UNL     1     -18.833 -10.641  -2.787  1.00  0.00    -0.295 N 
HETATM    4  N   UNL     1     -18.014 -12.323  -4.134  1.00  0.00    -0.331 N 
HETATM    5  C   UNL     1     -18.159 -13.209  -5.305  1.00  0.00     0.147 C 
HETATM    6  C   UNL     1     -17.362 -14.525  -5.165  1.00  0.00     0.144 C 
HETATM    7  N   UNL     1     -15.980 -14.170  -4.768  1.00  0.00    -0.363 N 
HETATM    8  C   UNL     1     -15.955 -13.509  -3.458  1.00  0.00     0.144 C 
HETATM    9  C   UNL     1     -16.643 -12.143  -3.634  1.00  0.00     0.147 C 
HETATM   10  H   UNL     1     -18.133 -10.024  -3.170  1.00  0.00     0.172 HD
ENDROOT
BRANCH   3  11
HETATM   11  C   UNL     1     -19.809  -9.946  -2.078  1.00  0.00     0.108 A 
HETATM   12  C   UNL     1     -20.036  -8.593  -2.290  1.00  0.00     0.049 A 
HETATM   13  C   UNL     1     -21.005  -7.955  -1.524  1.00  0.00     0.021 A 
HETATM   14  C   UNL     1     -21.704  -8.678  -0.558  1.00  0.00     0.063 A 
HETATM   15  C   UNL     1     -21.421 -10.033  -0.439  1.00  0.00     0.106 A 
HETATM   16  N   UNL     1     -20.520 -10.688  -1.207  1.00  0.00    -0.351 N 
ATOM     17  HN  UNL     1     -20.386 -11.696  -1.130  1.00  0.00     0.166 HD
BRANCH  14  18
HETATM   18  C   UNL     1     -22.706  -8.051   0.357  1.00  0.00     0.418 C 
HETATM   19  F   UNL     1     -23.830  -8.802   0.528  1.00  0.00    -0.166 F 
HETATM   20  F   UNL     1     -22.207  -7.840   1.606  1.00  0.00    -0.166 F 
HETATM   21  F   UNL     1     -23.132  -6.837  -0.085  1.00  0.00    -0.166 F 
ENDBRANCH  14  18
ENDBRANCH   3  11
BRANCH   7  22
HETATM   22  C   UNL     1     -14.921 -14.910  -5.233  1.00  0.00     0.118 A 
HETATM   23  N   UNL     1     -15.036 -16.260  -5.118  1.00  0.00    -0.352 N 
HETATM   24  C   UNL     1     -14.058 -17.063  -5.599  1.00  0.00     0.089 A 
ATOM     25  HN  UNL     1     -15.857 -16.666  -4.669  1.00  0.00     0.166 HD
HETATM   26  C   UNL     1     -12.923 -16.597  -6.217  1.00  0.00     0.018 A 
HETATM   27  C   UNL     1     -12.801 -15.229  -6.351  1.00  0.00     0.021 A 
HETATM   28  C   UNL     1     -13.806 -14.355  -5.869  1.00  0.00     0.091 A 
BRANCH  28  29
HETATM   29  C   UNL     1     -13.575 -12.905  -6.179  1.00  0.00     0.421 C 
HETATM   30  F   UNL     1     -13.311 -12.064  -5.148  1.00  0.00    -0.166 F 
HETATM   31  F   UNL     1     -12.526 -12.743  -7.040  1.00  0.00    -0.166 F 
HETATM   32  F   UNL     1     -14.645 -12.339  -6.813  1.00  0.00    -0.166 F 
ENDBRANCH  28  29
ENDBRANCH   7  22
TORSDOF 4
ENDMDL
MODEL 8
REMARK VINA RESULT:      -7.6      3.728      4.809
REMARK  4 active torsions:
REMARK  status: ('A' for Active; 'I' for Inactive)
REMARK       I    between atoms: C_2  and  N_3 
REMARK       I    between atoms: C_2  and  N_15 
REMARK    1  A    between atoms: N_3  and  C_4 
REMARK    2  A    between atoms: C_7  and  C_8 
REMARK    3  A    between atoms: N_18  and  C_19 
REMARK    4  A    between atoms: C_25  and  C_26 
ROOT
HETATM    1  O   UNL     1     -19.211  -9.423  -5.978  1.00  0.00    -0.247 OA
HETATM    2  C   UNL     1     -19.351  -9.051  -4.817  1.00  0.00     0.324 C 
HETATM    3  N   UNL     1     -19.902  -7.847  -4.451  1.00  0.00    -0.295 N 
HETATM    4  N   UNL     1     -18.923  -9.813  -3.750  1.00  0.00    -0.331 N 
HETATM    5  C   UNL     1     -17.952 -10.904  -3.959  1.00  0.00     0.147 C 
HETATM    6  C   UNL     1     -18.358 -12.213  -3.247  1.00  0.00     0.144 C 
HETATM    7  N   UNL     1     -18.684 -11.875  -1.843  1.00  0.00    -0.363 N 
HETATM    8  C   UNL     1     -19.836 -10.969  -1.767  1.00  0.00     0.144 C 
HETATM    9  C   UNL     1     -19.386  -9.624  -2.368  1.00  0.00     0.147 C 
HETATM   10  H   UNL     1     -19.407  -7.365  -3.716  1.00  0.00     0.172 HD
ENDROOT
BRANCH   3  11
HETATM   11  C   UNL     1     -20.451  -6.963  -5.377  1.00  0.00     0.108 A 
HETATM   12  C   UNL     1     -21.700  -6.390  -5.181  1.00  0.00     0.049 A 
HETATM   13  C   UNL     1     -22.201  -5.541  -6.162  1.00  0.00     0.021 A 
HETATM   14  C   UNL     1     -21.453  -5.305  -7.314  1.00  0.00     0.063 A 
HETATM   15  C   UNL     1     -20.204  -5.906  -7.405  1.00  0.00     0.106 A 
HETATM   16  N   UNL     1     -19.673  -6.695  -6.443  1.00  0.00    -0.351 N 
ATOM     17  HN  UNL     1     -18.727  -7.068  -6.520  1.00  0.00     0.166 HD
BRANCH  14  18
HETATM   18  C   UNL     1     -21.952  -4.467  -8.448  1.00  0.00     0.418 C 
HETATM   19  F   UNL     1     -21.914  -3.130  -8.193  1.00  0.00    -0.166 F 
HETATM   20  F   UNL     1     -21.227  -4.650  -9.586  1.00  0.00    -0.166 F 
HETATM   21  F   UNL     1     -23.242  -4.748  -8.779  1.00  0.00    -0.166 F 
ENDBRANCH  14  18
ENDBRANCH   3  11
BRANCH   7  22
HETATM   22  C   UNL     1     -18.383 -12.760  -0.835  1.00  0.00     0.118 A 
HETATM   23  N   UNL     1     -19.356 -13.651  -0.510  1.00  0.00    -0.352 N 
HETATM   24  C   UNL     1     -19.121 -14.589   0.436  1.00  0.00     0.089 A 
ATOM     25  HN  UNL     1     -20.263 -13.612  -0.977  1.00  0.00     0.166 HD
HETATM   26  C   UNL     1     -17.930 -14.711   1.111  1.00  0.00     0.018 A 
HETATM   27  C   UNL     1     -16.931 -13.819   0.781  1.00  0.00     0.021 A 
HETATM   28  C   UNL     1     -17.134 -12.828  -0.211  1.00  0.00     0.091 A 
BRANCH  28  29
HETATM   29  C   UNL     1     -15.922 -12.002  -0.527  1.00  0.00     0.421 C 
HETATM   30  F   UNL     1     -16.099 -10.838  -1.200  1.00  0.00    -0.166 F 
HETATM   31  F   UNL     1     -15.251 -11.651   0.610  1.00  0.00    -0.166 F 
HETATM   32  F   UNL     1     -15.012 -12.692  -1.278  1.00  0.00    -0.166 F 
ENDBRANCH  28  29
ENDBRANCH   7  22
TORSDOF 4
ENDMDL
MODEL 9
REMARK VINA RESULT:      -7.5     17.103     18.520
REMARK  4 active torsions:
REMARK  status: ('A' for Active; 'I' for Inactive)
REMARK       I    between atoms: C_2  and  N_3 
REMARK       I    between atoms: C_2  and  N_15 
REMARK    1  A    between atoms: N_3  and  C_4 
REMARK    2  A    between atoms: C_7  and  C_8 
REMARK    3  A    between atoms: N_18  and  C_19 
REMARK    4  A    between atoms: C_25  and  C_26 
ROOT
HETATM    1  O   UNL     1     -21.530  10.946   1.293  1.00  0.00    -0.247 OA
HETATM    2  C   UNL     1     -21.232   9.903   1.867  1.00  0.00     0.324 C 
HETATM    3  N   UNL     1     -22.028   8.784   1.902  1.00  0.00    -0.295 N 
HETATM    4  N   UNL     1     -20.056   9.772   2.575  1.00  0.00    -0.331 N 
HETATM    5  C   UNL     1     -19.302  10.970   2.993  1.00  0.00     0.147 C 
HETATM    6  C   UNL     1     -17.790  10.860   2.699  1.00  0.00     0.144 C 
HETATM    7  N   UNL     1     -17.323   9.562   3.236  1.00  0.00    -0.363 N 
HETATM    8  C   UNL     1     -17.976   8.438   2.555  1.00  0.00     0.144 C 
HETATM    9  C   UNL     1     -19.464   8.480   2.952  1.00  0.00     0.147 C 
HETATM   10  H   UNL     1     -22.087   8.340   2.806  1.00  0.00     0.172 HD
ENDROOT
BRANCH   3  11
HETATM   11  C   UNL     1     -23.225   8.694   1.197  1.00  0.00     0.108 A 
HETATM   12  C   UNL     1     -23.310   8.002  -0.003  1.00  0.00     0.049 A 
HETATM   13  C   UNL     1     -24.530   7.980  -0.671  1.00  0.00     0.021 A 
HETATM   14  C   UNL     1     -25.620   8.664  -0.133  1.00  0.00     0.063 A 
HETATM   15  C   UNL     1     -25.439   9.306   1.085  1.00  0.00     0.106 A 
HETATM   16  N   UNL     1     -24.278   9.299   1.779  1.00  0.00    -0.351 N 
ATOM     17  HN  UNL     1     -24.203   9.731   2.700  1.00  0.00     0.166 HD
BRANCH  14  18
HETATM   18  C   UNL     1     -26.943   8.753  -0.824  1.00  0.00     0.418 C 
HETATM   19  F   UNL     1     -27.255  10.012  -1.239  1.00  0.00    -0.166 F 
HETATM   20  F   UNL     1     -27.001   7.970  -1.936  1.00  0.00    -0.166 F 
HETATM   21  F   UNL     1     -27.976   8.355  -0.033  1.00  0.00    -0.166 F 
ENDBRANCH  14  18
ENDBRANCH   3  11
BRANCH   7  22
HETATM   22  C   UNL     1     -16.066   9.456   3.779  1.00  0.00     0.118 A 
HETATM   23  N   UNL     1     -15.992   9.514   5.135  1.00  0.00    -0.352 N 
HETATM   24  C   UNL     1     -14.797   9.365   5.752  1.00  0.00     0.089 A 
ATOM     25  HN  UNL     1     -16.837   9.670   5.687  1.00  0.00     0.166 HD
HETATM   26  C   UNL     1     -13.615   9.151   5.085  1.00  0.00     0.018 A 
HETATM   27  C   UNL     1     -13.679   9.078   3.708  1.00  0.00     0.021 A 
HETATM   28  C   UNL     1     -14.912   9.219   3.025  1.00  0.00     0.091 A 
BRANCH  28  29
HETATM   29  C   UNL     1     -14.832   9.016   1.541  1.00  0.00     0.421 C 
HETATM   30  F   UNL     1     -15.476   9.899   0.738  1.00  0.00    -0.166 F 
HETATM   31  F   UNL     1     -13.536   9.029   1.108  1.00  0.00    -0.166 F 
HETATM   32  F   UNL     1     -15.319   7.796   1.163  1.00  0.00    -0.166 F 
ENDBRANCH  28  29
ENDBRANCH   7  22
TORSDOF 4
ENDMDL
