REMARK  3 active torsions:
REMARK  status: ('A' for Active; 'I' for Inactive)
REMARK    1  A    between atoms: N_9  and  C_10 
REMARK    2  A    between atoms: C_10  and  C_11 
REMARK    3  A    between atoms: C_15  and  C_16 
ROOT
HETATM    1  C   UNL     1       1.432   0.480   0.599  1.00  0.00     0.050 C 
HETATM    2  C   UNL     1       2.874   0.179   0.330  1.00  0.00    -0.033 A 
HETATM    3  C   UNL     1       3.769   1.274   0.266  1.00  0.00     0.033 A 
HETATM    4  C   UNL     1       5.145   1.095   0.074  1.00  0.00     0.035 A 
HETATM    5 CL   UNL     1       6.184   2.463  -0.015  1.00  0.00    -0.084 Cl
HETATM    6  C   UNL     1       5.678  -0.179  -0.042  1.00  0.00     0.036 A 
HETATM    7  C   UNL     1       4.800  -1.255  -0.003  1.00  0.00     0.018 A 
HETATM    8  C   UNL     1       3.407  -1.094   0.135  1.00  0.00     0.053 A 
HETATM    9  N   UNL     1       2.799  -2.365   0.014  1.00  0.00    -0.310 N 
HETATM   10  C   UNL     1       3.760  -3.374  -0.202  1.00  0.00     0.268 C 
HETATM   11  O   UNL     1       3.543  -4.549  -0.463  1.00  0.00    -0.269 OA
HETATM   12  C   UNL     1       5.137  -2.710  -0.113  1.00  0.00     0.227 A 
HETATM   13  N   UNL     1       6.024  -3.012  -1.209  1.00  0.00    -0.313 N 
HETATM   14  C   UNL     1       7.134  -3.698  -0.785  1.00  0.00     0.324 A 
HETATM   15  O   UNL     1       8.021  -4.105  -1.512  1.00  0.00    -0.247 OA
HETATM   16  N   UNL     1       7.087  -3.816   0.563  1.00  0.00    -0.276 N 
HETATM   17  C   UNL     1       5.946  -3.258   1.060  1.00  0.00     0.268 A 
HETATM   18  O   UNL     1       5.653  -3.209   2.246  1.00  0.00    -0.269 OA
HETATM   19  H   UNL     1       5.821  -2.884  -2.191  1.00  0.00     0.166 HD
HETATM   20  H   UNL     1       7.795  -4.271   1.114  1.00  0.00     0.173 HD
ENDROOT
BRANCH   9  21
HETATM   21  C   UNL     1       1.387  -2.662  -0.129  1.00  0.00     0.171 C 
BRANCH  21  22
HETATM   22  C   UNL     1       0.719  -3.296   1.078  1.00  0.00    -0.039 A 
HETATM   23  C   UNL     1       1.291  -3.298   2.355  1.00  0.00     0.009 A 
HETATM   24  C   UNL     1       0.664  -3.960   3.416  1.00  0.00     0.001 A 
HETATM   25  C   UNL     1      -0.545  -4.627   3.216  1.00  0.00     0.016 A 
HETATM   26  C   UNL     1      -1.154  -4.626   1.956  1.00  0.00     0.048 A 
HETATM   27  C   UNL     1      -0.524  -3.938   0.901  1.00  0.00     0.025 A 
BRANCH  26  28
HETATM   28  C   UNL     1      -2.448  -5.366   1.717  1.00  0.00     0.417 C 
HETATM   29  F   UNL     1      -2.851  -6.122   2.777  1.00  0.00    -0.166 F 
HETATM   30  F   UNL     1      -3.486  -4.528   1.442  1.00  0.00    -0.166 F 
HETATM   31  F   UNL     1      -2.372  -6.223   0.660  1.00  0.00    -0.166 F 
ENDBRANCH  26  28
ENDBRANCH  21  22
ENDBRANCH   9  21
TORSDOF 3
