MODEL 1
REMARK VINA RESULT:      -8.8      0.000      0.000
REMARK  3 active torsions:
REMARK  status: ('A' for Active; 'I' for Inactive)
REMARK    1  A    between atoms: N_9  and  C_10 
REMARK    2  A    between atoms: C_10  and  C_11 
REMARK    3  A    between atoms: C_15  and  C_16 
ROOT
HETATM    1  C   UNL     1     -21.966  -6.953  -1.382  1.00  0.00     0.050 C 
HETATM    2  C   UNL     1     -21.210  -7.501  -2.552  1.00  0.00    -0.033 A 
HETATM    3  C   UNL     1     -21.341  -6.825  -3.789  1.00  0.00     0.033 A 
HETATM    4  C   UNL     1     -20.633  -7.225  -4.930  1.00  0.00     0.035 A 
HETATM    5 CL   UNL     1     -20.846  -6.378  -6.412  1.00  0.00    -0.084 Cl
HETATM    6  C   UNL     1     -19.758  -8.297  -4.873  1.00  0.00     0.036 A 
HETATM    7  C   UNL     1     -19.643  -8.978  -3.667  1.00  0.00     0.018 A 
HETATM    8  C   UNL     1     -20.387  -8.625  -2.523  1.00  0.00     0.053 A 
HETATM    9  N   UNL     1     -20.131  -9.584  -1.515  1.00  0.00    -0.310 N 
HETATM   10  C   UNL     1     -19.230 -10.571  -1.963  1.00  0.00     0.268 C 
HETATM   11  O   UNL     1     -18.906 -11.591  -1.372  1.00  0.00    -0.269 OA
HETATM   12  C   UNL     1     -18.775 -10.160  -3.367  1.00  0.00     0.227 A 
HETATM   13  N   UNL     1     -18.864 -11.203  -4.359  1.00  0.00    -0.313 N 
HETATM   14  C   UNL     1     -17.628 -11.541  -4.848  1.00  0.00     0.324 A 
HETATM   15  O   UNL     1     -17.418 -12.415  -5.668  1.00  0.00    -0.247 OA
HETATM   16  N   UNL     1     -16.700 -10.725  -4.293  1.00  0.00    -0.276 N 
HETATM   17  C   UNL     1     -17.278  -9.866  -3.405  1.00  0.00     0.268 A 
HETATM   18  O   UNL     1     -16.677  -9.010  -2.771  1.00  0.00    -0.269 OA
HETATM   19  H   UNL     1     -19.690 -11.742  -4.583  1.00  0.00     0.166 HD
HETATM   20  H   UNL     1     -15.717 -10.766  -4.501  1.00  0.00     0.173 HD
ENDROOT
BRANCH   9  21
HETATM   21  C   UNL     1     -20.832  -9.755  -0.257  1.00  0.00     0.171 C 
BRANCH  21  22
HETATM   22  C   UNL     1     -21.978 -10.751  -0.269  1.00  0.00    -0.039 A 
HETATM   23  C   UNL     1     -23.073 -10.646  -1.134  1.00  0.00     0.009 A 
HETATM   24  C   UNL     1     -24.135 -11.552  -1.051  1.00  0.00     0.001 A 
HETATM   25  C   UNL     1     -24.117 -12.578  -0.105  1.00  0.00     0.016 A 
HETATM   26  C   UNL     1     -23.027 -12.723   0.760  1.00  0.00     0.048 A 
HETATM   27  C   UNL     1     -21.954 -11.818   0.654  1.00  0.00     0.025 A 
BRANCH  26  28
HETATM   28  C   UNL     1     -23.005 -13.810   1.808  1.00  0.00     0.417 C 
HETATM   29  F   UNL     1     -21.881 -13.805   2.579  1.00  0.00    -0.166 F 
HETATM   30  F   UNL     1     -24.051 -13.721   2.675  1.00  0.00    -0.166 F 
HETATM   31  F   UNL     1     -23.076 -15.059   1.266  1.00  0.00    -0.166 F 
ENDBRANCH  26  28
ENDBRANCH  21  22
ENDBRANCH   9  21
TORSDOF 3
ENDMDL
MODEL 2
REMARK VINA RESULT:      -8.7      3.593      5.334
REMARK  3 active torsions:
REMARK  status: ('A' for Active; 'I' for Inactive)
REMARK    1  A    between atoms: N_9  and  C_10 
REMARK    2  A    between atoms: C_10  and  C_11 
REMARK    3  A    between atoms: C_15  and  C_16 
ROOT
HETATM    1  C   UNL     1     -16.185  -9.444  -2.694  1.00  0.00     0.050 C 
HETATM    2  C   UNL     1     -16.243 -10.328  -3.902  1.00  0.00    -0.033 A 
HETATM    3  C   UNL     1     -15.024 -10.876  -4.369  1.00  0.00     0.033 A 
HETATM    4  C   UNL     1     -14.977 -11.757  -5.457  1.00  0.00     0.035 A 
HETATM    5 CL   UNL     1     -13.465 -12.377  -5.994  1.00  0.00    -0.084 Cl
HETATM    6  C   UNL     1     -16.143 -12.137  -6.103  1.00  0.00     0.036 A 
HETATM    7  C   UNL     1     -17.338 -11.584  -5.662  1.00  0.00     0.018 A 
HETATM    8  C   UNL     1     -17.401 -10.654  -4.605  1.00  0.00     0.053 A 
HETATM    9  N   UNL     1     -18.735 -10.199  -4.492  1.00  0.00    -0.310 N 
HETATM   10  C   UNL     1     -19.567 -10.808  -5.455  1.00  0.00     0.268 C 
HETATM   11  O   UNL     1     -20.736 -10.537  -5.689  1.00  0.00    -0.269 OA
HETATM   12  C   UNL     1     -18.712 -11.835  -6.202  1.00  0.00     0.227 A 
HETATM   13  N   UNL     1     -18.788 -11.750  -7.640  1.00  0.00    -0.313 N 
HETATM   14  C   UNL     1     -19.330 -12.886  -8.184  1.00  0.00     0.324 A 
HETATM   15  O   UNL     1     -19.539 -13.059  -9.371  1.00  0.00    -0.247 OA
HETATM   16  N   UNL     1     -19.562 -13.779  -7.193  1.00  0.00    -0.276 N 
HETATM   17  C   UNL     1     -19.225 -13.256  -5.980  1.00  0.00     0.268 A 
HETATM   18  O   UNL     1     -19.316 -13.849  -4.914  1.00  0.00    -0.269 OA
HETATM   19  H   UNL     1     -18.613 -10.925  -8.197  1.00  0.00     0.166 HD
HETATM   20  H   UNL     1     -19.948 -14.696  -7.339  1.00  0.00     0.173 HD
ENDROOT
BRANCH   9  21
HETATM   21  C   UNL     1     -19.229  -9.089  -3.701  1.00  0.00     0.171 C 
BRANCH  21  22
HETATM   22  C   UNL     1     -19.807  -9.450  -2.344  1.00  0.00    -0.039 A 
HETATM   23  C   UNL     1     -19.533 -10.658  -1.694  1.00  0.00     0.009 A 
HETATM   24  C   UNL     1     -20.150 -10.968  -0.477  1.00  0.00     0.001 A 
HETATM   25  C   UNL     1     -21.047 -10.074   0.108  1.00  0.00     0.016 A 
HETATM   26  C   UNL     1     -21.326  -8.848  -0.506  1.00  0.00     0.048 A 
HETATM   27  C   UNL     1     -20.682  -8.537  -1.720  1.00  0.00     0.025 A 
BRANCH  26  28
HETATM   28  C   UNL     1     -22.315  -7.881   0.100  1.00  0.00     0.417 C 
HETATM   29  F   UNL     1     -22.515  -6.760  -0.649  1.00  0.00    -0.166 F 
HETATM   30  F   UNL     1     -23.546  -8.436   0.276  1.00  0.00    -0.166 F 
HETATM   31  F   UNL     1     -21.926  -7.439   1.329  1.00  0.00    -0.166 F 
ENDBRANCH  26  28
ENDBRANCH  21  22
ENDBRANCH   9  21
TORSDOF 3
ENDMDL
MODEL 3
REMARK VINA RESULT:      -8.5      4.532      5.876
REMARK  3 active torsions:
REMARK  status: ('A' for Active; 'I' for Inactive)
REMARK    1  A    between atoms: N_9  and  C_10 
REMARK    2  A    between atoms: C_10  and  C_11 
REMARK    3  A    between atoms: C_15  and  C_16 
ROOT
HETATM    1  C   UNL     1     -22.612 -11.336  -3.465  1.00  0.00     0.050 C 
HETATM    2  C   UNL     1     -21.417 -11.812  -4.232  1.00  0.00    -0.033 A 
HETATM    3  C   UNL     1     -21.622 -12.830  -5.195  1.00  0.00     0.033 A 
HETATM    4  C   UNL     1     -20.581 -13.304  -6.003  1.00  0.00     0.035 A 
HETATM    5 CL   UNL     1     -20.883 -14.557  -7.143  1.00  0.00    -0.084 Cl
HETATM    6  C   UNL     1     -19.307 -12.770  -5.893  1.00  0.00     0.036 A 
HETATM    7  C   UNL     1     -19.097 -11.787  -4.934  1.00  0.00     0.018 A 
HETATM    8  C   UNL     1     -20.118 -11.334  -4.074  1.00  0.00     0.053 A 
HETATM    9  N   UNL     1     -19.548 -10.432  -3.146  1.00  0.00    -0.310 N 
HETATM   10  C   UNL     1     -18.165 -10.273  -3.369  1.00  0.00     0.268 C 
HETATM   11  O   UNL     1     -17.375  -9.658  -2.665  1.00  0.00    -0.269 OA
HETATM   12  C   UNL     1     -17.817 -11.072  -4.628  1.00  0.00     0.227 A 
HETATM   13  N   UNL     1     -16.686 -11.954  -4.489  1.00  0.00    -0.313 N 
HETATM   14  C   UNL     1     -15.656 -11.589  -5.319  1.00  0.00     0.324 A 
HETATM   15  O   UNL     1     -14.574 -12.143  -5.372  1.00  0.00    -0.247 OA
HETATM   16  N   UNL     1     -16.056 -10.540  -6.076  1.00  0.00    -0.276 N 
HETATM   17  C   UNL     1     -17.324 -10.160  -5.749  1.00  0.00     0.268 A 
HETATM   18  O   UNL     1     -17.940  -9.249  -6.285  1.00  0.00    -0.269 OA
HETATM   19  H   UNL     1     -16.571 -12.667  -3.782  1.00  0.00     0.166 HD
HETATM   20  H   UNL     1     -15.481 -10.096  -6.772  1.00  0.00     0.173 HD
ENDROOT
BRANCH   9  21
HETATM   21  C   UNL     1     -20.160  -9.888  -1.949  1.00  0.00     0.171 C 
BRANCH  21  22
HETATM   22  C   UNL     1     -20.811  -8.525  -2.100  1.00  0.00    -0.039 A 
HETATM   23  C   UNL     1     -21.581  -7.930  -1.095  1.00  0.00     0.009 A 
HETATM   24  C   UNL     1     -22.217  -6.704  -1.315  1.00  0.00     0.001 A 
HETATM   25  C   UNL     1     -22.089  -6.053  -2.542  1.00  0.00     0.016 A 
HETATM   26  C   UNL     1     -21.308  -6.611  -3.561  1.00  0.00     0.048 A 
HETATM   27  C   UNL     1     -20.656  -7.835  -3.320  1.00  0.00     0.025 A 
BRANCH  26  28
HETATM   28  C   UNL     1     -21.182  -5.932  -4.904  1.00  0.00     0.417 C 
HETATM   29  F   UNL     1     -20.546  -4.728  -4.852  1.00  0.00    -0.166 F 
HETATM   30  F   UNL     1     -20.488  -6.682  -5.805  1.00  0.00    -0.166 F 
HETATM   31  F   UNL     1     -22.393  -5.686  -5.480  1.00  0.00    -0.166 F 
ENDBRANCH  26  28
ENDBRANCH  21  22
ENDBRANCH   9  21
TORSDOF 3
ENDMDL
MODEL 4
REMARK VINA RESULT:      -8.4      3.400      5.141
REMARK  3 active torsions:
REMARK  status: ('A' for Active; 'I' for Inactive)
REMARK    1  A    between atoms: N_9  and  C_10 
REMARK    2  A    between atoms: C_10  and  C_11 
REMARK    3  A    between atoms: C_15  and  C_16 
ROOT
HETATM    1  C   UNL     1     -22.357 -11.472  -4.080  1.00  0.00     0.050 C 
HETATM    2  C   UNL     1     -21.353 -12.059  -3.136  1.00  0.00    -0.033 A 
HETATM    3  C   UNL     1     -21.702 -13.262  -2.476  1.00  0.00     0.033 A 
HETATM    4  C   UNL     1     -20.812 -13.919  -1.617  1.00  0.00     0.035 A 
HETATM    5 CL   UNL     1     -21.296 -15.369  -0.826  1.00  0.00    -0.084 Cl
HETATM    6  C   UNL     1     -19.541 -13.412  -1.399  1.00  0.00     0.036 A 
HETATM    7  C   UNL     1     -19.204 -12.219  -2.027  1.00  0.00     0.018 A 
HETATM    8  C   UNL     1     -20.102 -11.514  -2.852  1.00  0.00     0.053 A 
HETATM    9  N   UNL     1     -19.495 -10.293  -3.227  1.00  0.00    -0.310 N 
HETATM   10  C   UNL     1     -18.207 -10.168  -2.669  1.00  0.00     0.268 C 
HETATM   11  O   UNL     1     -17.482  -9.184  -2.709  1.00  0.00    -0.269 OA
HETATM   12  C   UNL     1     -17.904 -11.481  -1.940  1.00  0.00     0.227 A 
HETATM   13  N   UNL     1     -17.423 -11.323  -0.589  1.00  0.00    -0.313 N 
HETATM   14  C   UNL     1     -16.143 -11.797  -0.452  1.00  0.00     0.324 A 
HETATM   15  O   UNL     1     -15.490 -11.752   0.574  1.00  0.00    -0.247 OA
HETATM   16  N   UNL     1     -15.749 -12.342  -1.627  1.00  0.00    -0.276 N 
HETATM   17  C   UNL     1     -16.722 -12.211  -2.573  1.00  0.00     0.268 A 
HETATM   18  O   UNL     1     -16.641 -12.627  -3.720  1.00  0.00    -0.269 OA
HETATM   19  H   UNL     1     -17.880 -10.804   0.148  1.00  0.00     0.166 HD
HETATM   20  H   UNL     1     -14.850 -12.768  -1.778  1.00  0.00     0.173 HD
ENDROOT
BRANCH   9  21
HETATM   21  C   UNL     1     -20.117  -9.159  -3.883  1.00  0.00     0.171 C 
BRANCH  21  22
HETATM   22  C   UNL     1     -20.919  -8.234  -2.985  1.00  0.00    -0.039 A 
HETATM   23  C   UNL     1     -21.209  -6.907  -3.319  1.00  0.00     0.009 A 
HETATM   24  C   UNL     1     -21.891  -6.078  -2.422  1.00  0.00     0.001 A 
HETATM   25  C   UNL     1     -22.295  -6.566  -1.179  1.00  0.00     0.016 A 
HETATM   26  C   UNL     1     -22.040  -7.895  -0.822  1.00  0.00     0.048 A 
HETATM   27  C   UNL     1     -21.371  -8.725  -1.743  1.00  0.00     0.025 A 
BRANCH  26  28
HETATM   28  C   UNL     1     -22.446  -8.430   0.530  1.00  0.00     0.417 C 
HETATM   29  F   UNL     1     -23.606  -7.895   1.004  1.00  0.00    -0.166 F 
HETATM   30  F   UNL     1     -22.634  -9.779   0.523  1.00  0.00    -0.166 F 
HETATM   31  F   UNL     1     -21.509  -8.190   1.489  1.00  0.00    -0.166 F 
ENDBRANCH  26  28
ENDBRANCH  21  22
ENDBRANCH   9  21
TORSDOF 3
ENDMDL
MODEL 5
REMARK VINA RESULT:      -8.2      3.037      4.214
REMARK  3 active torsions:
REMARK  status: ('A' for Active; 'I' for Inactive)
REMARK    1  A    between atoms: N_9  and  C_10 
REMARK    2  A    between atoms: C_10  and  C_11 
REMARK    3  A    between atoms: C_15  and  C_16 
ROOT
HETATM    1  C   UNL     1     -21.440  -9.243  -4.853  1.00  0.00     0.050 C 
HETATM    2  C   UNL     1     -20.441 -10.288  -5.244  1.00  0.00    -0.033 A 
HETATM    3  C   UNL     1     -20.845 -11.253  -6.197  1.00  0.00     0.033 A 
HETATM    4  C   UNL     1     -19.969 -12.239  -6.670  1.00  0.00     0.035 A 
HETATM    5 CL   UNL     1     -20.519 -13.398  -7.815  1.00  0.00    -0.084 Cl
HETATM    6  C   UNL     1     -18.657 -12.285  -6.223  1.00  0.00     0.036 A 
HETATM    7  C   UNL     1     -18.264 -11.354  -5.270  1.00  0.00     0.018 A 
HETATM    8  C   UNL     1     -19.145 -10.389  -4.742  1.00  0.00     0.053 A 
HETATM    9  N   UNL     1     -18.471  -9.687  -3.716  1.00  0.00    -0.310 N 
HETATM   10  C   UNL     1     -17.155 -10.165  -3.547  1.00  0.00     0.268 C 
HETATM   11  O   UNL     1     -16.367  -9.846  -2.668  1.00  0.00    -0.269 OA
HETATM   12  C   UNL     1     -16.914 -11.212  -4.638  1.00  0.00     0.227 A 
HETATM   13  N   UNL     1     -16.368 -12.460  -4.165  1.00  0.00    -0.313 N 
HETATM   14  C   UNL     1     -15.119 -12.693  -4.684  1.00  0.00     0.324 A 
HETATM   15  O   UNL     1     -14.423 -13.656  -4.419  1.00  0.00    -0.247 OA
HETATM   16  N   UNL     1     -14.813 -11.699  -5.550  1.00  0.00    -0.276 N 
HETATM   17  C   UNL     1     -15.813 -10.773  -5.600  1.00  0.00     0.268 A 
HETATM   18  O   UNL     1     -15.807  -9.778  -6.311  1.00  0.00    -0.269 OA
HETATM   19  H   UNL     1     -16.757 -13.041  -3.435  1.00  0.00     0.166 HD
HETATM   20  H   UNL     1     -13.953 -11.649  -6.070  1.00  0.00     0.173 HD
ENDROOT
BRANCH   9  21
HETATM   21  C   UNL     1     -19.039  -8.765  -2.752  1.00  0.00     0.171 C 
BRANCH  21  22
HETATM   22  C   UNL     1     -19.910  -9.387  -1.675  1.00  0.00    -0.039 A 
HETATM   23  C   UNL     1     -19.787 -10.720  -1.267  1.00  0.00     0.009 A 
HETATM   24  C   UNL     1     -20.664 -11.260  -0.321  1.00  0.00     0.001 A 
HETATM   25  C   UNL     1     -21.676 -10.475   0.233  1.00  0.00     0.016 A 
HETATM   26  C   UNL     1     -21.813  -9.133  -0.138  1.00  0.00     0.048 A 
HETATM   27  C   UNL     1     -20.910  -8.594  -1.075  1.00  0.00     0.025 A 
BRANCH  26  28
HETATM   28  C   UNL     1     -22.919  -8.278   0.432  1.00  0.00     0.417 C 
HETATM   29  F   UNL     1     -24.115  -8.924   0.533  1.00  0.00    -0.166 F 
HETATM   30  F   UNL     1     -22.636  -7.822   1.684  1.00  0.00    -0.166 F 
HETATM   31  F   UNL     1     -23.162  -7.168  -0.321  1.00  0.00    -0.166 F 
ENDBRANCH  26  28
ENDBRANCH  21  22
ENDBRANCH   9  21
TORSDOF 3
ENDMDL
MODEL 6
REMARK VINA RESULT:      -8.0      3.762      5.502
REMARK  3 active torsions:
REMARK  status: ('A' for Active; 'I' for Inactive)
REMARK    1  A    between atoms: N_9  and  C_10 
REMARK    2  A    between atoms: C_10  and  C_11 
REMARK    3  A    between atoms: C_15  and  C_16 
ROOT
HETATM    1  C   UNL     1     -21.656 -12.006  -6.761  1.00  0.00     0.050 C 
HETATM    2  C   UNL     1     -20.212 -12.384  -6.874  1.00  0.00    -0.033 A 
HETATM    3  C   UNL     1     -19.814 -13.111  -8.022  1.00  0.00     0.033 A 
HETATM    4  C   UNL     1     -18.478 -13.465  -8.248  1.00  0.00     0.035 A 
HETATM    5 CL   UNL     1     -18.054 -14.365  -9.651  1.00  0.00    -0.084 Cl
HETATM    6  C   UNL     1     -17.491 -13.091  -7.349  1.00  0.00     0.036 A 
HETATM    7  C   UNL     1     -17.880 -12.398  -6.210  1.00  0.00     0.018 A 
HETATM    8  C   UNL     1     -19.225 -12.080  -5.937  1.00  0.00     0.053 A 
HETATM    9  N   UNL     1     -19.290 -11.491  -4.653  1.00  0.00    -0.310 N 
HETATM   10  C   UNL     1     -18.013 -11.408  -4.062  1.00  0.00     0.268 C 
HETATM   11  O   UNL     1     -17.756 -11.060  -2.918  1.00  0.00    -0.269 OA
HETATM   12  C   UNL     1     -17.003 -11.900  -5.103  1.00  0.00     0.227 A 
HETATM   13  N   UNL     1     -16.072 -12.889  -4.619  1.00  0.00    -0.313 N 
HETATM   14  C   UNL     1     -14.781 -12.425  -4.653  1.00  0.00     0.324 A 
HETATM   15  O   UNL     1     -13.808 -13.045  -4.268  1.00  0.00    -0.247 OA
HETATM   16  N   UNL     1     -14.774 -11.190  -5.208  1.00  0.00    -0.276 N 
HETATM   17  C   UNL     1     -16.041 -10.789  -5.516  1.00  0.00     0.268 A 
HETATM   18  O   UNL     1     -16.326  -9.722  -6.042  1.00  0.00    -0.269 OA
HETATM   19  H   UNL     1     -16.312 -13.761  -4.169  1.00  0.00     0.166 HD
HETATM   20  H   UNL     1     -13.943 -10.642  -5.355  1.00  0.00     0.173 HD
ENDROOT
BRANCH   9  21
HETATM   21  C   UNL     1     -20.476 -11.205  -3.868  1.00  0.00     0.171 C 
BRANCH  21  22
HETATM   22  C   UNL     1     -20.803  -9.735  -3.675  1.00  0.00    -0.039 A 
HETATM   23  C   UNL     1     -20.604  -8.771  -4.669  1.00  0.00     0.009 A 
HETATM   24  C   UNL     1     -20.856  -7.419  -4.411  1.00  0.00     0.001 A 
HETATM   25  C   UNL     1     -21.312  -7.013  -3.156  1.00  0.00     0.016 A 
HETATM   26  C   UNL     1     -21.541  -7.955  -2.147  1.00  0.00     0.048 A 
HETATM   27  C   UNL     1     -21.304  -9.315  -2.426  1.00  0.00     0.025 A 
BRANCH  26  28
HETATM   28  C   UNL     1     -22.008  -7.528  -0.777  1.00  0.00     0.417 C 
HETATM   29  F   UNL     1     -23.138  -8.166  -0.359  1.00  0.00    -0.166 F 
HETATM   30  F   UNL     1     -21.074  -7.757   0.188  1.00  0.00    -0.166 F 
HETATM   31  F   UNL     1     -22.291  -6.197  -0.712  1.00  0.00    -0.166 F 
ENDBRANCH  26  28
ENDBRANCH  21  22
ENDBRANCH   9  21
TORSDOF 3
ENDMDL
MODEL 7
REMARK VINA RESULT:      -7.9      4.983      6.427
REMARK  3 active torsions:
REMARK  status: ('A' for Active; 'I' for Inactive)
REMARK    1  A    between atoms: N_9  and  C_10 
REMARK    2  A    between atoms: C_10  and  C_11 
REMARK    3  A    between atoms: C_15  and  C_16 
ROOT
HETATM    1  C   UNL     1     -21.951 -11.580  -6.518  1.00  0.00     0.050 C 
HETATM    2  C   UNL     1     -20.516 -11.986  -6.647  1.00  0.00    -0.033 A 
HETATM    3  C   UNL     1     -20.166 -12.807  -7.746  1.00  0.00     0.033 A 
HETATM    4  C   UNL     1     -18.842 -13.196  -7.987  1.00  0.00     0.035 A 
HETATM    5 CL   UNL     1     -18.477 -14.212  -9.327  1.00  0.00    -0.084 Cl
HETATM    6  C   UNL     1     -17.821 -12.766  -7.155  1.00  0.00     0.036 A 
HETATM    7  C   UNL     1     -18.163 -11.979  -6.063  1.00  0.00     0.018 A 
HETATM    8  C   UNL     1     -19.494 -11.621  -5.771  1.00  0.00     0.053 A 
HETATM    9  N   UNL     1     -19.509 -10.930  -4.538  1.00  0.00    -0.310 N 
HETATM   10  C   UNL     1     -18.211 -10.818  -3.998  1.00  0.00     0.268 C 
HETATM   11  O   UNL     1     -17.911 -10.383  -2.895  1.00  0.00    -0.269 OA
HETATM   12  C   UNL     1     -17.243 -11.406  -5.029  1.00  0.00     0.227 A 
HETATM   13  N   UNL     1     -16.307 -12.366  -4.499  1.00  0.00    -0.313 N 
HETATM   14  C   UNL     1     -15.013 -11.924  -4.613  1.00  0.00     0.324 A 
HETATM   15  O   UNL     1     -14.034 -12.525  -4.211  1.00  0.00    -0.247 OA
HETATM   16  N   UNL     1     -15.011 -10.738  -5.265  1.00  0.00    -0.276 N 
HETATM   17  C   UNL     1     -16.283 -10.345  -5.562  1.00  0.00     0.268 A 
HETATM   18  O   UNL     1     -16.575  -9.320  -6.162  1.00  0.00    -0.269 OA
HETATM   19  H   UNL     1     -16.541 -13.196  -3.972  1.00  0.00     0.166 HD
HETATM   20  H   UNL     1     -14.180 -10.215  -5.483  1.00  0.00     0.173 HD
ENDROOT
BRANCH   9  21
HETATM   21  C   UNL     1     -20.663 -10.566  -3.739  1.00  0.00     0.171 C 
BRANCH  21  22
HETATM   22  C   UNL     1     -20.879  -9.079  -3.528  1.00  0.00    -0.039 A 
HETATM   23  C   UNL     1     -20.995  -8.495  -2.261  1.00  0.00     0.009 A 
HETATM   24  C   UNL     1     -21.265  -7.129  -2.128  1.00  0.00     0.001 A 
HETATM   25  C   UNL     1     -21.420  -6.326  -3.258  1.00  0.00     0.016 A 
HETATM   26  C   UNL     1     -21.289  -6.875  -4.539  1.00  0.00     0.048 A 
HETATM   27  C   UNL     1     -20.996  -8.247  -4.661  1.00  0.00     0.025 A 
BRANCH  26  28
HETATM   28  C   UNL     1     -21.481  -6.025  -5.772  1.00  0.00     0.417 C 
HETATM   29  F   UNL     1     -21.200  -6.676  -6.936  1.00  0.00    -0.166 F 
HETATM   30  F   UNL     1     -22.759  -5.571  -5.900  1.00  0.00    -0.166 F 
HETATM   31  F   UNL     1     -20.691  -4.915  -5.770  1.00  0.00    -0.166 F 
ENDBRANCH  26  28
ENDBRANCH  21  22
ENDBRANCH   9  21
TORSDOF 3
ENDMDL
MODEL 8
REMARK VINA RESULT:      -7.9      4.376      6.134
REMARK  3 active torsions:
REMARK  status: ('A' for Active; 'I' for Inactive)
REMARK    1  A    between atoms: N_9  and  C_10 
REMARK    2  A    between atoms: C_10  and  C_11 
REMARK    3  A    between atoms: C_15  and  C_16 
ROOT
HETATM    1  C   UNL     1     -24.027 -10.769  -0.253  1.00  0.00     0.050 C 
HETATM    2  C   UNL     1     -23.340 -11.975  -0.816  1.00  0.00    -0.033 A 
HETATM    3  C   UNL     1     -24.117 -13.145  -0.995  1.00  0.00     0.033 A 
HETATM    4  C   UNL     1     -23.583 -14.308  -1.565  1.00  0.00     0.035 A 
HETATM    5 CL   UNL     1     -24.567 -15.708  -1.741  1.00  0.00    -0.084 Cl
HETATM    6  C   UNL     1     -22.265 -14.339  -1.993  1.00  0.00     0.036 A 
HETATM    7  C   UNL     1     -21.493 -13.200  -1.798  1.00  0.00     0.018 A 
HETATM    8  C   UNL     1     -21.996 -12.039  -1.178  1.00  0.00     0.053 A 
HETATM    9  N   UNL     1     -20.931 -11.121  -1.024  1.00  0.00    -0.310 N 
HETATM   10  C   UNL     1     -19.725 -11.647  -1.532  1.00  0.00     0.268 C 
HETATM   11  O   UNL     1     -18.612 -11.148  -1.439  1.00  0.00    -0.269 OA
HETATM   12  C   UNL     1     -20.056 -12.999  -2.169  1.00  0.00     0.227 A 
HETATM   13  N   UNL     1     -19.201 -14.085  -1.758  1.00  0.00    -0.313 N 
HETATM   14  C   UNL     1     -18.481 -14.586  -2.813  1.00  0.00     0.324 A 
HETATM   15  O   UNL     1     -17.659 -15.480  -2.733  1.00  0.00    -0.247 OA
HETATM   16  N   UNL     1     -18.857 -13.944  -3.944  1.00  0.00    -0.276 N 
HETATM   17  C   UNL     1     -19.791 -12.988  -3.672  1.00  0.00     0.268 A 
HETATM   18  O   UNL     1     -20.316 -12.268  -4.509  1.00  0.00    -0.269 OA
HETATM   19  H   UNL     1     -19.018 -14.370  -0.806  1.00  0.00     0.166 HD
HETATM   20  H   UNL     1     -18.479 -14.140  -4.855  1.00  0.00     0.173 HD
ENDROOT
BRANCH   9  21
HETATM   21  C   UNL     1     -20.922  -9.895  -0.251  1.00  0.00     0.171 C 
BRANCH  21  22
HETATM   22  C   UNL     1     -21.249  -8.626  -1.018  1.00  0.00    -0.039 A 
HETATM   23  C   UNL     1     -22.001  -7.578  -0.477  1.00  0.00     0.009 A 
HETATM   24  C   UNL     1     -22.332  -6.463  -1.254  1.00  0.00     0.001 A 
HETATM   25  C   UNL     1     -21.913  -6.379  -2.583  1.00  0.00     0.016 A 
HETATM   26  C   UNL     1     -21.142  -7.401  -3.147  1.00  0.00     0.048 A 
HETATM   27  C   UNL     1     -20.796  -8.508  -2.348  1.00  0.00     0.025 A 
BRANCH  26  28
HETATM   28  C   UNL     1     -20.704  -7.338  -4.591  1.00  0.00     0.417 C 
HETATM   29  F   UNL     1     -21.586  -7.912  -5.457  1.00  0.00    -0.166 F 
HETATM   30  F   UNL     1     -20.532  -6.060  -5.029  1.00  0.00    -0.166 F 
HETATM   31  F   UNL     1     -19.514  -7.967  -4.804  1.00  0.00    -0.166 F 
ENDBRANCH  26  28
ENDBRANCH  21  22
ENDBRANCH   9  21
TORSDOF 3
ENDMDL
MODEL 9
REMARK VINA RESULT:      -7.9      4.598      6.152
REMARK  3 active torsions:
REMARK  status: ('A' for Active; 'I' for Inactive)
REMARK    1  A    between atoms: N_9  and  C_10 
REMARK    2  A    between atoms: C_10  and  C_11 
REMARK    3  A    between atoms: C_15  and  C_16 
ROOT
HETATM    1  C   UNL     1     -20.526 -11.539   0.393  1.00  0.00     0.050 C 
HETATM    2  C   UNL     1     -19.228 -11.644  -0.345  1.00  0.00    -0.033 A 
HETATM    3  C   UNL     1     -18.053 -11.833   0.423  1.00  0.00     0.033 A 
HETATM    4  C   UNL     1     -16.797 -11.997  -0.174  1.00  0.00     0.035 A 
HETATM    5 CL   UNL     1     -15.400 -12.205   0.809  1.00  0.00    -0.084 Cl
HETATM    6  C   UNL     1     -16.670 -11.997  -1.554  1.00  0.00     0.036 A 
HETATM    7  C   UNL     1     -17.816 -11.788  -2.311  1.00  0.00     0.018 A 
HETATM    8  C   UNL     1     -19.080 -11.567  -1.729  1.00  0.00     0.053 A 
HETATM    9  N   UNL     1     -19.999 -11.269  -2.762  1.00  0.00    -0.310 N 
HETATM   10  C   UNL     1     -19.372 -11.287  -4.025  1.00  0.00     0.268 C 
HETATM   11  O   UNL     1     -19.867 -10.956  -5.093  1.00  0.00    -0.269 OA
HETATM   12  C   UNL     1     -17.926 -11.740  -3.803  1.00  0.00     0.227 A 
HETATM   13  N   UNL     1     -16.930 -10.903  -4.425  1.00  0.00    -0.313 N 
HETATM   14  C   UNL     1     -16.228 -11.584  -5.387  1.00  0.00     0.324 A 
HETATM   15  O   UNL     1     -15.357 -11.102  -6.086  1.00  0.00    -0.247 OA
HETATM   16  N   UNL     1     -16.645 -12.872  -5.403  1.00  0.00    -0.276 N 
HETATM   17  C   UNL     1     -17.645 -13.070  -4.497  1.00  0.00     0.268 A 
HETATM   18  O   UNL     1     -18.196 -14.142  -4.290  1.00  0.00    -0.269 OA
HETATM   19  H   UNL     1     -16.832  -9.904  -4.302  1.00  0.00     0.166 HD
HETATM   20  H   UNL     1     -16.273 -13.578  -6.016  1.00  0.00     0.173 HD
ENDROOT
BRANCH   9  21
HETATM   21  C   UNL     1     -21.351 -10.762  -2.627  1.00  0.00     0.171 C 
BRANCH  21  22
HETATM   22  C   UNL     1     -21.483  -9.254  -2.511  1.00  0.00    -0.039 A 
HETATM   23  C   UNL     1     -21.720  -8.599  -1.298  1.00  0.00     0.009 A 
HETATM   24  C   UNL     1     -21.905  -7.213  -1.260  1.00  0.00     0.001 A 
HETATM   25  C   UNL     1     -21.853  -6.462  -2.435  1.00  0.00     0.016 A 
HETATM   26  C   UNL     1     -21.597  -7.084  -3.662  1.00  0.00     0.048 A 
HETATM   27  C   UNL     1     -21.391  -8.477  -3.684  1.00  0.00     0.025 A 
BRANCH  26  28
HETATM   28  C   UNL     1     -21.565  -6.290  -4.946  1.00  0.00     0.417 C 
HETATM   29  F   UNL     1     -22.801  -5.971  -5.424  1.00  0.00    -0.166 F 
HETATM   30  F   UNL     1     -20.903  -5.107  -4.812  1.00  0.00    -0.166 F 
HETATM   31  F   UNL     1     -20.938  -6.955  -5.956  1.00  0.00    -0.166 F 
ENDBRANCH  26  28
ENDBRANCH  21  22
ENDBRANCH   9  21
TORSDOF 3
ENDMDL
