REMARK  18 active torsions:
REMARK  status: ('A' for Active; 'I' for Inactive)
REMARK    1  A    between atoms: C_2  and  C_3 
REMARK    2  A    between atoms: C_3  and  C_4 
REMARK    3  A    between atoms: C_4  and  C_5 
REMARK    4  A    between atoms: C_5  and  C_6 
REMARK    5  A    between atoms: C_7  and  C_8 
REMARK    6  A    between atoms: C_8  and  C_9 
REMARK    7  A    between atoms: C_10  and  C_11 
REMARK    8  A    between atoms: C_11  and  C_12 
REMARK    9  A    between atoms: C_13  and  C_14 
REMARK   10  A    between atoms: C_14  and  C_15 
REMARK   11  A    between atoms: C_16  and  C_17 
REMARK   12  A    between atoms: C_17  and  C_18 
REMARK   13  A    between atoms: C_18  and  C_19 
REMARK   14  A    between atoms: C_19  and  C_20 
REMARK       I    between atoms: C_20  and  N_22 
REMARK   15  A    between atoms: N_22  and  C_23 
REMARK   16  A    between atoms: C_23  and  C_24 
REMARK   17  A    between atoms: C_27  and  O_28 
REMARK   18  A    between atoms: C_29  and  O_30 
ROOT
HETATM    1  C   UNL     1      16.722 -10.512  -5.241  1.00  0.00     0.027 C 
ENDROOT
BRANCH   1   2
HETATM    2  C   UNL     1      16.160  -9.218  -4.722  1.00  0.00    -0.030 C 
HETATM    3  C   UNL     1      15.410  -9.111  -3.614  1.00  0.00    -0.027 C 
BRANCH   3   4
HETATM    4  C   UNL     1      14.894  -7.806  -3.086  1.00  0.00     0.053 C 
BRANCH   4   5
HETATM    5  C   UNL     1      13.396  -7.773  -3.085  1.00  0.00    -0.027 C 
HETATM    6  C   UNL     1      12.663  -6.875  -3.764  1.00  0.00    -0.027 C 
BRANCH   6   7
HETATM    7  C   UNL     1      11.164  -6.836  -3.739  1.00  0.00     0.053 C 
BRANCH   7   8
HETATM    8  C   UNL     1      10.595  -7.022  -5.114  1.00  0.00    -0.027 C 
HETATM    9  C   UNL     1       9.799  -6.130  -5.720  1.00  0.00    -0.027 C 
BRANCH   9  10
HETATM   10  C   UNL     1       9.217  -6.328  -7.091  1.00  0.00     0.053 C 
BRANCH  10  11
HETATM   11  C   UNL     1       9.665  -5.239  -8.019  1.00  0.00    -0.027 C 
HETATM   12  C   UNL     1       8.826  -4.402  -8.650  1.00  0.00    -0.030 C 
BRANCH  12  13
HETATM   13  C   UNL     1       9.279  -3.303  -9.563  1.00  0.00     0.027 C 
BRANCH  13  14
HETATM   14  C   UNL     1       8.823  -1.942  -9.038  1.00  0.00     0.004 C 
BRANCH  14  15
HETATM   15  C   UNL     1       9.291  -0.820  -9.961  1.00  0.00    -0.000 C 
BRANCH  15  16
HETATM   16  C   UNL     1       8.841   0.546  -9.448  1.00  0.00    -0.005 C 
HETATM   17  C   UNL     1       9.311   1.655 -10.374  1.00  0.00     0.005 C 
ENDBRANCH  15  16
ENDBRANCH  14  15
ENDBRANCH  13  14
ENDBRANCH  12  13
ENDBRANCH  10  11
ENDBRANCH   9  10
ENDBRANCH   7   8
ENDBRANCH   6   7
ENDBRANCH   4   5
ENDBRANCH   3   4
ENDBRANCH   1   2
BRANCH   1  18
HETATM   18  C   UNL     1      18.254 -10.548  -5.219  1.00  0.00     0.013 C 
BRANCH  18  19
HETATM   19  C   UNL     1      18.873  -9.462  -6.095  1.00  0.00     0.103 C 
BRANCH  19  20
HETATM   20  C   UNL     1      20.385  -9.492  -6.104  1.00  0.00     0.217 C 
HETATM   21  O   UNL     1      21.055 -10.326  -5.500  1.00  0.00    -0.274 OA
HETATM   22  N   UNL     1      21.016  -8.517  -6.824  1.00  0.00    -0.357 N 
HETATM   23  H   UNL     1      22.025  -8.589  -6.817  1.00  0.00     0.162 HD
BRANCH  22  24
HETATM   24  C   UNL     1      20.401  -7.481  -7.629  1.00  0.00     0.161 C 
BRANCH  24  25
HETATM   25  C   UNL     1      20.061  -7.933  -9.029  1.00  0.00    -0.038 A 
HETATM   26  C   UNL     1      18.896  -7.462  -9.650  1.00  0.00     0.012 A 
HETATM   27  C   UNL     1      18.615  -7.793 -10.975  1.00  0.00     0.040 A 
HETATM   28  C   UNL     1      19.503  -8.598 -11.689  1.00  0.00     0.099 A 
HETATM   29  C   UNL     1      20.664  -9.099 -11.090  1.00  0.00     0.101 A 
HETATM   30  C   UNL     1      20.935  -8.756  -9.761  1.00  0.00     0.048 A 
BRANCH  28  31
HETATM   31  O   UNL     1      19.239  -8.898 -13.001  1.00  0.00    -0.358 OA
HETATM   32  H   UNL     1      18.432  -8.436 -13.275  1.00  0.00     0.217 HD
ENDBRANCH  28  31
BRANCH  29  33
HETATM   33  O   UNL     1      21.468  -9.886 -11.873  1.00  0.00    -0.353 OA
HETATM   34  C   UNL     1      22.621 -10.449 -11.261  1.00  0.00     0.210 C 
ENDBRANCH  29  33
ENDBRANCH  24  25
ENDBRANCH  22  24
ENDBRANCH  19  20
ENDBRANCH  18  19
ENDBRANCH   1  18
TORSDOF 18
