MODEL 1
REMARK VINA RESULT:      -8.3      0.000      0.000
REMARK  18 active torsions:
REMARK  status: ('A' for Active; 'I' for Inactive)
REMARK    1  A    between atoms: C_2  and  C_3 
REMARK    2  A    between atoms: C_3  and  C_4 
REMARK    3  A    between atoms: C_4  and  C_5 
REMARK    4  A    between atoms: C_5  and  C_6 
REMARK    5  A    between atoms: C_7  and  C_8 
REMARK    6  A    between atoms: C_8  and  C_9 
REMARK    7  A    between atoms: C_10  and  C_11 
REMARK    8  A    between atoms: C_11  and  C_12 
REMARK    9  A    between atoms: C_13  and  C_14 
REMARK   10  A    between atoms: C_14  and  C_15 
REMARK   11  A    between atoms: C_16  and  C_17 
REMARK   12  A    between atoms: C_17  and  C_18 
REMARK   13  A    between atoms: C_18  and  C_19 
REMARK   14  A    between atoms: C_19  and  C_20 
REMARK       I    between atoms: C_20  and  N_22 
REMARK   15  A    between atoms: N_22  and  C_23 
REMARK   16  A    between atoms: C_23  and  C_24 
REMARK   17  A    between atoms: C_27  and  O_28 
REMARK   18  A    between atoms: C_29  and  O_30 
ROOT
HETATM    1  C   UNL     1     -21.493  -6.334  -2.706  1.00  0.00     0.027 C 
ENDROOT
BRANCH   1   2
HETATM    2  C   UNL     1     -21.855  -7.340  -1.650  1.00  0.00    -0.030 C 
HETATM    3  C   UNL     1     -22.424  -7.029  -0.474  1.00  0.00    -0.027 C 
BRANCH   3   4
HETATM    4  C   UNL     1     -22.820  -8.050   0.550  1.00  0.00     0.053 C 
BRANCH   4   5
HETATM    5  C   UNL     1     -22.820  -9.432  -0.030  1.00  0.00    -0.027 C 
HETATM    6  C   UNL     1     -23.911 -10.210  -0.118  1.00  0.00    -0.027 C 
BRANCH   6   7
HETATM    7  C   UNL     1     -23.896 -11.601  -0.680  1.00  0.00     0.053 C 
BRANCH   7   8
HETATM    8  C   UNL     1     -22.815 -11.758  -1.707  1.00  0.00    -0.027 C 
HETATM    9  C   UNL     1     -22.880 -11.247  -2.945  1.00  0.00    -0.027 C 
BRANCH   9  10
HETATM   10  C   UNL     1     -21.802 -11.422  -3.977  1.00  0.00     0.053 C 
BRANCH  10  11
HETATM   11  C   UNL     1     -20.823 -10.289  -3.916  1.00  0.00    -0.027 C 
HETATM   12  C   UNL     1     -19.866 -10.176  -2.982  1.00  0.00    -0.030 C 
BRANCH  12  13
HETATM   13  C   UNL     1     -18.877  -9.051  -2.935  1.00  0.00     0.027 C 
BRANCH  13  14
HETATM   14  C   UNL     1     -17.450  -9.589  -2.838  1.00  0.00     0.004 C 
BRANCH  14  15
HETATM   15  C   UNL     1     -17.126 -10.488  -4.029  1.00  0.00    -0.000 C 
BRANCH  15  16
HETATM   16  C   UNL     1     -15.910  -9.976  -4.797  1.00  0.00    -0.005 C 
HETATM   17  C   UNL     1     -15.669 -10.805  -6.047  1.00  0.00     0.005 C 
ENDBRANCH  15  16
ENDBRANCH  14  15
ENDBRANCH  13  14
ENDBRANCH  12  13
ENDBRANCH  10  11
ENDBRANCH   9  10
ENDBRANCH   7   8
ENDBRANCH   6   7
ENDBRANCH   4   5
ENDBRANCH   3   4
ENDBRANCH   1   2
BRANCH   1  18
HETATM   18  C   UNL     1     -21.830  -6.810  -4.123  1.00  0.00     0.013 C 
BRANCH  18  19
HETATM   19  C   UNL     1     -21.231  -5.906  -5.197  1.00  0.00     0.103 C 
BRANCH  19  20
HETATM   20  C   UNL     1     -20.336  -6.644  -6.168  1.00  0.00     0.217 C 
HETATM   21  O   UNL     1     -20.005  -7.819  -6.033  1.00  0.00    -0.274 OA
HETATM   22  N   UNL     1     -19.875  -5.935  -7.241  1.00  0.00    -0.357 N 
HETATM   23  H   UNL     1     -19.297  -6.475  -7.872  1.00  0.00     0.162 HD
BRANCH  22  24
HETATM   24  C   UNL     1     -20.187  -4.564  -7.589  1.00  0.00     0.161 C 
BRANCH  24  25
HETATM   25  C   UNL     1     -20.968  -4.435  -8.875  1.00  0.00    -0.038 A 
HETATM   26  C   UNL     1     -20.288  -4.360 -10.099  1.00  0.00     0.012 A 
HETATM   27  C   UNL     1     -20.993  -4.336 -11.302  1.00  0.00     0.040 A 
HETATM   28  C   UNL     1     -22.387  -4.391 -11.286  1.00  0.00     0.099 A 
HETATM   29  C   UNL     1     -23.094  -4.447 -10.080  1.00  0.00     0.101 A 
HETATM   30  C   UNL     1     -22.373  -4.473  -8.881  1.00  0.00     0.048 A 
BRANCH  28  31
HETATM   31  O   UNL     1     -23.077  -4.397 -12.471  1.00  0.00    -0.358 OA
HETATM   32  H   UNL     1     -22.474  -4.152 -13.190  1.00  0.00     0.217 HD
ENDBRANCH  28  31
BRANCH  29  33
HETATM   33  O   UNL     1     -24.461  -4.491 -10.170  1.00  0.00    -0.353 OA
HETATM   34  C   UNL     1     -25.178  -3.339  -9.745  1.00  0.00     0.210 C 
ENDBRANCH  29  33
ENDBRANCH  24  25
ENDBRANCH  22  24
ENDBRANCH  19  20
ENDBRANCH  18  19
ENDBRANCH   1  18
TORSDOF 18
ENDMDL
MODEL 2
REMARK VINA RESULT:      -8.3      3.520      6.532
REMARK  18 active torsions:
REMARK  status: ('A' for Active; 'I' for Inactive)
REMARK    1  A    between atoms: C_2  and  C_3 
REMARK    2  A    between atoms: C_3  and  C_4 
REMARK    3  A    between atoms: C_4  and  C_5 
REMARK    4  A    between atoms: C_5  and  C_6 
REMARK    5  A    between atoms: C_7  and  C_8 
REMARK    6  A    between atoms: C_8  and  C_9 
REMARK    7  A    between atoms: C_10  and  C_11 
REMARK    8  A    between atoms: C_11  and  C_12 
REMARK    9  A    between atoms: C_13  and  C_14 
REMARK   10  A    between atoms: C_14  and  C_15 
REMARK   11  A    between atoms: C_16  and  C_17 
REMARK   12  A    between atoms: C_17  and  C_18 
REMARK   13  A    between atoms: C_18  and  C_19 
REMARK   14  A    between atoms: C_19  and  C_20 
REMARK       I    between atoms: C_20  and  N_22 
REMARK   15  A    between atoms: N_22  and  C_23 
REMARK   16  A    between atoms: C_23  and  C_24 
REMARK   17  A    between atoms: C_27  and  O_28 
REMARK   18  A    between atoms: C_29  and  O_30 
ROOT
HETATM    1  C   UNL     1     -21.388  -6.197  -2.370  1.00  0.00     0.027 C 
ENDROOT
BRANCH   1   2
HETATM    2  C   UNL     1     -22.327  -6.677  -1.299  1.00  0.00    -0.030 C 
HETATM    3  C   UNL     1     -22.082  -7.719  -0.490  1.00  0.00    -0.027 C 
BRANCH   3   4
HETATM    4  C   UNL     1     -23.011  -8.157   0.603  1.00  0.00     0.053 C 
BRANCH   4   5
HETATM    5  C   UNL     1     -23.674  -9.457   0.265  1.00  0.00    -0.027 C 
HETATM    6  C   UNL     1     -23.098 -10.429  -0.461  1.00  0.00    -0.027 C 
BRANCH   6   7
HETATM    7  C   UNL     1     -23.778 -11.718  -0.813  1.00  0.00     0.053 C 
BRANCH   7   8
HETATM    8  C   UNL     1     -23.649 -12.719   0.296  1.00  0.00    -0.027 C 
HETATM    9  C   UNL     1     -22.535 -12.889   1.022  1.00  0.00    -0.027 C 
BRANCH   9  10
HETATM   10  C   UNL     1     -22.404 -13.905   2.122  1.00  0.00     0.053 C 
BRANCH  10  11
HETATM   11  C   UNL     1     -23.751 -14.276   2.664  1.00  0.00    -0.027 C 
HETATM   12  C   UNL     1     -23.953 -15.256   3.559  1.00  0.00    -0.030 C 
BRANCH  12  13
HETATM   13  C   UNL     1     -25.300 -15.612   4.112  1.00  0.00     0.027 C 
BRANCH  13  14
HETATM   14  C   UNL     1     -25.395 -15.234   5.589  1.00  0.00     0.004 C 
BRANCH  14  15
HETATM   15  C   UNL     1     -26.812 -14.795   5.947  1.00  0.00    -0.000 C 
BRANCH  15  16
HETATM   16  C   UNL     1     -27.851 -15.777   5.408  1.00  0.00    -0.005 C 
HETATM   17  C   UNL     1     -29.254 -15.210   5.543  1.00  0.00     0.005 C 
ENDBRANCH  15  16
ENDBRANCH  14  15
ENDBRANCH  13  14
ENDBRANCH  12  13
ENDBRANCH  10  11
ENDBRANCH   9  10
ENDBRANCH   7   8
ENDBRANCH   6   7
ENDBRANCH   4   5
ENDBRANCH   3   4
ENDBRANCH   1   2
BRANCH   1  18
HETATM   18  C   UNL     1     -21.958  -6.364  -3.782  1.00  0.00     0.013 C 
BRANCH  18  19
HETATM   19  C   UNL     1     -20.985  -5.895  -4.861  1.00  0.00     0.103 C 
BRANCH  19  20
HETATM   20  C   UNL     1     -20.954  -6.802  -6.071  1.00  0.00     0.217 C 
HETATM   21  O   UNL     1     -21.143  -8.015  -6.021  1.00  0.00    -0.274 OA
HETATM   22  N   UNL     1     -20.686  -6.213  -7.275  1.00  0.00    -0.357 N 
HETATM   23  H   UNL     1     -20.695  -6.854  -8.057  1.00  0.00     0.162 HD
BRANCH  22  24
HETATM   24  C   UNL     1     -20.479  -4.803  -7.537  1.00  0.00     0.161 C 
BRANCH  24  25
HETATM   25  C   UNL     1     -20.883  -4.388  -8.932  1.00  0.00    -0.038 A 
HETATM   26  C   UNL     1     -19.975  -4.529  -9.991  1.00  0.00     0.012 A 
HETATM   27  C   UNL     1     -20.361  -4.240 -11.299  1.00  0.00     0.040 A 
HETATM   28  C   UNL     1     -21.663  -3.810 -11.556  1.00  0.00     0.099 A 
HETATM   29  C   UNL     1     -22.585  -3.641 -10.517  1.00  0.00     0.101 A 
HETATM   30  C   UNL     1     -22.185  -3.938  -9.210  1.00  0.00     0.048 A 
BRANCH  28  31
HETATM   31  O   UNL     1     -22.049  -3.555 -12.847  1.00  0.00    -0.358 OA
HETATM   32  H   UNL     1     -22.940  -3.172 -12.841  1.00  0.00     0.217 HD
ENDBRANCH  28  31
BRANCH  29  33
HETATM   33  O   UNL     1     -23.837  -3.208 -10.872  1.00  0.00    -0.353 OA
HETATM   34  C   UNL     1     -24.869  -3.339  -9.903  1.00  0.00     0.210 C 
ENDBRANCH  29  33
ENDBRANCH  24  25
ENDBRANCH  22  24
ENDBRANCH  19  20
ENDBRANCH  18  19
ENDBRANCH   1  18
TORSDOF 18
ENDMDL
MODEL 3
REMARK VINA RESULT:      -8.1      1.534      2.881
REMARK  18 active torsions:
REMARK  status: ('A' for Active; 'I' for Inactive)
REMARK    1  A    between atoms: C_2  and  C_3 
REMARK    2  A    between atoms: C_3  and  C_4 
REMARK    3  A    between atoms: C_4  and  C_5 
REMARK    4  A    between atoms: C_5  and  C_6 
REMARK    5  A    between atoms: C_7  and  C_8 
REMARK    6  A    between atoms: C_8  and  C_9 
REMARK    7  A    between atoms: C_10  and  C_11 
REMARK    8  A    between atoms: C_11  and  C_12 
REMARK    9  A    between atoms: C_13  and  C_14 
REMARK   10  A    between atoms: C_14  and  C_15 
REMARK   11  A    between atoms: C_16  and  C_17 
REMARK   12  A    between atoms: C_17  and  C_18 
REMARK   13  A    between atoms: C_18  and  C_19 
REMARK   14  A    between atoms: C_19  and  C_20 
REMARK       I    between atoms: C_20  and  N_22 
REMARK   15  A    between atoms: N_22  and  C_23 
REMARK   16  A    between atoms: C_23  and  C_24 
REMARK   17  A    between atoms: C_27  and  O_28 
REMARK   18  A    between atoms: C_29  and  O_30 
ROOT
HETATM    1  C   UNL     1     -21.743  -6.983  -5.662  1.00  0.00     0.027 C 
ENDROOT
BRANCH   1   2
HETATM    2  C   UNL     1     -22.185  -6.783  -4.239  1.00  0.00    -0.030 C 
HETATM    3  C   UNL     1     -21.426  -6.221  -3.285  1.00  0.00    -0.027 C 
BRANCH   3   4
HETATM    4  C   UNL     1     -21.899  -5.989  -1.881  1.00  0.00     0.053 C 
BRANCH   4   5
HETATM    5  C   UNL     1     -22.280  -7.276  -1.215  1.00  0.00    -0.027 C 
HETATM    6  C   UNL     1     -22.776  -7.360   0.031  1.00  0.00    -0.027 C 
BRANCH   6   7
HETATM    7  C   UNL     1     -23.134  -8.655   0.697  1.00  0.00     0.053 C 
BRANCH   7   8
HETATM    8  C   UNL     1     -22.852  -9.822  -0.201  1.00  0.00    -0.027 C 
HETATM    9  C   UNL     1     -23.778 -10.715  -0.579  1.00  0.00    -0.027 C 
BRANCH   9  10
HETATM   10  C   UNL     1     -23.487 -11.892  -1.465  1.00  0.00     0.053 C 
BRANCH  10  11
HETATM   11  C   UNL     1     -22.411 -11.558  -2.454  1.00  0.00    -0.027 C 
HETATM   12  C   UNL     1     -22.626 -10.886  -3.596  1.00  0.00    -0.030 C 
BRANCH  12  13
HETATM   13  C   UNL     1     -21.544 -10.539  -4.573  1.00  0.00     0.027 C 
BRANCH  13  14
HETATM   14  C   UNL     1     -20.747 -11.784  -4.962  1.00  0.00     0.004 C 
BRANCH  14  15
HETATM   15  C   UNL     1     -19.518 -11.406  -5.785  1.00  0.00    -0.000 C 
BRANCH  15  16
HETATM   16  C   UNL     1     -18.838 -10.158  -5.227  1.00  0.00    -0.005 C 
HETATM   17  C   UNL     1     -17.546  -9.866  -5.972  1.00  0.00     0.005 C 
ENDBRANCH  15  16
ENDBRANCH  14  15
ENDBRANCH  13  14
ENDBRANCH  12  13
ENDBRANCH  10  11
ENDBRANCH   9  10
ENDBRANCH   7   8
ENDBRANCH   6   7
ENDBRANCH   4   5
ENDBRANCH   3   4
ENDBRANCH   1   2
BRANCH   1  18
HETATM   18  C   UNL     1     -20.220  -7.064  -5.807  1.00  0.00     0.013 C 
BRANCH  18  19
HETATM   19  C   UNL     1     -19.709  -6.271  -7.007  1.00  0.00     0.103 C 
BRANCH  19  20
HETATM   20  C   UNL     1     -19.689  -4.777  -6.772  1.00  0.00     0.217 C 
HETATM   21  O   UNL     1     -19.526  -4.262  -5.668  1.00  0.00    -0.274 OA
HETATM   22  N   UNL     1     -19.878  -3.979  -7.864  1.00  0.00    -0.357 N 
HETATM   23  H   UNL     1     -19.838  -2.988  -7.662  1.00  0.00     0.162 HD
BRANCH  22  24
HETATM   24  C   UNL     1     -20.044  -4.398  -9.242  1.00  0.00     0.161 C 
BRANCH  24  25
HETATM   25  C   UNL     1     -21.424  -4.122  -9.790  1.00  0.00    -0.038 A 
HETATM   26  C   UNL     1     -22.554  -4.529  -9.068  1.00  0.00     0.012 A 
HETATM   27  C   UNL     1     -23.835  -4.200  -9.511  1.00  0.00     0.040 A 
HETATM   28  C   UNL     1     -23.991  -3.457 -10.682  1.00  0.00     0.099 A 
HETATM   29  C   UNL     1     -22.882  -3.054 -11.434  1.00  0.00     0.101 A 
HETATM   30  C   UNL     1     -21.603  -3.388 -10.975  1.00  0.00     0.048 A 
BRANCH  28  31
HETATM   31  O   UNL     1     -25.250  -3.110 -11.100  1.00  0.00    -0.358 OA
HETATM   32  H   UNL     1     -25.192  -2.708 -11.980  1.00  0.00     0.217 HD
ENDBRANCH  28  31
BRANCH  29  33
HETATM   33  O   UNL     1     -23.141  -2.335 -12.571  1.00  0.00    -0.353 OA
HETATM   34  C   UNL     1     -22.979  -3.005 -13.815  1.00  0.00     0.210 C 
ENDBRANCH  29  33
ENDBRANCH  24  25
ENDBRANCH  22  24
ENDBRANCH  19  20
ENDBRANCH  18  19
ENDBRANCH   1  18
TORSDOF 18
ENDMDL
MODEL 4
REMARK VINA RESULT:      -8.0      1.771      2.769
REMARK  18 active torsions:
REMARK  status: ('A' for Active; 'I' for Inactive)
REMARK    1  A    between atoms: C_2  and  C_3 
REMARK    2  A    between atoms: C_3  and  C_4 
REMARK    3  A    between atoms: C_4  and  C_5 
REMARK    4  A    between atoms: C_5  and  C_6 
REMARK    5  A    between atoms: C_7  and  C_8 
REMARK    6  A    between atoms: C_8  and  C_9 
REMARK    7  A    between atoms: C_10  and  C_11 
REMARK    8  A    between atoms: C_11  and  C_12 
REMARK    9  A    between atoms: C_13  and  C_14 
REMARK   10  A    between atoms: C_14  and  C_15 
REMARK   11  A    between atoms: C_16  and  C_17 
REMARK   12  A    between atoms: C_17  and  C_18 
REMARK   13  A    between atoms: C_18  and  C_19 
REMARK   14  A    between atoms: C_19  and  C_20 
REMARK       I    between atoms: C_20  and  N_22 
REMARK   15  A    between atoms: N_22  and  C_23 
REMARK   16  A    between atoms: C_23  and  C_24 
REMARK   17  A    between atoms: C_27  and  O_28 
REMARK   18  A    between atoms: C_29  and  O_30 
ROOT
HETATM    1  C   UNL     1     -21.956  -6.046  -2.308  1.00  0.00     0.027 C 
ENDROOT
BRANCH   1   2
HETATM    2  C   UNL     1     -22.252  -6.814  -1.050  1.00  0.00    -0.030 C 
HETATM    3  C   UNL     1     -21.512  -7.839  -0.599  1.00  0.00    -0.027 C 
BRANCH   3   4
HETATM    4  C   UNL     1     -21.795  -8.565   0.682  1.00  0.00     0.053 C 
BRANCH   4   5
HETATM    5  C   UNL     1     -20.977  -9.815   0.792  1.00  0.00    -0.027 C 
HETATM    6  C   UNL     1     -21.137 -10.891   0.003  1.00  0.00    -0.027 C 
BRANCH   6   7
HETATM    7  C   UNL     1     -20.328 -12.146   0.136  1.00  0.00     0.053 C 
BRANCH   7   8
HETATM    8  C   UNL     1     -18.905 -11.919  -0.280  1.00  0.00    -0.027 C 
HETATM    9  C   UNL     1     -17.846 -12.224   0.483  1.00  0.00    -0.027 C 
BRANCH   9  10
HETATM   10  C   UNL     1     -16.422 -11.979   0.070  1.00  0.00     0.053 C 
BRANCH  10  11
HETATM   11  C   UNL     1     -16.362 -11.430  -1.323  1.00  0.00    -0.027 C 
HETATM   12  C   UNL     1     -15.471 -11.827  -2.246  1.00  0.00    -0.030 C 
BRANCH  12  13
HETATM   13  C   UNL     1     -15.426 -11.287  -3.644  1.00  0.00     0.027 C 
BRANCH  13  14
HETATM   14  C   UNL     1     -16.833 -11.192  -4.232  1.00  0.00     0.004 C 
BRANCH  14  15
HETATM   15  C   UNL     1     -17.108  -9.784  -4.755  1.00  0.00    -0.000 C 
BRANCH  15  16
HETATM   16  C   UNL     1     -18.530  -9.336  -4.423  1.00  0.00    -0.005 C 
HETATM   17  C   UNL     1     -18.757  -9.322  -2.921  1.00  0.00     0.005 C 
ENDBRANCH  15  16
ENDBRANCH  14  15
ENDBRANCH  13  14
ENDBRANCH  12  13
ENDBRANCH  10  11
ENDBRANCH   9  10
ENDBRANCH   7   8
ENDBRANCH   6   7
ENDBRANCH   4   5
ENDBRANCH   3   4
ENDBRANCH   1   2
BRANCH   1  18
HETATM   18  C   UNL     1     -21.852  -6.946  -3.545  1.00  0.00     0.013 C 
BRANCH  18  19
HETATM   19  C   UNL     1     -21.607  -6.150  -4.823  1.00  0.00     0.103 C 
BRANCH  19  20
HETATM   20  C   UNL     1     -21.206  -7.014  -5.998  1.00  0.00     0.217 C 
HETATM   21  O   UNL     1     -21.264  -8.241  -5.993  1.00  0.00    -0.274 OA
HETATM   22  N   UNL     1     -20.746  -6.368  -7.110  1.00  0.00    -0.357 N 
HETATM   23  H   UNL     1     -20.509  -6.985  -7.875  1.00  0.00     0.162 HD
BRANCH  22  24
HETATM   24  C   UNL     1     -20.646  -4.937  -7.317  1.00  0.00     0.161 C 
BRANCH  24  25
HETATM   25  C   UNL     1     -20.976  -4.511  -8.727  1.00  0.00    -0.038 A 
HETATM   26  C   UNL     1     -20.001  -4.602  -9.730  1.00  0.00     0.012 A 
HETATM   27  C   UNL     1     -20.316  -4.304 -11.055  1.00  0.00     0.040 A 
HETATM   28  C   UNL     1     -21.614  -3.914 -11.385  1.00  0.00     0.099 A 
HETATM   29  C   UNL     1     -22.603  -3.795 -10.404  1.00  0.00     0.101 A 
HETATM   30  C   UNL     1     -22.274  -4.101  -9.079  1.00  0.00     0.048 A 
BRANCH  28  31
HETATM   31  O   UNL     1     -21.928  -3.649 -12.694  1.00  0.00    -0.358 OA
HETATM   32  H   UNL     1     -21.586  -2.773 -12.931  1.00  0.00     0.217 HD
ENDBRANCH  28  31
BRANCH  29  33
HETATM   33  O   UNL     1     -23.845  -3.399 -10.828  1.00  0.00    -0.353 OA
HETATM   34  C   UNL     1     -24.867  -3.298  -9.845  1.00  0.00     0.210 C 
ENDBRANCH  29  33
ENDBRANCH  24  25
ENDBRANCH  22  24
ENDBRANCH  19  20
ENDBRANCH  18  19
ENDBRANCH   1  18
TORSDOF 18
ENDMDL
MODEL 5
REMARK VINA RESULT:      -7.9      1.627      2.560
REMARK  18 active torsions:
REMARK  status: ('A' for Active; 'I' for Inactive)
REMARK    1  A    between atoms: C_2  and  C_3 
REMARK    2  A    between atoms: C_3  and  C_4 
REMARK    3  A    between atoms: C_4  and  C_5 
REMARK    4  A    between atoms: C_5  and  C_6 
REMARK    5  A    between atoms: C_7  and  C_8 
REMARK    6  A    between atoms: C_8  and  C_9 
REMARK    7  A    between atoms: C_10  and  C_11 
REMARK    8  A    between atoms: C_11  and  C_12 
REMARK    9  A    between atoms: C_13  and  C_14 
REMARK   10  A    between atoms: C_14  and  C_15 
REMARK   11  A    between atoms: C_16  and  C_17 
REMARK   12  A    between atoms: C_17  and  C_18 
REMARK   13  A    between atoms: C_18  and  C_19 
REMARK   14  A    between atoms: C_19  and  C_20 
REMARK       I    between atoms: C_20  and  N_22 
REMARK   15  A    between atoms: N_22  and  C_23 
REMARK   16  A    between atoms: C_23  and  C_24 
REMARK   17  A    between atoms: C_27  and  O_28 
REMARK   18  A    between atoms: C_29  and  O_30 
ROOT
HETATM    1  C   UNL     1     -21.374  -6.264  -3.081  1.00  0.00     0.027 C 
ENDROOT
BRANCH   1   2
HETATM    2  C   UNL     1     -21.384  -6.965  -1.752  1.00  0.00    -0.030 C 
HETATM    3  C   UNL     1     -22.379  -6.872  -0.856  1.00  0.00    -0.027 C 
BRANCH   3   4
HETATM    4  C   UNL     1     -22.394  -7.613   0.447  1.00  0.00     0.053 C 
BRANCH   4   5
HETATM    5  C   UNL     1     -23.372  -8.748   0.417  1.00  0.00    -0.027 C 
HETATM    6  C   UNL     1     -23.167  -9.900  -0.243  1.00  0.00    -0.027 C 
BRANCH   6   7
HETATM    7  C   UNL     1     -24.162 -11.022  -0.285  1.00  0.00     0.053 C 
BRANCH   7   8
HETATM    8  C   UNL     1     -23.482 -12.353  -0.169  1.00  0.00    -0.027 C 
HETATM    9  C   UNL     1     -22.706 -12.708   0.864  1.00  0.00    -0.027 C 
BRANCH   9  10
HETATM   10  C   UNL     1     -22.012 -14.036   0.968  1.00  0.00     0.053 C 
BRANCH  10  11
HETATM   11  C   UNL     1     -20.597 -13.935   0.483  1.00  0.00    -0.027 C 
HETATM   12  C   UNL     1     -20.015 -12.783   0.111  1.00  0.00    -0.030 C 
BRANCH  12  13
HETATM   13  C   UNL     1     -18.595 -12.683  -0.357  1.00  0.00     0.027 C 
BRANCH  13  14
HETATM   14  C   UNL     1     -18.446 -11.577  -1.401  1.00  0.00     0.004 C 
BRANCH  14  15
HETATM   15  C   UNL     1     -19.687 -10.687  -1.429  1.00  0.00    -0.000 C 
BRANCH  15  16
HETATM   16  C   UNL     1     -19.965 -10.165  -2.836  1.00  0.00    -0.005 C 
HETATM   17  C   UNL     1     -21.356 -10.564  -3.298  1.00  0.00     0.005 C 
ENDBRANCH  15  16
ENDBRANCH  14  15
ENDBRANCH  13  14
ENDBRANCH  12  13
ENDBRANCH  10  11
ENDBRANCH   9  10
ENDBRANCH   7   8
ENDBRANCH   6   7
ENDBRANCH   4   5
ENDBRANCH   3   4
ENDBRANCH   1   2
BRANCH   1  18
HETATM   18  C   UNL     1     -22.015  -7.094  -4.198  1.00  0.00     0.013 C 
BRANCH  18  19
HETATM   19  C   UNL     1     -21.788  -6.484  -5.579  1.00  0.00     0.103 C 
BRANCH  19  20
HETATM   20  C   UNL     1     -20.366  -6.637  -6.072  1.00  0.00     0.217 C 
HETATM   21  O   UNL     1     -19.691  -7.649  -5.905  1.00  0.00    -0.274 OA
HETATM   22  N   UNL     1     -19.823  -5.567  -6.726  1.00  0.00    -0.357 N 
HETATM   23  H   UNL     1     -18.879  -5.722  -7.054  1.00  0.00     0.162 HD
BRANCH  22  24
HETATM   24  C   UNL     1     -20.473  -4.313  -7.052  1.00  0.00     0.161 C 
BRANCH  24  25
HETATM   25  C   UNL     1     -20.922  -4.228  -8.491  1.00  0.00    -0.038 A 
HETATM   26  C   UNL     1     -19.992  -4.406  -9.524  1.00  0.00     0.012 A 
HETATM   27  C   UNL     1     -20.405  -4.425 -10.855  1.00  0.00     0.040 A 
HETATM   28  C   UNL     1     -21.757  -4.268 -11.161  1.00  0.00     0.099 A 
HETATM   29  C   UNL     1     -22.707  -4.069 -10.153  1.00  0.00     0.101 A 
HETATM   30  C   UNL     1     -22.278  -4.056  -8.821  1.00  0.00     0.048 A 
BRANCH  28  31
HETATM   31  O   UNL     1     -22.165  -4.317 -12.470  1.00  0.00    -0.358 OA
HETATM   32  H   UNL     1     -21.417  -4.586 -13.024  1.00  0.00     0.217 HD
ENDBRANCH  28  31
BRANCH  29  33
HETATM   33  O   UNL     1     -24.008  -3.919 -10.556  1.00  0.00    -0.353 OA
HETATM   34  C   UNL     1     -24.894  -3.259  -9.661  1.00  0.00     0.210 C 
ENDBRANCH  29  33
ENDBRANCH  24  25
ENDBRANCH  22  24
ENDBRANCH  19  20
ENDBRANCH  18  19
ENDBRANCH   1  18
TORSDOF 18
ENDMDL
MODEL 6
REMARK VINA RESULT:      -7.7      1.863      2.818
REMARK  18 active torsions:
REMARK  status: ('A' for Active; 'I' for Inactive)
REMARK    1  A    between atoms: C_2  and  C_3 
REMARK    2  A    between atoms: C_3  and  C_4 
REMARK    3  A    between atoms: C_4  and  C_5 
REMARK    4  A    between atoms: C_5  and  C_6 
REMARK    5  A    between atoms: C_7  and  C_8 
REMARK    6  A    between atoms: C_8  and  C_9 
REMARK    7  A    between atoms: C_10  and  C_11 
REMARK    8  A    between atoms: C_11  and  C_12 
REMARK    9  A    between atoms: C_13  and  C_14 
REMARK   10  A    between atoms: C_14  and  C_15 
REMARK   11  A    between atoms: C_16  and  C_17 
REMARK   12  A    between atoms: C_17  and  C_18 
REMARK   13  A    between atoms: C_18  and  C_19 
REMARK   14  A    between atoms: C_19  and  C_20 
REMARK       I    between atoms: C_20  and  N_22 
REMARK   15  A    between atoms: N_22  and  C_23 
REMARK   16  A    between atoms: C_23  and  C_24 
REMARK   17  A    between atoms: C_27  and  O_28 
REMARK   18  A    between atoms: C_29  and  O_30 
ROOT
HETATM    1  C   UNL     1     -21.908  -6.706  -5.532  1.00  0.00     0.027 C 
ENDROOT
BRANCH   1   2
HETATM    2  C   UNL     1     -22.277  -6.725  -4.075  1.00  0.00    -0.030 C 
HETATM    3  C   UNL     1     -21.566  -6.122  -3.109  1.00  0.00    -0.027 C 
BRANCH   3   4
HETATM    4  C   UNL     1     -21.971  -6.114  -1.665  1.00  0.00     0.053 C 
BRANCH   4   5
HETATM    5  C   UNL     1     -22.052  -7.505  -1.114  1.00  0.00    -0.027 C 
HETATM    6  C   UNL     1     -22.772  -7.844  -0.032  1.00  0.00    -0.027 C 
BRANCH   6   7
HETATM    7  C   UNL     1     -22.829  -9.235   0.526  1.00  0.00     0.053 C 
BRANCH   7   8
HETATM    8  C   UNL     1     -21.453  -9.806   0.698  1.00  0.00    -0.027 C 
HETATM    9  C   UNL     1     -21.063 -10.983   0.190  1.00  0.00    -0.027 C 
BRANCH   9  10
HETATM   10  C   UNL     1     -19.689 -11.559   0.379  1.00  0.00     0.053 C 
BRANCH  10  11
HETATM   11  C   UNL     1     -18.893 -11.457  -0.888  1.00  0.00    -0.027 C 
HETATM   12  C   UNL     1     -17.605 -11.821  -0.993  1.00  0.00    -0.030 C 
BRANCH  12  13
HETATM   13  C   UNL     1     -16.818 -11.735  -2.265  1.00  0.00     0.027 C 
BRANCH  13  14
HETATM   14  C   UNL     1     -15.858 -10.546  -2.227  1.00  0.00     0.004 C 
BRANCH  14  15
HETATM   15  C   UNL     1     -16.266  -9.486  -3.247  1.00  0.00    -0.000 C 
BRANCH  15  16
HETATM   16  C   UNL     1     -16.538 -10.107  -4.615  1.00  0.00    -0.005 C 
HETATM   17  C   UNL     1     -17.886  -9.660  -5.155  1.00  0.00     0.005 C 
ENDBRANCH  15  16
ENDBRANCH  14  15
ENDBRANCH  13  14
ENDBRANCH  12  13
ENDBRANCH  10  11
ENDBRANCH   9  10
ENDBRANCH   7   8
ENDBRANCH   6   7
ENDBRANCH   4   5
ENDBRANCH   3   4
ENDBRANCH   1   2
BRANCH   1  18
HETATM   18  C   UNL     1     -20.426  -7.009  -5.776  1.00  0.00     0.013 C 
BRANCH  18  19
HETATM   19  C   UNL     1     -19.894  -6.328  -7.035  1.00  0.00     0.103 C 
BRANCH  19  20
HETATM   20  C   UNL     1     -19.644  -4.848  -6.854  1.00  0.00     0.217 C 
HETATM   21  O   UNL     1     -19.347  -4.332  -5.779  1.00  0.00    -0.274 OA
HETATM   22  N   UNL     1     -19.776  -4.061  -7.963  1.00  0.00    -0.357 N 
HETATM   23  H   UNL     1     -19.580  -3.082  -7.798  1.00  0.00     0.162 HD
BRANCH  22  24
HETATM   24  C   UNL     1     -20.077  -4.489  -9.314  1.00  0.00     0.161 C 
BRANCH  24  25
HETATM   25  C   UNL     1     -21.509  -4.233  -9.718  1.00  0.00    -0.038 A 
HETATM   26  C   UNL     1     -22.469  -3.942  -8.738  1.00  0.00     0.012 A 
HETATM   27  C   UNL     1     -23.774  -3.611  -9.099  1.00  0.00     0.040 A 
HETATM   28  C   UNL     1     -24.127  -3.566 -10.448  1.00  0.00     0.099 A 
HETATM   29  C   UNL     1     -23.196  -3.870 -11.448  1.00  0.00     0.101 A 
HETATM   30  C   UNL     1     -21.889  -4.198 -11.071  1.00  0.00     0.048 A 
BRANCH  28  31
HETATM   31  O   UNL     1     -25.403  -3.211 -10.802  1.00  0.00    -0.358 OA
HETATM   32  H   UNL     1     -25.369  -2.416 -11.357  1.00  0.00     0.217 HD
ENDBRANCH  28  31
BRANCH  29  33
HETATM   33  O   UNL     1     -23.642  -3.804 -12.742  1.00  0.00    -0.353 OA
HETATM   34  C   UNL     1     -23.427  -2.585 -13.443  1.00  0.00     0.210 C 
ENDBRANCH  29  33
ENDBRANCH  24  25
ENDBRANCH  22  24
ENDBRANCH  19  20
ENDBRANCH  18  19
ENDBRANCH   1  18
TORSDOF 18
ENDMDL
MODEL 7
REMARK VINA RESULT:      -7.6      2.458      4.998
REMARK  18 active torsions:
REMARK  status: ('A' for Active; 'I' for Inactive)
REMARK    1  A    between atoms: C_2  and  C_3 
REMARK    2  A    between atoms: C_3  and  C_4 
REMARK    3  A    between atoms: C_4  and  C_5 
REMARK    4  A    between atoms: C_5  and  C_6 
REMARK    5  A    between atoms: C_7  and  C_8 
REMARK    6  A    between atoms: C_8  and  C_9 
REMARK    7  A    between atoms: C_10  and  C_11 
REMARK    8  A    between atoms: C_11  and  C_12 
REMARK    9  A    between atoms: C_13  and  C_14 
REMARK   10  A    between atoms: C_14  and  C_15 
REMARK   11  A    between atoms: C_16  and  C_17 
REMARK   12  A    between atoms: C_17  and  C_18 
REMARK   13  A    between atoms: C_18  and  C_19 
REMARK   14  A    between atoms: C_19  and  C_20 
REMARK       I    between atoms: C_20  and  N_22 
REMARK   15  A    between atoms: N_22  and  C_23 
REMARK   16  A    between atoms: C_23  and  C_24 
REMARK   17  A    between atoms: C_27  and  O_28 
REMARK   18  A    between atoms: C_29  and  O_30 
ROOT
HETATM    1  C   UNL     1     -21.872  -6.638  -5.482  1.00  0.00     0.027 C 
ENDROOT
BRANCH   1   2
HETATM    2  C   UNL     1     -22.230  -6.654  -4.022  1.00  0.00    -0.030 C 
HETATM    3  C   UNL     1     -21.504  -6.062  -3.060  1.00  0.00    -0.027 C 
BRANCH   3   4
HETATM    4  C   UNL     1     -21.899  -6.050  -1.614  1.00  0.00     0.053 C 
BRANCH   4   5
HETATM    5  C   UNL     1     -22.469  -7.371  -1.194  1.00  0.00    -0.027 C 
HETATM    6  C   UNL     1     -22.404  -7.855   0.058  1.00  0.00    -0.027 C 
BRANCH   6   7
HETATM    7  C   UNL     1     -22.957  -9.188   0.464  1.00  0.00     0.053 C 
BRANCH   7   8
HETATM    8  C   UNL     1     -22.526 -10.265  -0.487  1.00  0.00    -0.027 C 
HETATM    9  C   UNL     1     -23.334 -10.823  -1.399  1.00  0.00    -0.027 C 
BRANCH   9  10
HETATM   10  C   UNL     1     -22.903 -11.913  -2.339  1.00  0.00     0.053 C 
BRANCH  10  11
HETATM   11  C   UNL     1     -23.075 -13.260  -1.702  1.00  0.00    -0.027 C 
HETATM   12  C   UNL     1     -24.127 -13.597  -0.938  1.00  0.00    -0.030 C 
BRANCH  12  13
HETATM   13  C   UNL     1     -24.304 -14.950  -0.318  1.00  0.00     0.027 C 
BRANCH  13  14
HETATM   14  C   UNL     1     -23.284 -15.170   0.799  1.00  0.00     0.004 C 
BRANCH  14  15
HETATM   15  C   UNL     1     -23.470 -14.144   1.913  1.00  0.00    -0.000 C 
BRANCH  15  16
HETATM   16  C   UNL     1     -23.306 -14.783   3.290  1.00  0.00    -0.005 C 
HETATM   17  C   UNL     1     -24.659 -15.119   3.896  1.00  0.00     0.005 C 
ENDBRANCH  15  16
ENDBRANCH  14  15
ENDBRANCH  13  14
ENDBRANCH  12  13
ENDBRANCH  10  11
ENDBRANCH   9  10
ENDBRANCH   7   8
ENDBRANCH   6   7
ENDBRANCH   4   5
ENDBRANCH   3   4
ENDBRANCH   1   2
BRANCH   1  18
HETATM   18  C   UNL     1     -20.414  -7.031  -5.742  1.00  0.00     0.013 C 
BRANCH  18  19
HETATM   19  C   UNL     1     -19.843  -6.355  -6.986  1.00  0.00     0.103 C 
BRANCH  19  20
HETATM   20  C   UNL     1     -19.650  -4.864  -6.820  1.00  0.00     0.217 C 
HETATM   21  O   UNL     1     -19.364  -4.328  -5.752  1.00  0.00    -0.274 OA
HETATM   22  N   UNL     1     -19.820  -4.093  -7.935  1.00  0.00    -0.357 N 
HETATM   23  H   UNL     1     -19.661  -3.106  -7.780  1.00  0.00     0.162 HD
BRANCH  22  24
HETATM   24  C   UNL     1     -20.115  -4.544  -9.279  1.00  0.00     0.161 C 
BRANCH  24  25
HETATM   25  C   UNL     1     -21.537  -4.266  -9.706  1.00  0.00    -0.038 A 
HETATM   26  C   UNL     1     -22.498  -3.923  -8.746  1.00  0.00     0.012 A 
HETATM   27  C   UNL     1     -23.791  -3.571  -9.131  1.00  0.00     0.040 A 
HETATM   28  C   UNL     1     -24.129  -3.557 -10.485  1.00  0.00     0.099 A 
HETATM   29  C   UNL     1     -23.196  -3.913 -11.465  1.00  0.00     0.101 A 
HETATM   30  C   UNL     1     -21.902  -4.261 -11.064  1.00  0.00     0.048 A 
BRANCH  28  31
HETATM   31  O   UNL     1     -25.393  -3.182 -10.863  1.00  0.00    -0.358 OA
HETATM   32  H   UNL     1     -25.525  -3.409 -11.796  1.00  0.00     0.217 HD
ENDBRANCH  28  31
BRANCH  29  33
HETATM   33  O   UNL     1     -23.627  -3.874 -12.765  1.00  0.00    -0.353 OA
HETATM   34  C   UNL     1     -23.241  -2.749 -13.545  1.00  0.00     0.210 C 
ENDBRANCH  29  33
ENDBRANCH  24  25
ENDBRANCH  22  24
ENDBRANCH  19  20
ENDBRANCH  18  19
ENDBRANCH   1  18
TORSDOF 18
ENDMDL
MODEL 8
REMARK VINA RESULT:      -7.4      1.602      4.913
REMARK  18 active torsions:
REMARK  status: ('A' for Active; 'I' for Inactive)
REMARK    1  A    between atoms: C_2  and  C_3 
REMARK    2  A    between atoms: C_3  and  C_4 
REMARK    3  A    between atoms: C_4  and  C_5 
REMARK    4  A    between atoms: C_5  and  C_6 
REMARK    5  A    between atoms: C_7  and  C_8 
REMARK    6  A    between atoms: C_8  and  C_9 
REMARK    7  A    between atoms: C_10  and  C_11 
REMARK    8  A    between atoms: C_11  and  C_12 
REMARK    9  A    between atoms: C_13  and  C_14 
REMARK   10  A    between atoms: C_14  and  C_15 
REMARK   11  A    between atoms: C_16  and  C_17 
REMARK   12  A    between atoms: C_17  and  C_18 
REMARK   13  A    between atoms: C_18  and  C_19 
REMARK   14  A    between atoms: C_19  and  C_20 
REMARK       I    between atoms: C_20  and  N_22 
REMARK   15  A    between atoms: N_22  and  C_23 
REMARK   16  A    between atoms: C_23  and  C_24 
REMARK   17  A    between atoms: C_27  and  O_28 
REMARK   18  A    between atoms: C_29  and  O_30 
ROOT
HETATM    1  C   UNL     1     -20.396  -9.633  -5.121  1.00  0.00     0.027 C 
ENDROOT
BRANCH   1   2
HETATM    2  C   UNL     1     -18.903  -9.486  -5.019  1.00  0.00    -0.030 C 
HETATM    3  C   UNL     1     -18.034  -9.962  -5.924  1.00  0.00    -0.027 C 
BRANCH   3   4
HETATM    4  C   UNL     1     -16.550  -9.768  -5.829  1.00  0.00     0.053 C 
BRANCH   4   5
HETATM    5  C   UNL     1     -15.992 -10.428  -4.605  1.00  0.00    -0.027 C 
HETATM    6  C   UNL     1     -16.194  -9.985  -3.353  1.00  0.00    -0.027 C 
BRANCH   6   7
HETATM    7  C   UNL     1     -15.612 -10.639  -2.135  1.00  0.00     0.053 C 
BRANCH   7   8
HETATM    8  C   UNL     1     -16.623 -11.516  -1.457  1.00  0.00    -0.027 C 
HETATM    9  C   UNL     1     -17.899 -11.628  -1.852  1.00  0.00    -0.027 C 
BRANCH   9  10
HETATM   10  C   UNL     1     -18.912 -12.494  -1.160  1.00  0.00     0.053 C 
BRANCH  10  11
HETATM   11  C   UNL     1     -20.300 -11.976  -1.393  1.00  0.00    -0.027 C 
HETATM   12  C   UNL     1     -20.679 -10.713  -1.141  1.00  0.00    -0.030 C 
BRANCH  12  13
HETATM   13  C   UNL     1     -22.062 -10.194  -1.392  1.00  0.00     0.027 C 
BRANCH  13  14
HETATM   14  C   UNL     1     -22.798  -9.956  -0.074  1.00  0.00     0.004 C 
BRANCH  14  15
HETATM   15  C   UNL     1     -23.121  -8.476   0.108  1.00  0.00    -0.000 C 
BRANCH  15  16
HETATM   16  C   UNL     1     -21.926  -7.597  -0.258  1.00  0.00    -0.005 C 
HETATM   17  C   UNL     1     -22.297  -6.601  -1.343  1.00  0.00     0.005 C 
ENDBRANCH  15  16
ENDBRANCH  14  15
ENDBRANCH  13  14
ENDBRANCH  12  13
ENDBRANCH  10  11
ENDBRANCH   9  10
ENDBRANCH   7   8
ENDBRANCH   6   7
ENDBRANCH   4   5
ENDBRANCH   3   4
ENDBRANCH   1   2
BRANCH   1  18
HETATM   18  C   UNL     1     -21.148  -8.353  -4.742  1.00  0.00     0.013 C 
BRANCH  18  19
HETATM   19  C   UNL     1     -21.072  -7.290  -5.834  1.00  0.00     0.103 C 
BRANCH  19  20
HETATM   20  C   UNL     1     -21.920  -6.072  -5.541  1.00  0.00     0.217 C 
HETATM   21  O   UNL     1     -22.859  -6.068  -4.750  1.00  0.00    -0.274 OA
HETATM   22  N   UNL     1     -21.607  -4.927  -6.219  1.00  0.00    -0.357 N 
HETATM   23  H   UNL     1     -22.188  -4.135  -5.977  1.00  0.00     0.162 HD
BRANCH  22  24
HETATM   24  C   UNL     1     -20.518  -4.727  -7.153  1.00  0.00     0.161 C 
BRANCH  24  25
HETATM   25  C   UNL     1     -20.979  -4.502  -8.573  1.00  0.00    -0.038 A 
HETATM   26  C   UNL     1     -20.036  -4.392  -9.603  1.00  0.00     0.012 A 
HETATM   27  C   UNL     1     -20.446  -4.278 -10.931  1.00  0.00     0.040 A 
HETATM   28  C   UNL     1     -21.807  -4.277 -11.236  1.00  0.00     0.099 A 
HETATM   29  C   UNL     1     -22.773  -4.366 -10.227  1.00  0.00     0.101 A 
HETATM   30  C   UNL     1     -22.347  -4.482  -8.899  1.00  0.00     0.048 A 
BRANCH  28  31
HETATM   31  O   UNL     1     -22.207  -4.195 -12.545  1.00  0.00    -0.358 OA
HETATM   32  H   UNL     1     -21.707  -3.491 -12.985  1.00  0.00     0.217 HD
ENDBRANCH  28  31
BRANCH  29  33
HETATM   33  O   UNL     1     -24.083  -4.349 -10.628  1.00  0.00    -0.353 OA
HETATM   34  C   UNL     1     -24.930  -3.368 -10.043  1.00  0.00     0.210 C 
ENDBRANCH  29  33
ENDBRANCH  24  25
ENDBRANCH  22  24
ENDBRANCH  19  20
ENDBRANCH  18  19
ENDBRANCH   1  18
TORSDOF 18
ENDMDL
MODEL 9
REMARK VINA RESULT:      -7.2      1.918      3.363
REMARK  18 active torsions:
REMARK  status: ('A' for Active; 'I' for Inactive)
REMARK    1  A    between atoms: C_2  and  C_3 
REMARK    2  A    between atoms: C_3  and  C_4 
REMARK    3  A    between atoms: C_4  and  C_5 
REMARK    4  A    between atoms: C_5  and  C_6 
REMARK    5  A    between atoms: C_7  and  C_8 
REMARK    6  A    between atoms: C_8  and  C_9 
REMARK    7  A    between atoms: C_10  and  C_11 
REMARK    8  A    between atoms: C_11  and  C_12 
REMARK    9  A    between atoms: C_13  and  C_14 
REMARK   10  A    between atoms: C_14  and  C_15 
REMARK   11  A    between atoms: C_16  and  C_17 
REMARK   12  A    between atoms: C_17  and  C_18 
REMARK   13  A    between atoms: C_18  and  C_19 
REMARK   14  A    between atoms: C_19  and  C_20 
REMARK       I    between atoms: C_20  and  N_22 
REMARK   15  A    between atoms: N_22  and  C_23 
REMARK   16  A    between atoms: C_23  and  C_24 
REMARK   17  A    between atoms: C_27  and  O_28 
REMARK   18  A    between atoms: C_29  and  O_30 
ROOT
HETATM    1  C   UNL     1     -21.686  -5.964  -4.827  1.00  0.00     0.027 C 
ENDROOT
BRANCH   1   2
HETATM    2  C   UNL     1     -22.054  -6.681  -3.558  1.00  0.00    -0.030 C 
HETATM    3  C   UNL     1     -21.922  -6.156  -2.329  1.00  0.00    -0.027 C 
BRANCH   3   4
HETATM    4  C   UNL     1     -22.335  -6.869  -1.076  1.00  0.00     0.053 C 
BRANCH   4   5
HETATM    5  C   UNL     1     -21.914  -8.306  -1.103  1.00  0.00    -0.027 C 
HETATM    6  C   UNL     1     -20.646  -8.715  -1.273  1.00  0.00    -0.027 C 
BRANCH   6   7
HETATM    7  C   UNL     1     -20.237 -10.157  -1.321  1.00  0.00     0.053 C 
BRANCH   7   8
HETATM    8  C   UNL     1     -18.938 -10.327  -2.051  1.00  0.00    -0.027 C 
HETATM    9  C   UNL     1     -18.436  -9.422  -2.904  1.00  0.00    -0.027 C 
BRANCH   9  10
HETATM   10  C   UNL     1     -17.143  -9.604  -3.647  1.00  0.00     0.053 C 
BRANCH  10  11
HETATM   11  C   UNL     1     -17.077 -10.967  -4.269  1.00  0.00    -0.027 C 
HETATM   12  C   UNL     1     -16.724 -11.190  -5.545  1.00  0.00    -0.030 C 
BRANCH  12  13
HETATM   13  C   UNL     1     -16.641 -12.555  -6.158  1.00  0.00     0.027 C 
BRANCH  13  14
HETATM   14  C   UNL     1     -18.029 -13.050  -6.563  1.00  0.00     0.004 C 
BRANCH  14  15
HETATM   15  C   UNL     1     -18.663 -12.111  -7.586  1.00  0.00    -0.000 C 
BRANCH  15  16
HETATM   16  C   UNL     1     -18.769 -12.774  -8.958  1.00  0.00    -0.005 C 
HETATM   17  C   UNL     1     -18.498 -14.266  -8.862  1.00  0.00     0.005 C 
ENDBRANCH  15  16
ENDBRANCH  14  15
ENDBRANCH  13  14
ENDBRANCH  12  13
ENDBRANCH  10  11
ENDBRANCH   9  10
ENDBRANCH   7   8
ENDBRANCH   6   7
ENDBRANCH   4   5
ENDBRANCH   3   4
ENDBRANCH   1   2
BRANCH   1  18
HETATM   18  C   UNL     1     -20.396  -5.147  -4.698  1.00  0.00     0.013 C 
BRANCH  18  19
HETATM   19  C   UNL     1     -19.787  -4.804  -6.055  1.00  0.00     0.103 C 
BRANCH  19  20
HETATM   20  C   UNL     1     -19.770  -5.973  -7.014  1.00  0.00     0.217 C 
HETATM   21  O   UNL     1     -19.626  -7.141  -6.663  1.00  0.00    -0.274 OA
HETATM   22  N   UNL     1     -19.912  -5.683  -8.342  1.00  0.00    -0.357 N 
HETATM   23  H   UNL     1     -19.913  -6.497  -8.942  1.00  0.00     0.162 HD
BRANCH  22  24
HETATM   24  C   UNL     1     -20.132  -4.381  -8.938  1.00  0.00     0.161 C 
BRANCH  24  25
HETATM   25  C   UNL     1     -21.550  -4.172  -9.414  1.00  0.00    -0.038 A 
HETATM   26  C   UNL     1     -22.561  -3.882  -8.487  1.00  0.00     0.012 A 
HETATM   27  C   UNL     1     -23.855  -3.593  -8.917  1.00  0.00     0.040 A 
HETATM   28  C   UNL     1     -24.146  -3.591 -10.281  1.00  0.00     0.099 A 
HETATM   29  C   UNL     1     -23.163  -3.895 -11.229  1.00  0.00     0.101 A 
HETATM   30  C   UNL     1     -21.867  -4.180 -10.784  1.00  0.00     0.048 A 
BRANCH  28  31
HETATM   31  O   UNL     1     -25.413  -3.278 -10.702  1.00  0.00    -0.358 OA
HETATM   32  H   UNL     1     -25.769  -2.574 -10.139  1.00  0.00     0.217 HD
ENDBRANCH  28  31
BRANCH  29  33
HETATM   33  O   UNL     1     -23.550  -3.873 -12.544  1.00  0.00    -0.353 OA
HETATM   34  C   UNL     1     -23.409  -2.642 -13.241  1.00  0.00     0.210 C 
ENDBRANCH  29  33
ENDBRANCH  24  25
ENDBRANCH  22  24
ENDBRANCH  19  20
ENDBRANCH  18  19
ENDBRANCH   1  18
TORSDOF 18
ENDMDL
