REMARK  19 active torsions:
REMARK  status: ('A' for Active; 'I' for Inactive)
REMARK    1  A    between atoms: C_2  and  C_3 
REMARK    2  A    between atoms: C_3  and  C_4 
REMARK    3  A    between atoms: C_4  and  C_5 
REMARK    4  A    between atoms: C_5  and  C_6 
REMARK    5  A    between atoms: C_7  and  C_8 
REMARK    6  A    between atoms: C_8  and  C_9 
REMARK    7  A    between atoms: C_10  and  C_11 
REMARK    8  A    between atoms: C_11  and  C_12 
REMARK    9  A    between atoms: C_13  and  C_14 
REMARK   10  A    between atoms: C_14  and  C_15 
REMARK   11  A    between atoms: C_16  and  C_17 
REMARK   12  A    between atoms: C_17  and  C_18 
REMARK   13  A    between atoms: C_18  and  C_19 
REMARK   14  A    between atoms: C_19  and  C_20 
REMARK       I    between atoms: C_20  and  N_22 
REMARK   15  A    between atoms: N_22  and  C_23 
REMARK   16  A    between atoms: C_23  and  C_24 
REMARK   17  A    between atoms: C_24  and  C_25 
REMARK   18  A    between atoms: C_28  and  O_29 
REMARK   19  A    between atoms: C_30  and  O_31 
ROOT
HETATM    1  C   UNL     1      16.207  10.480   7.100  1.00  0.00     0.013 C 
ENDROOT
BRANCH   1   2
HETATM    2  C   UNL     1      16.674   9.069   7.449  1.00  0.00     0.027 C 
BRANCH   2   3
HETATM    3  C   UNL     1      16.153   8.056   6.473  1.00  0.00    -0.030 C 
HETATM    4  C   UNL     1      15.360   7.038   6.843  1.00  0.00    -0.027 C 
BRANCH   4   5
HETATM    5  C   UNL     1      14.827   6.027   5.876  1.00  0.00     0.053 C 
BRANCH   5   6
HETATM    6  C   UNL     1      13.328   6.007   5.862  1.00  0.00    -0.027 C 
HETATM    7  C   UNL     1      12.614   4.913   6.169  1.00  0.00    -0.027 C 
BRANCH   7   8
HETATM    8  C   UNL     1      11.117   4.879   6.159  1.00  0.00     0.053 C 
BRANCH   8   9
HETATM    9  C   UNL     1      10.563   4.519   7.505  1.00  0.00    -0.027 C 
HETATM   10  C   UNL     1       9.802   3.448   7.717  1.00  0.00    -0.027 C 
BRANCH  10  11
HETATM   11  C   UNL     1       9.244   3.085   9.060  1.00  0.00     0.053 C 
BRANCH  11  12
HETATM   12  C   UNL     1       7.746   3.034   9.027  1.00  0.00    -0.027 C 
HETATM   13  C   UNL     1       7.045   1.941   9.317  1.00  0.00    -0.030 C 
BRANCH  13  14
HETATM   14  C   UNL     1       5.547   1.892   9.279  1.00  0.00     0.027 C 
BRANCH  14  15
HETATM   15  C   UNL     1       4.984   1.541  10.650  1.00  0.00     0.004 C 
BRANCH  15  16
HETATM   16  C   UNL     1       3.460   1.514  10.612  1.00  0.00    -0.000 C 
BRANCH  16  17
HETATM   17  C   UNL     1       2.893   1.165  11.985  1.00  0.00    -0.005 C 
HETATM   18  C   UNL     1       1.376   1.138  11.945  1.00  0.00     0.005 C 
ENDBRANCH  16  17
ENDBRANCH  15  16
ENDBRANCH  14  15
ENDBRANCH  13  14
ENDBRANCH  11  12
ENDBRANCH  10  11
ENDBRANCH   8   9
ENDBRANCH   7   8
ENDBRANCH   5   6
ENDBRANCH   4   5
ENDBRANCH   2   3
ENDBRANCH   1   2
BRANCH   1  19
HETATM   19  C   UNL     1      14.680  10.619   7.107  1.00  0.00     0.103 C 
BRANCH  19  20
HETATM   20  C   UNL     1      14.274  12.036   6.750  1.00  0.00     0.217 C 
HETATM   21  O   UNL     1      15.085  12.922   6.498  1.00  0.00    -0.274 OA
HETATM   22  N   UNL     1      12.912  12.261   6.725  1.00  0.00    -0.361 N 
HETATM   23  H   UNL     1      12.270  11.524   6.989  1.00  0.00     0.162 HD
BRANCH  22  24
HETATM   24  C   UNL     1      12.426  13.592   6.395  1.00  0.00     0.127 C 
BRANCH  24  25
HETATM   25  C   UNL     1      10.904  13.714   6.403  1.00  0.00     0.058 C 
BRANCH  25  26
HETATM   26  C   UNL     1      10.446  15.109   6.050  1.00  0.00    -0.054 A 
HETATM   27  C   UNL     1      10.202  15.475   4.720  1.00  0.00     0.010 A 
HETATM   28  C   UNL     1       9.796  16.782   4.417  1.00  0.00     0.040 A 
HETATM   29  C   UNL     1       9.628  17.718   5.436  1.00  0.00     0.098 A 
HETATM   30  C   UNL     1       9.859  17.354   6.756  1.00  0.00     0.099 A 
HETATM   31  C   UNL     1      10.278  16.066   7.063  1.00  0.00     0.046 A 
BRANCH  29  32
HETATM   32  O   UNL     1       9.240  19.006   5.183  1.00  0.00    -0.358 OA
HETATM   33  H   UNL     1       9.117  19.117   4.224  1.00  0.00     0.217 HD
ENDBRANCH  29  32
BRANCH  30  34
HETATM   34  O   UNL     1       9.672  18.236   7.779  1.00  0.00    -0.358 OA
HETATM   35  H   UNL     1       9.385  19.063   7.348  1.00  0.00     0.217 HD
ENDBRANCH  30  34
ENDBRANCH  25  26
ENDBRANCH  24  25
ENDBRANCH  22  24
ENDBRANCH  19  20
ENDBRANCH   1  19
TORSDOF 19
