MODEL 1
REMARK VINA RESULT:      -8.6      0.000      0.000
REMARK  19 active torsions:
REMARK  status: ('A' for Active; 'I' for Inactive)
REMARK    1  A    between atoms: C_2  and  C_3 
REMARK    2  A    between atoms: C_3  and  C_4 
REMARK    3  A    between atoms: C_4  and  C_5 
REMARK    4  A    between atoms: C_5  and  C_6 
REMARK    5  A    between atoms: C_7  and  C_8 
REMARK    6  A    between atoms: C_8  and  C_9 
REMARK    7  A    between atoms: C_10  and  C_11 
REMARK    8  A    between atoms: C_11  and  C_12 
REMARK    9  A    between atoms: C_13  and  C_14 
REMARK   10  A    between atoms: C_14  and  C_15 
REMARK   11  A    between atoms: C_16  and  C_17 
REMARK   12  A    between atoms: C_17  and  C_18 
REMARK   13  A    between atoms: C_18  and  C_19 
REMARK   14  A    between atoms: C_19  and  C_20 
REMARK       I    between atoms: C_20  and  N_22 
REMARK   15  A    between atoms: N_22  and  C_23 
REMARK   16  A    between atoms: C_23  and  C_24 
REMARK   17  A    between atoms: C_24  and  C_25 
REMARK   18  A    between atoms: C_28  and  O_29 
REMARK   19  A    between atoms: C_30  and  O_31 
ROOT
HETATM    1  C   UNL     1     -22.243  -6.724  -4.092  1.00  0.00     0.013 C 
ENDROOT
BRANCH   1   2
HETATM    2  C   UNL     1     -21.253  -6.322  -3.002  1.00  0.00     0.027 C 
BRANCH   2   3
HETATM    3  C   UNL     1     -21.434  -7.143  -1.759  1.00  0.00    -0.030 C 
HETATM    4  C   UNL     1     -22.424  -6.915  -0.882  1.00  0.00    -0.027 C 
BRANCH   4   5
HETATM    5  C   UNL     1     -22.620  -7.733   0.356  1.00  0.00     0.053 C 
BRANCH   5   6
HETATM    6  C   UNL     1     -22.610  -9.203   0.059  1.00  0.00    -0.027 C 
HETATM    7  C   UNL     1     -23.734  -9.917  -0.108  1.00  0.00    -0.027 C 
BRANCH   7   8
HETATM    8  C   UNL     1     -23.739 -11.384  -0.405  1.00  0.00     0.053 C 
BRANCH   8   9
HETATM    9  C   UNL     1     -23.447 -11.657  -1.851  1.00  0.00    -0.027 C 
HETATM   10  C   UNL     1     -22.633 -10.903  -2.585  1.00  0.00    -0.027 C 
BRANCH  10  11
HETATM   11  C   UNL     1     -22.340 -11.169  -4.030  1.00  0.00     0.053 C 
BRANCH  11  12
HETATM   12  C   UNL     1     -21.068 -10.501  -4.456  1.00  0.00    -0.027 C 
HETATM   13  C   UNL     1     -20.260  -9.861  -3.614  1.00  0.00    -0.030 C 
BRANCH  13  14
HETATM   14  C   UNL     1     -18.990  -9.190  -4.044  1.00  0.00     0.027 C 
BRANCH  14  15
HETATM   15  C   UNL     1     -17.931  -9.291  -2.954  1.00  0.00     0.004 C 
BRANCH  15  16
HETATM   16  C   UNL     1     -16.617  -9.807  -3.531  1.00  0.00    -0.000 C 
BRANCH  16  17
HETATM   17  C   UNL     1     -16.740 -10.029  -5.035  1.00  0.00    -0.005 C 
HETATM   18  C   UNL     1     -15.448 -10.593  -5.598  1.00  0.00     0.005 C 
ENDBRANCH  16  17
ENDBRANCH  15  16
ENDBRANCH  14  15
ENDBRANCH  13  14
ENDBRANCH  11  12
ENDBRANCH  10  11
ENDBRANCH   8   9
ENDBRANCH   7   8
ENDBRANCH   5   6
ENDBRANCH   4   5
ENDBRANCH   2   3
ENDBRANCH   1   2
BRANCH   1  19
HETATM   19  C   UNL     1     -21.592  -6.828  -5.477  1.00  0.00     0.103 C 
BRANCH  19  20
HETATM   20  C   UNL     1     -21.870  -5.579  -6.290  1.00  0.00     0.217 C 
HETATM   21  O   UNL     1     -22.946  -4.989  -6.265  1.00  0.00    -0.274 OA
HETATM   22  N   UNL     1     -20.814  -5.145  -7.067  1.00  0.00    -0.361 N 
HETATM   23  H   UNL     1     -19.957  -5.682  -7.107  1.00  0.00     0.162 HD
BRANCH  22  24
HETATM   24  C   UNL     1     -20.987  -3.954  -7.885  1.00  0.00     0.127 C 
BRANCH  24  25
HETATM   25  C   UNL     1     -20.709  -4.178  -9.369  1.00  0.00     0.058 C 
BRANCH  25  26
HETATM   26  C   UNL     1     -21.910  -3.853 -10.226  1.00  0.00    -0.054 A 
HETATM   27  C   UNL     1     -21.781  -3.657 -11.607  1.00  0.00     0.010 A 
HETATM   28  C   UNL     1     -22.909  -3.337 -12.376  1.00  0.00     0.040 A 
HETATM   29  C   UNL     1     -24.160  -3.220 -11.772  1.00  0.00     0.098 A 
HETATM   30  C   UNL     1     -24.291  -3.425 -10.405  1.00  0.00     0.099 A 
HETATM   31  C   UNL     1     -23.176  -3.725  -9.633  1.00  0.00     0.046 A 
BRANCH  29  32
HETATM   32  O   UNL     1     -25.284  -2.903 -12.485  1.00  0.00    -0.358 OA
HETATM   33  H   UNL     1     -25.755  -3.723 -12.716  1.00  0.00     0.217 HD
ENDBRANCH  29  32
BRANCH  30  34
HETATM   34  O   UNL     1     -25.505  -3.351  -9.789  1.00  0.00    -0.358 OA
HETATM   35  H   UNL     1     -25.360  -2.773  -9.017  1.00  0.00     0.217 HD
ENDBRANCH  30  34
ENDBRANCH  25  26
ENDBRANCH  24  25
ENDBRANCH  22  24
ENDBRANCH  19  20
ENDBRANCH   1  19
TORSDOF 19
ENDMDL
MODEL 2
REMARK VINA RESULT:      -8.3      1.206      1.893
REMARK  19 active torsions:
REMARK  status: ('A' for Active; 'I' for Inactive)
REMARK    1  A    between atoms: C_2  and  C_3 
REMARK    2  A    between atoms: C_3  and  C_4 
REMARK    3  A    between atoms: C_4  and  C_5 
REMARK    4  A    between atoms: C_5  and  C_6 
REMARK    5  A    between atoms: C_7  and  C_8 
REMARK    6  A    between atoms: C_8  and  C_9 
REMARK    7  A    between atoms: C_10  and  C_11 
REMARK    8  A    between atoms: C_11  and  C_12 
REMARK    9  A    between atoms: C_13  and  C_14 
REMARK   10  A    between atoms: C_14  and  C_15 
REMARK   11  A    between atoms: C_16  and  C_17 
REMARK   12  A    between atoms: C_17  and  C_18 
REMARK   13  A    between atoms: C_18  and  C_19 
REMARK   14  A    between atoms: C_19  and  C_20 
REMARK       I    between atoms: C_20  and  N_22 
REMARK   15  A    between atoms: N_22  and  C_23 
REMARK   16  A    between atoms: C_23  and  C_24 
REMARK   17  A    between atoms: C_24  and  C_25 
REMARK   18  A    between atoms: C_28  and  O_29 
REMARK   19  A    between atoms: C_30  and  O_31 
ROOT
HETATM    1  C   UNL     1     -21.912  -6.674  -4.029  1.00  0.00     0.013 C 
ENDROOT
BRANCH   1   2
HETATM    2  C   UNL     1     -21.536  -5.894  -2.772  1.00  0.00     0.027 C 
BRANCH   2   3
HETATM    3  C   UNL     1     -22.209  -6.450  -1.552  1.00  0.00    -0.030 C 
HETATM    4  C   UNL     1     -21.713  -7.490  -0.864  1.00  0.00    -0.027 C 
BRANCH   4   5
HETATM    5  C   UNL     1     -22.371  -8.047   0.359  1.00  0.00     0.053 C 
BRANCH   5   6
HETATM    6  C   UNL     1     -22.534  -9.535   0.275  1.00  0.00    -0.027 C 
HETATM    7  C   UNL     1     -23.716 -10.124   0.038  1.00  0.00    -0.027 C 
BRANCH   7   8
HETATM    8  C   UNL     1     -23.893 -11.608  -0.048  1.00  0.00     0.053 C 
BRANCH   8   9
HETATM    9  C   UNL     1     -23.733 -12.103  -1.455  1.00  0.00    -0.027 C 
HETATM   10  C   UNL     1     -22.864 -13.050  -1.800  1.00  0.00    -0.027 C 
BRANCH  10  11
HETATM   11  C   UNL     1     -22.700 -13.547  -3.205  1.00  0.00     0.053 C 
BRANCH  11  12
HETATM   12  C   UNL     1     -22.394 -12.419  -4.144  1.00  0.00    -0.027 C 
HETATM   13  C   UNL     1     -21.555 -12.529  -5.171  1.00  0.00    -0.030 C 
BRANCH  13  14
HETATM   14  C   UNL     1     -21.248 -11.398  -6.106  1.00  0.00     0.027 C 
BRANCH  14  15
HETATM   15  C   UNL     1     -20.982 -10.115  -5.331  1.00  0.00     0.004 C 
BRANCH  15  16
HETATM   16  C   UNL     1     -19.484  -9.904  -5.142  1.00  0.00    -0.000 C 
BRANCH  16  17
HETATM   17  C   UNL     1     -19.183  -9.404  -3.732  1.00  0.00    -0.005 C 
HETATM   18  C   UNL     1     -20.229  -9.906  -2.753  1.00  0.00     0.005 C 
ENDBRANCH  16  17
ENDBRANCH  15  16
ENDBRANCH  14  15
ENDBRANCH  13  14
ENDBRANCH  11  12
ENDBRANCH  10  11
ENDBRANCH   8   9
ENDBRANCH   7   8
ENDBRANCH   5   6
ENDBRANCH   4   5
ENDBRANCH   2   3
ENDBRANCH   1   2
BRANCH   1  19
HETATM   19  C   UNL     1     -20.934  -6.443  -5.187  1.00  0.00     0.103 C 
BRANCH  19  20
HETATM   20  C   UNL     1     -21.504  -5.440  -6.171  1.00  0.00     0.217 C 
HETATM   21  O   UNL     1     -22.700  -5.174  -6.240  1.00  0.00    -0.274 OA
HETATM   22  N   UNL     1     -20.572  -4.838  -6.992  1.00  0.00    -0.361 N 
HETATM   23  H   UNL     1     -19.600  -5.117  -6.948  1.00  0.00     0.162 HD
BRANCH  22  24
HETATM   24  C   UNL     1     -21.025  -3.862  -7.972  1.00  0.00     0.127 C 
BRANCH  24  25
HETATM   25  C   UNL     1     -20.732  -4.257  -9.418  1.00  0.00     0.058 C 
BRANCH  25  26
HETATM   26  C   UNL     1     -21.826  -3.811 -10.359  1.00  0.00    -0.054 A 
HETATM   27  C   UNL     1     -21.546  -3.493 -11.694  1.00  0.00     0.010 A 
HETATM   28  C   UNL     1     -22.576  -3.064 -12.542  1.00  0.00     0.040 A 
HETATM   29  C   UNL     1     -23.881  -2.958 -12.062  1.00  0.00     0.098 A 
HETATM   30  C   UNL     1     -24.162  -3.283 -10.742  1.00  0.00     0.099 A 
HETATM   31  C   UNL     1     -23.144  -3.693  -9.891  1.00  0.00     0.046 A 
BRANCH  29  32
HETATM   32  O   UNL     1     -24.914  -2.536 -12.854  1.00  0.00    -0.358 OA
HETATM   33  H   UNL     1     -25.682  -2.334 -12.292  1.00  0.00     0.217 HD
ENDBRANCH  29  32
BRANCH  30  34
HETATM   34  O   UNL     1     -25.432  -3.221 -10.250  1.00  0.00    -0.358 OA
HETATM   35  H   UNL     1     -25.406  -3.737  -9.422  1.00  0.00     0.217 HD
ENDBRANCH  30  34
ENDBRANCH  25  26
ENDBRANCH  24  25
ENDBRANCH  22  24
ENDBRANCH  19  20
ENDBRANCH   1  19
TORSDOF 19
ENDMDL
MODEL 3
REMARK VINA RESULT:      -8.1      1.655      2.027
REMARK  19 active torsions:
REMARK  status: ('A' for Active; 'I' for Inactive)
REMARK    1  A    between atoms: C_2  and  C_3 
REMARK    2  A    between atoms: C_3  and  C_4 
REMARK    3  A    between atoms: C_4  and  C_5 
REMARK    4  A    between atoms: C_5  and  C_6 
REMARK    5  A    between atoms: C_7  and  C_8 
REMARK    6  A    between atoms: C_8  and  C_9 
REMARK    7  A    between atoms: C_10  and  C_11 
REMARK    8  A    between atoms: C_11  and  C_12 
REMARK    9  A    between atoms: C_13  and  C_14 
REMARK   10  A    between atoms: C_14  and  C_15 
REMARK   11  A    between atoms: C_16  and  C_17 
REMARK   12  A    between atoms: C_17  and  C_18 
REMARK   13  A    between atoms: C_18  and  C_19 
REMARK   14  A    between atoms: C_19  and  C_20 
REMARK       I    between atoms: C_20  and  N_22 
REMARK   15  A    between atoms: N_22  and  C_23 
REMARK   16  A    between atoms: C_23  and  C_24 
REMARK   17  A    between atoms: C_24  and  C_25 
REMARK   18  A    between atoms: C_28  and  O_29 
REMARK   19  A    between atoms: C_30  and  O_31 
ROOT
HETATM    1  C   UNL     1     -21.915  -6.792  -4.233  1.00  0.00     0.013 C 
ENDROOT
BRANCH   1   2
HETATM    2  C   UNL     1     -21.427  -6.124  -2.949  1.00  0.00     0.027 C 
BRANCH   2   3
HETATM    3  C   UNL     1     -22.334  -6.419  -1.792  1.00  0.00    -0.030 C 
HETATM    4  C   UNL     1     -21.996  -7.265  -0.806  1.00  0.00    -0.027 C 
BRANCH   4   5
HETATM    5  C   UNL     1     -22.890  -7.559   0.358  1.00  0.00     0.053 C 
BRANCH   5   6
HETATM    6  C   UNL     1     -23.377  -8.977   0.340  1.00  0.00    -0.027 C 
HETATM    7  C   UNL     1     -22.786  -9.938  -0.385  1.00  0.00    -0.027 C 
BRANCH   7   8
HETATM    8  C   UNL     1     -23.262 -11.358  -0.411  1.00  0.00     0.053 C 
BRANCH   8   9
HETATM    9  C   UNL     1     -22.121 -12.322  -0.544  1.00  0.00    -0.027 C 
HETATM   10  C   UNL     1     -20.850 -11.978  -0.348  1.00  0.00    -0.027 C 
BRANCH  10  11
HETATM   11  C   UNL     1     -19.706 -12.937  -0.482  1.00  0.00     0.053 C 
BRANCH  11  12
HETATM   12  C   UNL     1     -18.392 -12.238  -0.303  1.00  0.00    -0.027 C 
HETATM   13  C   UNL     1     -17.480 -12.137  -1.267  1.00  0.00    -0.030 C 
BRANCH  13  14
HETATM   14  C   UNL     1     -16.165 -11.441  -1.083  1.00  0.00     0.027 C 
BRANCH  14  15
HETATM   15  C   UNL     1     -15.658 -10.887  -2.408  1.00  0.00     0.004 C 
BRANCH  15  16
HETATM   16  C   UNL     1     -16.488  -9.682  -2.838  1.00  0.00    -0.000 C 
BRANCH  16  17
HETATM   17  C   UNL     1     -16.928  -9.821  -4.292  1.00  0.00    -0.005 C 
HETATM   18  C   UNL     1     -16.423 -11.126  -4.880  1.00  0.00     0.005 C 
ENDBRANCH  16  17
ENDBRANCH  15  16
ENDBRANCH  14  15
ENDBRANCH  13  14
ENDBRANCH  11  12
ENDBRANCH  10  11
ENDBRANCH   8   9
ENDBRANCH   7   8
ENDBRANCH   5   6
ENDBRANCH   4   5
ENDBRANCH   2   3
ENDBRANCH   1   2
BRANCH   1  19
HETATM   19  C   UNL     1     -20.831  -6.862  -5.315  1.00  0.00     0.103 C 
BRANCH  19  20
HETATM   20  C   UNL     1     -20.656  -5.510  -5.980  1.00  0.00     0.217 C 
HETATM   21  O   UNL     1     -20.040  -4.583  -5.462  1.00  0.00    -0.274 OA
HETATM   22  N   UNL     1     -21.242  -5.395  -7.225  1.00  0.00    -0.361 N 
HETATM   23  H   UNL     1     -21.788  -6.159  -7.602  1.00  0.00     0.162 HD
BRANCH  22  24
HETATM   24  C   UNL     1     -21.130  -4.133  -7.940  1.00  0.00     0.127 C 
BRANCH  24  25
HETATM   25  C   UNL     1     -20.726  -4.286  -9.404  1.00  0.00     0.058 C 
BRANCH  25  26
HETATM   26  C   UNL     1     -21.820  -3.834 -10.343  1.00  0.00    -0.054 A 
HETATM   27  C   UNL     1     -21.541  -3.518 -11.679  1.00  0.00     0.010 A 
HETATM   28  C   UNL     1     -22.571  -3.083 -12.525  1.00  0.00     0.040 A 
HETATM   29  C   UNL     1     -23.873  -2.970 -12.043  1.00  0.00     0.098 A 
HETATM   30  C   UNL     1     -24.154  -3.294 -10.722  1.00  0.00     0.099 A 
HETATM   31  C   UNL     1     -23.136  -3.709  -9.872  1.00  0.00     0.046 A 
BRANCH  29  32
HETATM   32  O   UNL     1     -24.906  -2.543 -12.833  1.00  0.00    -0.358 OA
HETATM   33  H   UNL     1     -24.769  -2.872 -13.738  1.00  0.00     0.217 HD
ENDBRANCH  29  32
BRANCH  30  34
HETATM   34  O   UNL     1     -25.423  -3.226 -10.228  1.00  0.00    -0.358 OA
HETATM   35  H   UNL     1     -25.337  -3.453  -9.283  1.00  0.00     0.217 HD
ENDBRANCH  30  34
ENDBRANCH  25  26
ENDBRANCH  24  25
ENDBRANCH  22  24
ENDBRANCH  19  20
ENDBRANCH   1  19
TORSDOF 19
ENDMDL
MODEL 4
REMARK VINA RESULT:      -7.5      1.636      2.825
REMARK  19 active torsions:
REMARK  status: ('A' for Active; 'I' for Inactive)
REMARK    1  A    between atoms: C_2  and  C_3 
REMARK    2  A    between atoms: C_3  and  C_4 
REMARK    3  A    between atoms: C_4  and  C_5 
REMARK    4  A    between atoms: C_5  and  C_6 
REMARK    5  A    between atoms: C_7  and  C_8 
REMARK    6  A    between atoms: C_8  and  C_9 
REMARK    7  A    between atoms: C_10  and  C_11 
REMARK    8  A    between atoms: C_11  and  C_12 
REMARK    9  A    between atoms: C_13  and  C_14 
REMARK   10  A    between atoms: C_14  and  C_15 
REMARK   11  A    between atoms: C_16  and  C_17 
REMARK   12  A    between atoms: C_17  and  C_18 
REMARK   13  A    between atoms: C_18  and  C_19 
REMARK   14  A    between atoms: C_19  and  C_20 
REMARK       I    between atoms: C_20  and  N_22 
REMARK   15  A    between atoms: N_22  and  C_23 
REMARK   16  A    between atoms: C_23  and  C_24 
REMARK   17  A    between atoms: C_24  and  C_25 
REMARK   18  A    between atoms: C_28  and  O_29 
REMARK   19  A    between atoms: C_30  and  O_31 
ROOT
HETATM    1  C   UNL     1     -21.601  -6.063  -3.440  1.00  0.00     0.013 C 
ENDROOT
BRANCH   1   2
HETATM    2  C   UNL     1     -20.976  -6.652  -2.178  1.00  0.00     0.027 C 
BRANCH   2   3
HETATM    3  C   UNL     1     -21.852  -7.705  -1.567  1.00  0.00    -0.030 C 
HETATM    4  C   UNL     1     -22.326  -7.613  -0.315  1.00  0.00    -0.027 C 
BRANCH   4   5
HETATM    5  C   UNL     1     -23.208  -8.654   0.302  1.00  0.00     0.053 C 
BRANCH   5   6
HETATM    6  C   UNL     1     -22.803 -10.038  -0.106  1.00  0.00    -0.027 C 
HETATM    7  C   UNL     1     -21.651 -10.603   0.286  1.00  0.00    -0.027 C 
BRANCH   7   8
HETATM    8  C   UNL     1     -21.234 -11.984  -0.114  1.00  0.00     0.053 C 
BRANCH   8   9
HETATM    9  C   UNL     1     -20.034 -11.962  -1.013  1.00  0.00    -0.027 C 
HETATM   10  C   UNL     1     -19.455 -10.837  -1.426  1.00  0.00    -0.027 C 
BRANCH  10  11
HETATM   11  C   UNL     1     -18.256 -10.809  -2.327  1.00  0.00     0.053 C 
BRANCH  11  12
HETATM   12  C   UNL     1     -18.455 -11.697  -3.519  1.00  0.00    -0.027 C 
HETATM   13  C   UNL     1     -18.630 -11.234  -4.754  1.00  0.00    -0.030 C 
BRANCH  13  14
HETATM   14  C   UNL     1     -18.832 -12.124  -5.943  1.00  0.00     0.027 C 
BRANCH  14  15
HETATM   15  C   UNL     1     -20.310 -12.443  -6.133  1.00  0.00     0.004 C 
BRANCH  15  16
HETATM   16  C   UNL     1     -21.174 -11.280  -5.656  1.00  0.00    -0.000 C 
BRANCH  16  17
HETATM   17  C   UNL     1     -22.265 -11.773  -4.710  1.00  0.00    -0.005 C 
HETATM   18  C   UNL     1     -22.506 -10.763  -3.602  1.00  0.00     0.005 C 
ENDBRANCH  16  17
ENDBRANCH  15  16
ENDBRANCH  14  15
ENDBRANCH  13  14
ENDBRANCH  11  12
ENDBRANCH  10  11
ENDBRANCH   8   9
ENDBRANCH   7   8
ENDBRANCH   5   6
ENDBRANCH   4   5
ENDBRANCH   2   3
ENDBRANCH   1   2
BRANCH   1  19
HETATM   19  C   UNL     1     -21.915  -7.126  -4.500  1.00  0.00     0.103 C 
BRANCH  19  20
HETATM   20  C   UNL     1     -21.159  -6.837  -5.783  1.00  0.00     0.217 C 
HETATM   21  O   UNL     1     -20.134  -7.430  -6.104  1.00  0.00    -0.274 OA
HETATM   22  N   UNL     1     -21.714  -5.851  -6.574  1.00  0.00    -0.361 N 
HETATM   23  H   UNL     1     -22.531  -5.344  -6.257  1.00  0.00     0.162 HD
BRANCH  22  24
HETATM   24  C   UNL     1     -21.058  -5.502  -7.825  1.00  0.00     0.127 C 
BRANCH  24  25
HETATM   25  C   UNL     1     -21.161  -4.022  -8.185  1.00  0.00     0.058 C 
BRANCH  25  26
HETATM   26  C   UNL     1     -22.164  -3.776  -9.287  1.00  0.00    -0.054 A 
HETATM   27  C   UNL     1     -21.753  -3.633 -10.619  1.00  0.00     0.010 A 
HETATM   28  C   UNL     1     -22.702  -3.386 -11.621  1.00  0.00     0.040 A 
HETATM   29  C   UNL     1     -24.055  -3.288 -11.297  1.00  0.00     0.098 A 
HETATM   30  C   UNL     1     -24.464  -3.441  -9.979  1.00  0.00     0.099 A 
HETATM   31  C   UNL     1     -23.529  -3.669  -8.978  1.00  0.00     0.046 A 
BRANCH  29  32
HETATM   32  O   UNL     1     -25.012  -3.041 -12.243  1.00  0.00    -0.358 OA
HETATM   33  H   UNL     1     -25.753  -3.660 -12.113  1.00  0.00     0.217 HD
ENDBRANCH  29  32
BRANCH  30  34
HETATM   34  O   UNL     1     -25.782  -3.385  -9.634  1.00  0.00    -0.358 OA
HETATM   35  H   UNL     1     -25.790  -2.999  -8.738  1.00  0.00     0.217 HD
ENDBRANCH  30  34
ENDBRANCH  25  26
ENDBRANCH  24  25
ENDBRANCH  22  24
ENDBRANCH  19  20
ENDBRANCH   1  19
TORSDOF 19
ENDMDL
MODEL 5
REMARK VINA RESULT:      -7.4      3.271      8.573
REMARK  19 active torsions:
REMARK  status: ('A' for Active; 'I' for Inactive)
REMARK    1  A    between atoms: C_2  and  C_3 
REMARK    2  A    between atoms: C_3  and  C_4 
REMARK    3  A    between atoms: C_4  and  C_5 
REMARK    4  A    between atoms: C_5  and  C_6 
REMARK    5  A    between atoms: C_7  and  C_8 
REMARK    6  A    between atoms: C_8  and  C_9 
REMARK    7  A    between atoms: C_10  and  C_11 
REMARK    8  A    between atoms: C_11  and  C_12 
REMARK    9  A    between atoms: C_13  and  C_14 
REMARK   10  A    between atoms: C_14  and  C_15 
REMARK   11  A    between atoms: C_16  and  C_17 
REMARK   12  A    between atoms: C_17  and  C_18 
REMARK   13  A    between atoms: C_18  and  C_19 
REMARK   14  A    between atoms: C_19  and  C_20 
REMARK       I    between atoms: C_20  and  N_22 
REMARK   15  A    between atoms: N_22  and  C_23 
REMARK   16  A    between atoms: C_23  and  C_24 
REMARK   17  A    between atoms: C_24  and  C_25 
REMARK   18  A    between atoms: C_28  and  O_29 
REMARK   19  A    between atoms: C_30  and  O_31 
ROOT
HETATM    1  C   UNL     1     -23.451 -12.570   0.717  1.00  0.00     0.013 C 
ENDROOT
BRANCH   1   2
HETATM    2  C   UNL     1     -23.859 -11.584  -0.375  1.00  0.00     0.027 C 
BRANCH   2   3
HETATM    3  C   UNL     1     -23.577 -10.166   0.025  1.00  0.00    -0.030 C 
HETATM    4  C   UNL     1     -22.345  -9.737   0.343  1.00  0.00    -0.027 C 
BRANCH   4   5
HETATM    5  C   UNL     1     -22.050  -8.323   0.734  1.00  0.00     0.053 C 
BRANCH   5   6
HETATM    6  C   UNL     1     -22.436  -7.355  -0.344  1.00  0.00    -0.027 C 
HETATM    7  C   UNL     1     -21.724  -7.203  -1.471  1.00  0.00    -0.027 C 
BRANCH   7   8
HETATM    8  C   UNL     1     -22.098  -6.241  -2.557  1.00  0.00     0.053 C 
BRANCH   8   9
HETATM    9  C   UNL     1     -21.296  -6.474  -3.802  1.00  0.00    -0.027 C 
HETATM   10  C   UNL     1     -20.978  -5.504  -4.656  1.00  0.00    -0.027 C 
BRANCH  10  11
HETATM   11  C   UNL     1     -20.179  -5.732  -5.903  1.00  0.00     0.053 C 
BRANCH  11  12
HETATM   12  C   UNL     1     -20.596  -4.788  -6.992  1.00  0.00    -0.027 C 
HETATM   13  C   UNL     1     -21.820  -4.766  -7.511  1.00  0.00    -0.030 C 
BRANCH  13  14
HETATM   14  C   UNL     1     -22.233  -3.825  -8.602  1.00  0.00     0.027 C 
BRANCH  14  15
HETATM   15  C   UNL     1     -23.686  -4.058  -8.995  1.00  0.00     0.004 C 
BRANCH  15  16
HETATM   16  C   UNL     1     -23.794  -4.373 -10.483  1.00  0.00    -0.000 C 
BRANCH  16  17
HETATM   17  C   UNL     1     -23.231  -3.226 -11.319  1.00  0.00    -0.005 C 
HETATM   18  C   UNL     1     -22.020  -3.686 -12.109  1.00  0.00     0.005 C 
ENDBRANCH  16  17
ENDBRANCH  15  16
ENDBRANCH  14  15
ENDBRANCH  13  14
ENDBRANCH  11  12
ENDBRANCH  10  11
ENDBRANCH   8   9
ENDBRANCH   7   8
ENDBRANCH   5   6
ENDBRANCH   4   5
ENDBRANCH   2   3
ENDBRANCH   1   2
BRANCH   1  19
HETATM   19  C   UNL     1     -22.882 -13.878   0.154  1.00  0.00     0.103 C 
BRANCH  19  20
HETATM   20  C   UNL     1     -21.768 -13.591  -0.834  1.00  0.00     0.217 C 
HETATM   21  O   UNL     1     -21.818 -13.924  -2.014  1.00  0.00    -0.274 OA
HETATM   22  N   UNL     1     -20.683 -12.919  -0.307  1.00  0.00    -0.361 N 
HETATM   23  H   UNL     1     -20.649 -12.705   0.682  1.00  0.00     0.162 HD
BRANCH  22  24
HETATM   24  C   UNL     1     -19.563 -12.602  -1.180  1.00  0.00     0.127 C 
BRANCH  24  25
HETATM   25  C   UNL     1     -19.309 -11.105  -1.339  1.00  0.00     0.058 C 
BRANCH  25  26
HETATM   26  C   UNL     1     -19.903 -10.563  -2.618  1.00  0.00    -0.054 A 
HETATM   27  C   UNL     1     -21.285 -10.598  -2.844  1.00  0.00     0.010 A 
HETATM   28  C   UNL     1     -21.810 -10.106  -4.047  1.00  0.00     0.040 A 
HETATM   29  C   UNL     1     -20.961  -9.576  -5.017  1.00  0.00     0.098 A 
HETATM   30  C   UNL     1     -19.592  -9.530  -4.790  1.00  0.00     0.099 A 
HETATM   31  C   UNL     1     -19.062 -10.031  -3.608  1.00  0.00     0.046 A 
BRANCH  29  32
HETATM   32  O   UNL     1     -21.431  -9.091  -6.208  1.00  0.00    -0.358 OA
HETATM   33  H   UNL     1     -22.186  -9.635  -6.495  1.00  0.00     0.217 HD
ENDBRANCH  29  32
BRANCH  30  34
HETATM   34  O   UNL     1     -18.737  -8.988  -5.705  1.00  0.00    -0.358 OA
HETATM   35  H   UNL     1     -19.149  -9.170  -6.571  1.00  0.00     0.217 HD
ENDBRANCH  30  34
ENDBRANCH  25  26
ENDBRANCH  24  25
ENDBRANCH  22  24
ENDBRANCH  19  20
ENDBRANCH   1  19
TORSDOF 19
ENDMDL
MODEL 6
REMARK VINA RESULT:      -7.3      2.254      3.938
REMARK  19 active torsions:
REMARK  status: ('A' for Active; 'I' for Inactive)
REMARK    1  A    between atoms: C_2  and  C_3 
REMARK    2  A    between atoms: C_3  and  C_4 
REMARK    3  A    between atoms: C_4  and  C_5 
REMARK    4  A    between atoms: C_5  and  C_6 
REMARK    5  A    between atoms: C_7  and  C_8 
REMARK    6  A    between atoms: C_8  and  C_9 
REMARK    7  A    between atoms: C_10  and  C_11 
REMARK    8  A    between atoms: C_11  and  C_12 
REMARK    9  A    between atoms: C_13  and  C_14 
REMARK   10  A    between atoms: C_14  and  C_15 
REMARK   11  A    between atoms: C_16  and  C_17 
REMARK   12  A    between atoms: C_17  and  C_18 
REMARK   13  A    between atoms: C_18  and  C_19 
REMARK   14  A    between atoms: C_19  and  C_20 
REMARK       I    between atoms: C_20  and  N_22 
REMARK   15  A    between atoms: N_22  and  C_23 
REMARK   16  A    between atoms: C_23  and  C_24 
REMARK   17  A    between atoms: C_24  and  C_25 
REMARK   18  A    between atoms: C_28  and  O_29 
REMARK   19  A    between atoms: C_30  and  O_31 
ROOT
HETATM    1  C   UNL     1     -21.387  -6.011  -3.016  1.00  0.00     0.013 C 
ENDROOT
BRANCH   1   2
HETATM    2  C   UNL     1     -20.846  -7.019  -2.006  1.00  0.00     0.027 C 
BRANCH   2   3
HETATM    3  C   UNL     1     -21.944  -7.615  -1.175  1.00  0.00    -0.030 C 
HETATM    4  C   UNL     1     -21.847  -7.757   0.156  1.00  0.00    -0.027 C 
BRANCH   4   5
HETATM    5  C   UNL     1     -22.940  -8.341   0.995  1.00  0.00     0.053 C 
BRANCH   5   6
HETATM    6  C   UNL     1     -23.646  -9.459   0.289  1.00  0.00    -0.027 C 
HETATM    7  C   UNL     1     -23.006 -10.544  -0.174  1.00  0.00    -0.027 C 
BRANCH   7   8
HETATM    8  C   UNL     1     -23.698 -11.668  -0.881  1.00  0.00     0.053 C 
BRANCH   8   9
HETATM    9  C   UNL     1     -23.430 -11.642  -2.356  1.00  0.00    -0.027 C 
HETATM   10  C   UNL     1     -22.432 -10.953  -2.903  1.00  0.00    -0.027 C 
BRANCH  10  11
HETATM   11  C   UNL     1     -22.161 -10.922  -4.377  1.00  0.00     0.053 C 
BRANCH  11  12
HETATM   12  C   UNL     1     -21.878 -12.297  -4.903  1.00  0.00    -0.027 C 
HETATM   13  C   UNL     1     -22.546 -12.845  -5.915  1.00  0.00    -0.030 C 
BRANCH  13  14
HETATM   14  C   UNL     1     -22.264 -14.222  -6.437  1.00  0.00     0.027 C 
BRANCH  14  15
HETATM   15  C   UNL     1     -22.561 -15.272  -5.374  1.00  0.00     0.004 C 
BRANCH  15  16
HETATM   16  C   UNL     1     -24.053 -15.312  -5.063  1.00  0.00    -0.000 C 
BRANCH  16  17
HETATM   17  C   UNL     1     -24.845 -15.780  -6.281  1.00  0.00    -0.005 C 
HETATM   18  C   UNL     1     -26.328 -15.531  -6.081  1.00  0.00     0.005 C 
ENDBRANCH  16  17
ENDBRANCH  15  16
ENDBRANCH  14  15
ENDBRANCH  13  14
ENDBRANCH  11  12
ENDBRANCH  10  11
ENDBRANCH   8   9
ENDBRANCH   7   8
ENDBRANCH   5   6
ENDBRANCH   4   5
ENDBRANCH   2   3
ENDBRANCH   1   2
BRANCH   1  19
HETATM   19  C   UNL     1     -22.093  -6.680  -4.202  1.00  0.00     0.103 C 
BRANCH  19  20
HETATM   20  C   UNL     1     -21.338  -6.411  -5.490  1.00  0.00     0.217 C 
HETATM   21  O   UNL     1     -20.202  -6.827  -5.700  1.00  0.00    -0.274 OA
HETATM   22  N   UNL     1     -22.027  -5.659  -6.421  1.00  0.00    -0.361 N 
HETATM   23  H   UNL     1     -22.941  -5.286  -6.197  1.00  0.00     0.162 HD
BRANCH  22  24
HETATM   24  C   UNL     1     -21.383  -5.347  -7.688  1.00  0.00     0.127 C 
BRANCH  24  25
HETATM   25  C   UNL     1     -21.483  -3.877  -8.087  1.00  0.00     0.058 C 
BRANCH  25  26
HETATM   26  C   UNL     1     -22.415  -3.670  -9.257  1.00  0.00    -0.054 A 
HETATM   27  C   UNL     1     -21.925  -3.597 -10.567  1.00  0.00     0.010 A 
HETATM   28  C   UNL     1     -22.809  -3.386 -11.634  1.00  0.00     0.040 A 
HETATM   29  C   UNL     1     -24.176  -3.254 -11.397  1.00  0.00     0.098 A 
HETATM   30  C   UNL     1     -24.665  -3.337 -10.100  1.00  0.00     0.099 A 
HETATM   31  C   UNL     1     -23.794  -3.529  -9.035  1.00  0.00     0.046 A 
BRANCH  29  32
HETATM   32  O   UNL     1     -25.072  -3.039 -12.409  1.00  0.00    -0.358 OA
HETATM   33  H   UNL     1     -25.954  -3.331 -12.118  1.00  0.00     0.217 HD
ENDBRANCH  29  32
BRANCH  30  34
HETATM   34  O   UNL     1     -26.000  -3.245  -9.836  1.00  0.00    -0.358 OA
HETATM   35  H   UNL     1     -26.388  -2.857 -10.643  1.00  0.00     0.217 HD
ENDBRANCH  30  34
ENDBRANCH  25  26
ENDBRANCH  24  25
ENDBRANCH  22  24
ENDBRANCH  19  20
ENDBRANCH   1  19
TORSDOF 19
ENDMDL
MODEL 7
REMARK VINA RESULT:      -7.3      3.974      8.968
REMARK  19 active torsions:
REMARK  status: ('A' for Active; 'I' for Inactive)
REMARK    1  A    between atoms: C_2  and  C_3 
REMARK    2  A    between atoms: C_3  and  C_4 
REMARK    3  A    between atoms: C_4  and  C_5 
REMARK    4  A    between atoms: C_5  and  C_6 
REMARK    5  A    between atoms: C_7  and  C_8 
REMARK    6  A    between atoms: C_8  and  C_9 
REMARK    7  A    between atoms: C_10  and  C_11 
REMARK    8  A    between atoms: C_11  and  C_12 
REMARK    9  A    between atoms: C_13  and  C_14 
REMARK   10  A    between atoms: C_14  and  C_15 
REMARK   11  A    between atoms: C_16  and  C_17 
REMARK   12  A    between atoms: C_17  and  C_18 
REMARK   13  A    between atoms: C_18  and  C_19 
REMARK   14  A    between atoms: C_19  and  C_20 
REMARK       I    between atoms: C_20  and  N_22 
REMARK   15  A    between atoms: N_22  and  C_23 
REMARK   16  A    between atoms: C_23  and  C_24 
REMARK   17  A    between atoms: C_24  and  C_25 
REMARK   18  A    between atoms: C_28  and  O_29 
REMARK   19  A    between atoms: C_30  and  O_31 
ROOT
HETATM    1  C   UNL     1     -21.640  -9.753   0.329  1.00  0.00     0.013 C 
ENDROOT
BRANCH   1   2
HETATM    2  C   UNL     1     -21.978  -8.381   0.909  1.00  0.00     0.027 C 
BRANCH   2   3
HETATM    3  C   UNL     1     -22.379  -7.411  -0.163  1.00  0.00    -0.030 C 
HETATM    4  C   UNL     1     -21.578  -7.102  -1.194  1.00  0.00    -0.027 C 
BRANCH   4   5
HETATM    5  C   UNL     1     -21.972  -6.143  -2.274  1.00  0.00     0.053 C 
BRANCH   5   6
HETATM    6  C   UNL     1     -22.039  -6.810  -3.614  1.00  0.00    -0.027 C 
HETATM    7  C   UNL     1     -21.202  -6.508  -4.618  1.00  0.00    -0.027 C 
BRANCH   7   8
HETATM    8  C   UNL     1     -21.258  -7.167  -5.962  1.00  0.00     0.053 C 
BRANCH   8   9
HETATM    9  C   UNL     1     -20.650  -6.304  -7.027  1.00  0.00    -0.027 C 
HETATM   10  C   UNL     1     -20.224  -5.063  -6.804  1.00  0.00    -0.027 C 
BRANCH  10  11
HETATM   11  C   UNL     1     -19.618  -4.195  -7.866  1.00  0.00     0.053 C 
BRANCH  11  12
HETATM   12  C   UNL     1     -20.145  -4.554  -9.223  1.00  0.00    -0.027 C 
HETATM   13  C   UNL     1     -20.509  -3.650 -10.128  1.00  0.00    -0.030 C 
BRANCH  13  14
HETATM   14  C   UNL     1     -21.039  -4.012 -11.483  1.00  0.00     0.027 C 
BRANCH  14  15
HETATM   15  C   UNL     1     -22.057  -2.982 -11.957  1.00  0.00     0.004 C 
BRANCH  15  16
HETATM   16  C   UNL     1     -23.372  -3.659 -12.326  1.00  0.00    -0.000 C 
BRANCH  16  17
HETATM   17  C   UNL     1     -24.474  -3.266 -11.348  1.00  0.00    -0.005 C 
HETATM   18  C   UNL     1     -24.179  -3.813  -9.963  1.00  0.00     0.005 C 
ENDBRANCH  16  17
ENDBRANCH  15  16
ENDBRANCH  14  15
ENDBRANCH  13  14
ENDBRANCH  11  12
ENDBRANCH  10  11
ENDBRANCH   8   9
ENDBRANCH   7   8
ENDBRANCH   5   6
ENDBRANCH   4   5
ENDBRANCH   2   3
ENDBRANCH   1   2
BRANCH   1  19
HETATM   19  C   UNL     1     -22.886 -10.551  -0.072  1.00  0.00     0.103 C 
BRANCH  19  20
HETATM   20  C   UNL     1     -22.669 -11.240  -1.406  1.00  0.00     0.217 C 
HETATM   21  O   UNL     1     -23.341 -12.195  -1.785  1.00  0.00    -0.274 OA
HETATM   22  N   UNL     1     -21.652 -10.709  -2.175  1.00  0.00    -0.361 N 
HETATM   23  H   UNL     1     -21.081  -9.956  -1.812  1.00  0.00     0.162 HD
BRANCH  22  24
HETATM   24  C   UNL     1     -21.366 -11.306  -3.471  1.00  0.00     0.127 C 
BRANCH  24  25
HETATM   25  C   UNL     1     -20.966 -10.294  -4.542  1.00  0.00     0.058 C 
BRANCH  25  26
HETATM   26  C   UNL     1     -19.468 -10.230  -4.728  1.00  0.00    -0.054 A 
HETATM   27  C   UNL     1     -18.872 -10.630  -5.931  1.00  0.00     0.010 A 
HETATM   28  C   UNL     1     -17.478 -10.579  -6.072  1.00  0.00     0.040 A 
HETATM   29  C   UNL     1     -16.683 -10.126  -5.021  1.00  0.00     0.098 A 
HETATM   30  C   UNL     1     -17.274  -9.720  -3.831  1.00  0.00     0.099 A 
HETATM   31  C   UNL     1     -18.652  -9.783  -3.677  1.00  0.00     0.046 A 
BRANCH  29  32
HETATM   32  O   UNL     1     -15.319 -10.067  -5.114  1.00  0.00    -0.358 OA
HETATM   33  H   UNL     1     -15.074  -9.813  -6.021  1.00  0.00     0.217 HD
ENDBRANCH  29  32
BRANCH  30  34
HETATM   34  O   UNL     1     -16.527  -9.241  -2.795  1.00  0.00    -0.358 OA
HETATM   35  H   UNL     1     -16.002  -8.514  -3.180  1.00  0.00     0.217 HD
ENDBRANCH  30  34
ENDBRANCH  25  26
ENDBRANCH  24  25
ENDBRANCH  22  24
ENDBRANCH  19  20
ENDBRANCH   1  19
TORSDOF 19
ENDMDL
MODEL 8
REMARK VINA RESULT:      -7.3      2.407      3.184
REMARK  19 active torsions:
REMARK  status: ('A' for Active; 'I' for Inactive)
REMARK    1  A    between atoms: C_2  and  C_3 
REMARK    2  A    between atoms: C_3  and  C_4 
REMARK    3  A    between atoms: C_4  and  C_5 
REMARK    4  A    between atoms: C_5  and  C_6 
REMARK    5  A    between atoms: C_7  and  C_8 
REMARK    6  A    between atoms: C_8  and  C_9 
REMARK    7  A    between atoms: C_10  and  C_11 
REMARK    8  A    between atoms: C_11  and  C_12 
REMARK    9  A    between atoms: C_13  and  C_14 
REMARK   10  A    between atoms: C_14  and  C_15 
REMARK   11  A    between atoms: C_16  and  C_17 
REMARK   12  A    between atoms: C_17  and  C_18 
REMARK   13  A    between atoms: C_18  and  C_19 
REMARK   14  A    between atoms: C_19  and  C_20 
REMARK       I    between atoms: C_20  and  N_22 
REMARK   15  A    between atoms: N_22  and  C_23 
REMARK   16  A    between atoms: C_23  and  C_24 
REMARK   17  A    between atoms: C_24  and  C_25 
REMARK   18  A    between atoms: C_28  and  O_29 
REMARK   19  A    between atoms: C_30  and  O_31 
ROOT
HETATM    1  C   UNL     1     -20.711  -7.329  -3.908  1.00  0.00     0.013 C 
ENDROOT
BRANCH   1   2
HETATM    2  C   UNL     1     -21.361  -6.528  -2.782  1.00  0.00     0.027 C 
BRANCH   2   3
HETATM    3  C   UNL     1     -21.638  -7.385  -1.582  1.00  0.00    -0.030 C 
HETATM    4  C   UNL     1     -22.560  -7.062  -0.662  1.00  0.00    -0.027 C 
BRANCH   4   5
HETATM    5  C   UNL     1     -22.850  -7.915   0.534  1.00  0.00     0.053 C 
BRANCH   5   6
HETATM    6  C   UNL     1     -21.772  -8.929   0.769  1.00  0.00    -0.027 C 
HETATM    7  C   UNL     1     -21.838 -10.182   0.291  1.00  0.00    -0.027 C 
BRANCH   7   8
HETATM    8  C   UNL     1     -20.768 -11.205   0.518  1.00  0.00     0.053 C 
BRANCH   8   9
HETATM    9  C   UNL     1     -19.716 -11.151  -0.549  1.00  0.00    -0.027 C 
HETATM   10  C   UNL     1     -19.838 -10.425  -1.657  1.00  0.00    -0.027 C 
BRANCH  10  11
HETATM   11  C   UNL     1     -18.790 -10.369  -2.727  1.00  0.00     0.053 C 
BRANCH  11  12
HETATM   12  C   UNL     1     -17.697 -11.361  -2.465  1.00  0.00    -0.027 C 
HETATM   13  C   UNL     1     -16.424 -11.018  -2.289  1.00  0.00    -0.030 C 
BRANCH  13  14
HETATM   14  C   UNL     1     -15.333 -12.013  -2.031  1.00  0.00     0.027 C 
BRANCH  14  15
HETATM   15  C   UNL     1     -15.885 -13.252  -1.339  1.00  0.00     0.004 C 
BRANCH  15  16
HETATM   16  C   UNL     1     -16.301 -12.925   0.091  1.00  0.00    -0.000 C 
BRANCH  16  17
HETATM   17  C   UNL     1     -15.102 -12.450   0.906  1.00  0.00    -0.005 C 
HETATM   18  C   UNL     1     -14.082 -13.564   1.055  1.00  0.00     0.005 C 
ENDBRANCH  16  17
ENDBRANCH  15  16
ENDBRANCH  14  15
ENDBRANCH  13  14
ENDBRANCH  11  12
ENDBRANCH  10  11
ENDBRANCH   8   9
ENDBRANCH   7   8
ENDBRANCH   5   6
ENDBRANCH   4   5
ENDBRANCH   2   3
ENDBRANCH   1   2
BRANCH   1  19
HETATM   19  C   UNL     1     -21.478  -7.222  -5.232  1.00  0.00     0.103 C 
BRANCH  19  20
HETATM   20  C   UNL     1     -20.969  -6.050  -6.048  1.00  0.00     0.217 C 
HETATM   21  O   UNL     1     -20.404  -5.081  -5.549  1.00  0.00    -0.274 OA
HETATM   22  N   UNL     1     -21.184  -6.152  -7.408  1.00  0.00    -0.361 N 
HETATM   23  H   UNL     1     -21.700  -6.938  -7.784  1.00  0.00     0.162 HD
BRANCH  22  24
HETATM   24  C   UNL     1     -20.732  -5.073  -8.274  1.00  0.00     0.127 C 
BRANCH  24  25
HETATM   25  C   UNL     1     -21.629  -3.837  -8.241  1.00  0.00     0.058 C 
BRANCH  25  26
HETATM   26  C   UNL     1     -22.427  -3.684  -9.514  1.00  0.00    -0.054 A 
HETATM   27  C   UNL     1     -23.820  -3.536  -9.480  1.00  0.00     0.010 A 
HETATM   28  C   UNL     1     -24.540  -3.415 -10.677  1.00  0.00     0.040 A 
HETATM   29  C   UNL     1     -23.874  -3.434 -11.901  1.00  0.00     0.098 A 
HETATM   30  C   UNL     1     -22.492  -3.569 -11.936  1.00  0.00     0.099 A 
HETATM   31  C   UNL     1     -21.773  -3.707 -10.755  1.00  0.00     0.046 A 
BRANCH  29  32
HETATM   32  O   UNL     1     -24.539  -3.325 -13.092  1.00  0.00    -0.358 OA
HETATM   33  H   UNL     1     -23.962  -2.880 -13.738  1.00  0.00     0.217 HD
ENDBRANCH  29  32
BRANCH  30  34
HETATM   34  O   UNL     1     -21.807  -3.558 -13.115  1.00  0.00    -0.358 OA
HETATM   35  H   UNL     1     -21.853  -2.634 -13.424  1.00  0.00     0.217 HD
ENDBRANCH  30  34
ENDBRANCH  25  26
ENDBRANCH  24  25
ENDBRANCH  22  24
ENDBRANCH  19  20
ENDBRANCH   1  19
TORSDOF 19
ENDMDL
MODEL 9
REMARK VINA RESULT:      -7.3      2.423      3.500
REMARK  19 active torsions:
REMARK  status: ('A' for Active; 'I' for Inactive)
REMARK    1  A    between atoms: C_2  and  C_3 
REMARK    2  A    between atoms: C_3  and  C_4 
REMARK    3  A    between atoms: C_4  and  C_5 
REMARK    4  A    between atoms: C_5  and  C_6 
REMARK    5  A    between atoms: C_7  and  C_8 
REMARK    6  A    between atoms: C_8  and  C_9 
REMARK    7  A    between atoms: C_10  and  C_11 
REMARK    8  A    between atoms: C_11  and  C_12 
REMARK    9  A    between atoms: C_13  and  C_14 
REMARK   10  A    between atoms: C_14  and  C_15 
REMARK   11  A    between atoms: C_16  and  C_17 
REMARK   12  A    between atoms: C_17  and  C_18 
REMARK   13  A    between atoms: C_18  and  C_19 
REMARK   14  A    between atoms: C_19  and  C_20 
REMARK       I    between atoms: C_20  and  N_22 
REMARK   15  A    between atoms: N_22  and  C_23 
REMARK   16  A    between atoms: C_23  and  C_24 
REMARK   17  A    between atoms: C_24  and  C_25 
REMARK   18  A    between atoms: C_28  and  O_29 
REMARK   19  A    between atoms: C_30  and  O_31 
ROOT
HETATM    1  C   UNL     1     -22.176  -6.556  -3.420  1.00  0.00     0.013 C 
ENDROOT
BRANCH   1   2
HETATM    2  C   UNL     1     -22.131  -6.283  -1.919  1.00  0.00     0.027 C 
BRANCH   2   3
HETATM    3  C   UNL     1     -22.081  -7.555  -1.125  1.00  0.00    -0.030 C 
HETATM    4  C   UNL     1     -21.831  -7.573   0.194  1.00  0.00    -0.027 C 
BRANCH   4   5
HETATM    5  C   UNL     1     -21.788  -8.836   0.997  1.00  0.00     0.053 C 
BRANCH   5   6
HETATM    6  C   UNL     1     -21.027  -9.918   0.292  1.00  0.00    -0.027 C 
HETATM    7  C   UNL     1     -20.934 -11.169   0.768  1.00  0.00    -0.027 C 
BRANCH   7   8
HETATM    8  C   UNL     1     -20.177 -12.259   0.075  1.00  0.00     0.053 C 
BRANCH   8   9
HETATM    9  C   UNL     1     -18.767 -11.848  -0.226  1.00  0.00    -0.027 C 
HETATM   10  C   UNL     1     -17.714 -12.319   0.437  1.00  0.00    -0.027 C 
BRANCH  10  11
HETATM   11  C   UNL     1     -16.302 -11.910   0.142  1.00  0.00     0.053 C 
BRANCH  11  12
HETATM   12  C   UNL     1     -15.970 -12.122  -1.305  1.00  0.00    -0.027 C 
HETATM   13  C   UNL     1     -15.159 -13.085  -1.735  1.00  0.00    -0.030 C 
BRANCH  13  14
HETATM   14  C   UNL     1     -14.825 -13.292  -3.182  1.00  0.00     0.027 C 
BRANCH  14  15
HETATM   15  C   UNL     1     -14.264 -12.015  -3.794  1.00  0.00     0.004 C 
BRANCH  15  16
HETATM   16  C   UNL     1     -13.519 -12.324  -5.088  1.00  0.00    -0.000 C 
BRANCH  16  17
HETATM   17  C   UNL     1     -14.464 -12.926  -6.123  1.00  0.00    -0.005 C 
HETATM   18  C   UNL     1     -15.233 -11.834  -6.843  1.00  0.00     0.005 C 
ENDBRANCH  16  17
ENDBRANCH  15  16
ENDBRANCH  14  15
ENDBRANCH  13  14
ENDBRANCH  11  12
ENDBRANCH  10  11
ENDBRANCH   8   9
ENDBRANCH   7   8
ENDBRANCH   5   6
ENDBRANCH   4   5
ENDBRANCH   2   3
ENDBRANCH   1   2
BRANCH   1  19
HETATM   19  C   UNL     1     -20.870  -7.157  -3.953  1.00  0.00     0.103 C 
BRANCH  19  20
HETATM   20  C   UNL     1     -20.574  -6.634  -5.346  1.00  0.00     0.217 C 
HETATM   21  O   UNL     1     -20.130  -7.339  -6.246  1.00  0.00    -0.274 OA
HETATM   22  N   UNL     1     -20.846  -5.293  -5.532  1.00  0.00    -0.361 N 
HETATM   23  H   UNL     1     -21.161  -4.725  -4.755  1.00  0.00     0.162 HD
BRANCH  22  24
HETATM   24  C   UNL     1     -20.591  -4.699  -6.835  1.00  0.00     0.127 C 
BRANCH  24  25
HETATM   25  C   UNL     1     -21.778  -3.925  -7.405  1.00  0.00     0.058 C 
BRANCH  25  26
HETATM   26  C   UNL     1     -21.754  -3.881  -8.914  1.00  0.00    -0.054 A 
HETATM   27  C   UNL     1     -20.585  -4.179  -9.627  1.00  0.00     0.010 A 
HETATM   28  C   UNL     1     -20.584  -4.112 -11.027  1.00  0.00     0.040 A 
HETATM   29  C   UNL     1     -21.744  -3.755 -11.713  1.00  0.00     0.098 A 
HETATM   30  C   UNL     1     -22.905  -3.470 -11.008  1.00  0.00     0.099 A 
HETATM   31  C   UNL     1     -22.911  -3.517  -9.620  1.00  0.00     0.046 A 
BRANCH  29  32
HETATM   32  O   UNL     1     -21.783  -3.671 -13.079  1.00  0.00    -0.358 OA
HETATM   33  H   UNL     1     -21.494  -4.520 -13.457  1.00  0.00     0.217 HD
ENDBRANCH  29  32
BRANCH  30  34
HETATM   34  O   UNL     1     -24.065  -3.149 -11.650  1.00  0.00    -0.358 OA
HETATM   35  H   UNL     1     -23.859  -3.238 -12.600  1.00  0.00     0.217 HD
ENDBRANCH  30  34
ENDBRANCH  25  26
ENDBRANCH  24  25
ENDBRANCH  22  24
ENDBRANCH  19  20
ENDBRANCH   1  19
TORSDOF 19
ENDMDL
