MODEL 1
REMARK VINA RESULT:     -10.2      0.000      0.000
REMARK  4 active torsions:
REMARK  status: ('A' for Active; 'I' for Inactive)
REMARK    1  A    between atoms: C_5  and  N_8 
REMARK    2  A    between atoms: N_8  and  C_9 
REMARK    3  A    between atoms: C_12  and  N_15 
REMARK    4  A    between atoms: N_15  and  C_16 
ROOT
HETATM    1  C   UNL     1     -21.003  -9.771  -4.654  1.00  0.00     0.048 C 
HETATM    2  C   UNL     1     -20.930  -8.955  -3.521  1.00  0.00     0.058 C 
HETATM    3  C   UNL     1     -21.176  -7.593  -3.618  1.00  0.00     0.053 C 
HETATM    4  C   UNL     1     -21.062  -6.951  -4.858  1.00  0.00     0.028 C 
HETATM    5  C   UNL     1     -21.120  -7.741  -6.005  1.00  0.00     0.027 C 
HETATM    6  C   UNL     1     -21.175  -9.140  -5.896  1.00  0.00     0.032 C 
HETATM    7  C   UNL     1     -21.828  -6.963  -2.440  1.00  0.00     0.196 C 
HETATM    8  O   UNL     1     -22.564  -5.991  -2.569  1.00  0.00    -0.287 OA
HETATM    9  C   UNL     1     -21.722  -7.631  -1.127  1.00  0.00     0.029 A 
HETATM   10  C   UNL     1     -22.408  -7.132  -0.016  1.00  0.00     0.016 A 
HETATM   11  C   UNL     1     -22.263  -7.755   1.226  1.00  0.00     0.001 A 
HETATM   12  C   UNL     1     -21.402  -8.846   1.370  1.00  0.00     0.001 A 
HETATM   13  C   UNL     1     -20.748  -9.367   0.258  1.00  0.00     0.016 A 
HETATM   14  C   UNL     1     -20.963  -8.790  -0.997  1.00  0.00     0.029 A 
HETATM   15  C   UNL     1     -20.515  -9.488  -2.210  1.00  0.00     0.196 C 
HETATM   16  O   UNL     1     -19.819 -10.495  -2.140  1.00  0.00    -0.286 OA
ENDROOT
BRANCH   1  17
HETATM   17  N   UNL     1     -21.167 -11.173  -4.501  1.00  0.00    -0.355 N 
HETATM   18  H   UNL     1     -20.993 -11.449  -3.525  1.00  0.00     0.166 HD
BRANCH  17  19
HETATM   19  C   UNL     1     -20.675 -12.167  -5.365  1.00  0.00     0.032 A 
HETATM   20  C   UNL     1     -21.511 -12.790  -6.299  1.00  0.00     0.030 A 
HETATM   21  C   UNL     1     -21.000 -13.750  -7.167  1.00  0.00     0.009 A 
HETATM   22  C   UNL     1     -19.643 -14.082  -7.139  1.00  0.00    -0.062 A 
HETATM   23  C   UNL     1     -19.103 -15.156  -8.032  1.00  0.00     0.048 C 
HETATM   24  C   UNL     1     -18.794 -13.410  -6.250  1.00  0.00     0.009 A 
HETATM   25  C   UNL     1     -19.306 -12.446  -5.380  1.00  0.00     0.030 A 
ENDBRANCH  17  19
ENDBRANCH   1  17
BRANCH   4  26
HETATM   26  N   UNL     1     -20.896  -5.543  -5.000  1.00  0.00    -0.259 NA
HETATM   27  H   UNL     1     -20.122  -5.236  -4.408  1.00  0.00     0.134 HD
BRANCH  26  28
HETATM   28  C   UNL     1     -20.813  -4.912  -6.277  1.00  0.00     0.012 C 
HETATM   29  C   UNL     1     -21.970  -4.508  -6.959  1.00  0.00     0.024 C 
HETATM   30  C   UNL     1     -21.903  -4.085  -8.289  1.00  0.00     0.008 C 
HETATM   31  C   UNL     1     -20.672  -4.019  -8.942  1.00  0.00    -0.062 C 
HETATM   32  C   UNL     1     -19.506  -4.283  -8.216  1.00  0.00     0.008 C 
HETATM   33  C   UNL     1     -20.597  -3.716 -10.410  1.00  0.00     0.048 C 
HETATM   34  C   UNL     1     -19.573  -4.710  -6.888  1.00  0.00     0.024 C 
ENDBRANCH  26  28
ENDBRANCH   4  26
TORSDOF 4
ENDMDL
MODEL 2
REMARK VINA RESULT:      -9.6      4.123      7.283
REMARK  4 active torsions:
REMARK  status: ('A' for Active; 'I' for Inactive)
REMARK    1  A    between atoms: C_5  and  N_8 
REMARK    2  A    between atoms: N_8  and  C_9 
REMARK    3  A    between atoms: C_12  and  N_15 
REMARK    4  A    between atoms: N_15  and  C_16 
ROOT
HETATM    1  C   UNL     1     -20.412 -12.207  -0.992  1.00  0.00     0.048 C 
HETATM    2  C   UNL     1     -20.201 -10.837  -1.176  1.00  0.00     0.058 C 
HETATM    3  C   UNL     1     -19.129 -10.386  -1.934  1.00  0.00     0.053 C 
HETATM    4  C   UNL     1     -18.025 -11.222  -2.145  1.00  0.00     0.028 C 
HETATM    5  C   UNL     1     -18.203 -12.591  -1.958  1.00  0.00     0.027 C 
HETATM    6  C   UNL     1     -19.421 -13.083  -1.462  1.00  0.00     0.032 C 
HETATM    7  C   UNL     1     -19.361  -9.140  -2.711  1.00  0.00     0.196 C 
HETATM    8  O   UNL     1     -18.777  -8.940  -3.772  1.00  0.00    -0.287 OA
HETATM    9  C   UNL     1     -20.436  -8.223  -2.284  1.00  0.00     0.029 A 
HETATM   10  C   UNL     1     -20.758  -7.098  -3.046  1.00  0.00     0.016 A 
HETATM   11  C   UNL     1     -21.752  -6.221  -2.603  1.00  0.00     0.001 A 
HETATM   12  C   UNL     1     -22.393  -6.443  -1.382  1.00  0.00     0.001 A 
HETATM   13  C   UNL     1     -22.100  -7.583  -0.640  1.00  0.00     0.016 A 
HETATM   14  C   UNL     1     -21.164  -8.499  -1.130  1.00  0.00     0.029 A 
HETATM   15  C   UNL     1     -21.050  -9.828  -0.516  1.00  0.00     0.196 C 
HETATM   16  O   UNL     1     -21.651 -10.102   0.517  1.00  0.00    -0.286 OA
ENDROOT
BRANCH   1  17
HETATM   17  N   UNL     1     -21.692 -12.673  -0.594  1.00  0.00    -0.355 N 
HETATM   18  H   UNL     1     -22.404 -11.950  -0.759  1.00  0.00     0.166 HD
BRANCH  17  19
HETATM   19  C   UNL     1     -21.993 -13.365   0.594  1.00  0.00     0.032 A 
HETATM   20  C   UNL     1     -23.241 -13.228   1.212  1.00  0.00     0.030 A 
HETATM   21  C   UNL     1     -23.532 -13.943   2.369  1.00  0.00     0.009 A 
HETATM   22  C   UNL     1     -22.596 -14.828   2.912  1.00  0.00    -0.062 A 
HETATM   23  C   UNL     1     -22.886 -15.554   4.190  1.00  0.00     0.048 C 
HETATM   24  C   UNL     1     -21.373 -15.014   2.256  1.00  0.00     0.009 A 
HETATM   25  C   UNL     1     -21.081 -14.299   1.093  1.00  0.00     0.030 A 
ENDBRANCH  17  19
ENDBRANCH   1  17
BRANCH   4  26
HETATM   26  N   UNL     1     -16.743 -10.741  -2.543  1.00  0.00    -0.259 NA
HETATM   27  H   UNL     1     -16.180 -10.562  -1.711  1.00  0.00     0.134 HD
BRANCH  26  28
HETATM   28  C   UNL     1     -15.957 -11.404  -3.532  1.00  0.00     0.012 C 
HETATM   29  C   UNL     1     -14.819 -12.142  -3.175  1.00  0.00     0.024 C 
HETATM   30  C   UNL     1     -13.938 -12.612  -4.152  1.00  0.00     0.008 C 
HETATM   31  C   UNL     1     -14.205 -12.388  -5.503  1.00  0.00    -0.062 C 
HETATM   32  C   UNL     1     -15.413 -11.780  -5.863  1.00  0.00     0.008 C 
HETATM   33  C   UNL     1     -13.199 -12.749  -6.555  1.00  0.00     0.048 C 
HETATM   34  C   UNL     1     -16.291 -11.306  -4.885  1.00  0.00     0.024 C 
ENDBRANCH  26  28
ENDBRANCH   4  26
TORSDOF 4
ENDMDL
MODEL 3
REMARK VINA RESULT:      -9.5      4.045      7.470
REMARK  4 active torsions:
REMARK  status: ('A' for Active; 'I' for Inactive)
REMARK    1  A    between atoms: C_5  and  N_8 
REMARK    2  A    between atoms: N_8  and  C_9 
REMARK    3  A    between atoms: C_12  and  N_15 
REMARK    4  A    between atoms: N_15  and  C_16 
ROOT
HETATM    1  C   UNL     1     -17.915 -10.869  -1.982  1.00  0.00     0.048 C 
HETATM    2  C   UNL     1     -19.183 -10.285  -1.925  1.00  0.00     0.058 C 
HETATM    3  C   UNL     1     -20.064 -10.614  -0.904  1.00  0.00     0.053 C 
HETATM    4  C   UNL     1     -19.897 -11.814  -0.200  1.00  0.00     0.028 C 
HETATM    5  C   UNL     1     -18.645 -12.425  -0.248  1.00  0.00     0.027 C 
HETATM    6  C   UNL     1     -17.637 -11.903  -1.073  1.00  0.00     0.032 C 
HETATM    7  C   UNL     1     -20.960  -9.523  -0.440  1.00  0.00     0.196 C 
HETATM    8  O   UNL     1     -21.356  -9.481   0.721  1.00  0.00    -0.287 OA
HETATM    9  C   UNL     1     -21.227  -8.387  -1.345  1.00  0.00     0.029 A 
HETATM   10  C   UNL     1     -21.974  -7.290  -0.911  1.00  0.00     0.016 A 
HETATM   11  C   UNL     1     -22.249  -6.244  -1.795  1.00  0.00     0.001 A 
HETATM   12  C   UNL     1     -21.817  -6.312  -3.122  1.00  0.00     0.001 A 
HETATM   13  C   UNL     1     -21.041  -7.386  -3.546  1.00  0.00     0.016 A 
HETATM   14  C   UNL     1     -20.700  -8.389  -2.633  1.00  0.00     0.029 A 
HETATM   15  C   UNL     1     -19.661  -9.369  -2.977  1.00  0.00     0.196 C 
HETATM   16  O   UNL     1     -19.191  -9.423  -4.108  1.00  0.00    -0.286 OA
ENDROOT
BRANCH   1  17
HETATM   17  N   UNL     1     -16.889 -10.249  -2.743  1.00  0.00    -0.355 N 
HETATM   18  H   UNL     1     -17.227  -9.366  -3.147  1.00  0.00     0.166 HD
BRANCH  17  19
HETATM   19  C   UNL     1     -16.032 -10.886  -3.658  1.00  0.00     0.032 A 
HETATM   20  C   UNL     1     -16.095 -10.597  -5.026  1.00  0.00     0.030 A 
HETATM   21  C   UNL     1     -15.219 -11.214  -5.914  1.00  0.00     0.009 A 
HETATM   22  C   UNL     1     -14.247 -12.105  -5.449  1.00  0.00    -0.062 A 
HETATM   23  C   UNL     1     -13.342 -12.813  -6.410  1.00  0.00     0.048 C 
HETATM   24  C   UNL     1     -14.141 -12.342  -4.073  1.00  0.00     0.009 A 
HETATM   25  C   UNL     1     -15.019 -11.722  -3.182  1.00  0.00     0.030 A 
ENDBRANCH  17  19
ENDBRANCH   1  17
BRANCH   4  26
HETATM   26  N   UNL     1     -20.935 -12.429   0.559  1.00  0.00    -0.259 NA
HETATM   27  H   UNL     1     -21.367 -11.728   1.164  1.00  0.00     0.134 HD
BRANCH  26  28
HETATM   28  C   UNL     1     -21.941 -13.239  -0.046  1.00  0.00     0.012 C 
HETATM   29  C   UNL     1     -23.106 -12.668  -0.577  1.00  0.00     0.024 C 
HETATM   30  C   UNL     1     -24.177 -13.472  -0.977  1.00  0.00     0.008 C 
HETATM   31  C   UNL     1     -24.081 -14.861  -0.890  1.00  0.00    -0.062 C 
HETATM   32  C   UNL     1     -22.866 -15.432  -0.496  1.00  0.00     0.008 C 
HETATM   33  C   UNL     1     -25.270 -15.732  -1.168  1.00  0.00     0.048 C 
HETATM   34  C   UNL     1     -21.797 -14.628  -0.093  1.00  0.00     0.024 C 
ENDBRANCH  26  28
ENDBRANCH   4  26
TORSDOF 4
ENDMDL
MODEL 4
REMARK VINA RESULT:      -9.0     17.244     19.660
REMARK  4 active torsions:
REMARK  status: ('A' for Active; 'I' for Inactive)
REMARK    1  A    between atoms: C_5  and  N_8 
REMARK    2  A    between atoms: N_8  and  C_9 
REMARK    3  A    between atoms: C_12  and  N_15 
REMARK    4  A    between atoms: N_15  and  C_16 
ROOT
HETATM    1  C   UNL     1     -25.796   9.716  -5.507  1.00  0.00     0.048 C 
HETATM    2  C   UNL     1     -24.610   9.905  -4.791  1.00  0.00     0.058 C 
HETATM    3  C   UNL     1     -24.097   8.887  -3.999  1.00  0.00     0.053 C 
HETATM    4  C   UNL     1     -24.940   7.860  -3.553  1.00  0.00     0.028 C 
HETATM    5  C   UNL     1     -26.134   7.656  -4.242  1.00  0.00     0.027 C 
HETATM    6  C   UNL     1     -26.515   8.535  -5.268  1.00  0.00     0.032 C 
HETATM    7  C   UNL     1     -22.615   8.810  -3.918  1.00  0.00     0.196 C 
HETATM    8  O   UNL     1     -22.047   7.736  -3.747  1.00  0.00    -0.287 OA
HETATM    9  C   UNL     1     -21.821  10.017  -4.223  1.00  0.00     0.029 A 
HETATM   10  C   UNL     1     -20.426   9.960  -4.264  1.00  0.00     0.016 A 
HETATM   11  C   UNL     1     -19.692  11.122  -4.515  1.00  0.00     0.001 A 
HETATM   12  C   UNL     1     -20.346  12.346  -4.682  1.00  0.00     0.001 A 
HETATM   13  C   UNL     1     -21.736  12.397  -4.679  1.00  0.00     0.016 A 
HETATM   14  C   UNL     1     -22.466  11.216  -4.510  1.00  0.00     0.029 A 
HETATM   15  C   UNL     1     -23.909  11.202  -4.785  1.00  0.00     0.196 C 
HETATM   16  O   UNL     1     -24.520  12.240  -5.012  1.00  0.00    -0.286 OA
ENDROOT
BRANCH   1  17
HETATM   17  N   UNL     1     -26.093  10.560  -6.610  1.00  0.00    -0.355 N 
HETATM   18  H   UNL     1     -27.083  10.838  -6.592  1.00  0.00     0.166 HD
BRANCH  17  19
HETATM   19  C   UNL     1     -25.685  10.363  -7.942  1.00  0.00     0.032 A 
HETATM   20  C   UNL     1     -26.072   9.221  -8.653  1.00  0.00     0.030 A 
HETATM   21  C   UNL     1     -25.685   9.057  -9.979  1.00  0.00     0.009 A 
HETATM   22  C   UNL     1     -24.934  10.041 -10.626  1.00  0.00    -0.062 A 
HETATM   23  C   UNL     1     -24.467   9.839 -12.036  1.00  0.00     0.048 C 
HETATM   24  C   UNL     1     -24.604  11.214  -9.935  1.00  0.00     0.009 A 
HETATM   25  C   UNL     1     -24.994  11.379  -8.605  1.00  0.00     0.030 A 
ENDBRANCH  17  19
ENDBRANCH   1  17
BRANCH   4  26
HETATM   26  N   UNL     1     -24.632   7.020  -2.444  1.00  0.00    -0.259 NA
HETATM   27  H   UNL     1     -23.818   6.447  -2.674  1.00  0.00     0.134 HD
BRANCH  26  28
HETATM   28  C   UNL     1     -24.512   7.528  -1.116  1.00  0.00     0.012 C 
HETATM   29  C   UNL     1     -25.644   7.910  -0.384  1.00  0.00     0.024 C 
HETATM   30  C   UNL     1     -25.514   8.597   0.826  1.00  0.00     0.008 C 
HETATM   31  C   UNL     1     -24.247   8.875   1.341  1.00  0.00    -0.062 C 
HETATM   32  C   UNL     1     -23.122   8.367   0.682  1.00  0.00     0.008 C 
HETATM   33  C   UNL     1     -24.085   9.742   2.554  1.00  0.00     0.048 C 
HETATM   34  C   UNL     1     -23.253   7.683  -0.529  1.00  0.00     0.024 C 
ENDBRANCH  26  28
ENDBRANCH   4  26
TORSDOF 4
ENDMDL
MODEL 5
REMARK VINA RESULT:      -9.0      2.108      7.877
REMARK  4 active torsions:
REMARK  status: ('A' for Active; 'I' for Inactive)
REMARK    1  A    between atoms: C_5  and  N_8 
REMARK    2  A    between atoms: N_8  and  C_9 
REMARK    3  A    between atoms: C_12  and  N_15 
REMARK    4  A    between atoms: N_15  and  C_16 
ROOT
HETATM    1  C   UNL     1     -20.570  -7.312  -4.293  1.00  0.00     0.048 C 
HETATM    2  C   UNL     1     -20.742  -8.699  -4.250  1.00  0.00     0.058 C 
HETATM    3  C   UNL     1     -21.570  -9.275  -3.296  1.00  0.00     0.053 C 
HETATM    4  C   UNL     1     -21.881  -8.570  -2.126  1.00  0.00     0.028 C 
HETATM    5  C   UNL     1     -21.708  -7.187  -2.137  1.00  0.00     0.027 C 
HETATM    6  C   UNL     1     -21.132  -6.558  -3.251  1.00  0.00     0.032 C 
HETATM    7  C   UNL     1     -22.302 -10.496  -3.723  1.00  0.00     0.196 C 
HETATM    8  O   UNL     1     -23.400 -10.773  -3.250  1.00  0.00    -0.287 OA
HETATM    9  C   UNL     1     -21.776 -11.282  -4.857  1.00  0.00     0.029 A 
HETATM   10  C   UNL     1     -22.488 -12.374  -5.359  1.00  0.00     0.016 A 
HETATM   11  C   UNL     1     -21.954 -13.129  -6.406  1.00  0.00     0.001 A 
HETATM   12  C   UNL     1     -20.692 -12.823  -6.922  1.00  0.00     0.001 A 
HETATM   13  C   UNL     1     -19.998 -11.715  -6.448  1.00  0.00     0.016 A 
HETATM   14  C   UNL     1     -20.576 -10.914  -5.458  1.00  0.00     0.029 A 
HETATM   15  C   UNL     1     -19.999  -9.599  -5.151  1.00  0.00     0.196 C 
HETATM   16  O   UNL     1     -18.929  -9.248  -5.635  1.00  0.00    -0.286 OA
ENDROOT
BRANCH   1  17
HETATM   17  N   UNL     1     -20.085  -6.701  -5.479  1.00  0.00    -0.355 N 
HETATM   18  H   UNL     1     -19.205  -6.202  -5.291  1.00  0.00     0.166 HD
BRANCH  17  19
HETATM   19  C   UNL     1     -20.847  -5.973  -6.411  1.00  0.00     0.032 A 
HETATM   20  C   UNL     1     -22.147  -5.552  -6.109  1.00  0.00     0.030 A 
HETATM   21  C   UNL     1     -22.875  -4.807  -7.031  1.00  0.00     0.009 A 
HETATM   22  C   UNL     1     -22.308  -4.445  -8.256  1.00  0.00    -0.062 A 
HETATM   23  C   UNL     1     -23.111  -3.693  -9.273  1.00  0.00     0.048 C 
HETATM   24  C   UNL     1     -20.984  -4.809  -8.531  1.00  0.00     0.009 A 
HETATM   25  C   UNL     1     -20.253  -5.555  -7.604  1.00  0.00     0.030 A 
ENDBRANCH  17  19
ENDBRANCH   1  17
BRANCH   4  26
HETATM   26  N   UNL     1     -22.366  -9.195  -0.941  1.00  0.00    -0.259 NA
HETATM   27  H   UNL     1     -23.373  -9.341  -1.027  1.00  0.00     0.134 HD
BRANCH  26  28
HETATM   28  C   UNL     1     -21.749 -10.356  -0.387  1.00  0.00     0.012 C 
HETATM   29  C   UNL     1     -20.354 -10.479  -0.335  1.00  0.00     0.024 C 
HETATM   30  C   UNL     1     -19.755 -11.693   0.011  1.00  0.00     0.008 C 
HETATM   31  C   UNL     1     -20.546 -12.791   0.351  1.00  0.00    -0.062 C 
HETATM   32  C   UNL     1     -21.933 -12.626   0.440  1.00  0.00     0.008 C 
HETATM   33  C   UNL     1     -19.930 -14.141   0.575  1.00  0.00     0.048 C 
HETATM   34  C   UNL     1     -22.530 -11.413   0.089  1.00  0.00     0.024 C 
ENDBRANCH  26  28
ENDBRANCH   4  26
TORSDOF 4
ENDMDL
MODEL 6
REMARK VINA RESULT:      -9.0      3.611      6.951
REMARK  4 active torsions:
REMARK  status: ('A' for Active; 'I' for Inactive)
REMARK    1  A    between atoms: C_5  and  N_8 
REMARK    2  A    between atoms: N_8  and  C_9 
REMARK    3  A    between atoms: C_12  and  N_15 
REMARK    4  A    between atoms: N_15  and  C_16 
ROOT
HETATM    1  C   UNL     1     -19.712 -10.565  -0.942  1.00  0.00     0.048 C 
HETATM    2  C   UNL     1     -19.657  -9.540  -1.892  1.00  0.00     0.058 C 
HETATM    3  C   UNL     1     -18.678  -9.545  -2.876  1.00  0.00     0.053 C 
HETATM    4  C   UNL     1     -17.504 -10.285  -2.686  1.00  0.00     0.028 C 
HETATM    5  C   UNL     1     -17.527 -11.306  -1.738  1.00  0.00     0.027 C 
HETATM    6  C   UNL     1     -18.659 -11.493  -0.931  1.00  0.00     0.032 C 
HETATM    7  C   UNL     1     -19.078  -8.988  -4.194  1.00  0.00     0.196 C 
HETATM    8  O   UNL     1     -18.574  -9.399  -5.234  1.00  0.00    -0.287 OA
HETATM    9  C   UNL     1     -20.222  -8.055  -4.256  1.00  0.00     0.029 A 
HETATM   10  C   UNL     1     -20.699  -7.592  -5.485  1.00  0.00     0.016 A 
HETATM   11  C   UNL     1     -21.756  -6.679  -5.519  1.00  0.00     0.001 A 
HETATM   12  C   UNL     1     -22.307  -6.195  -4.330  1.00  0.00     0.001 A 
HETATM   13  C   UNL     1     -21.859  -6.684  -3.107  1.00  0.00     0.016 A 
HETATM   14  C   UNL     1     -20.857  -7.659  -3.083  1.00  0.00     0.029 A 
HETATM   15  C   UNL     1     -20.573  -8.386  -1.838  1.00  0.00     0.196 C 
HETATM   16  O   UNL     1     -21.088  -8.051  -0.777  1.00  0.00    -0.286 OA
ENDROOT
BRANCH   1  17
HETATM   17  N   UNL     1     -20.914 -10.791  -0.222  1.00  0.00    -0.355 N 
HETATM   18  H   UNL     1     -20.750 -10.691   0.789  1.00  0.00     0.166 HD
BRANCH  17  19
HETATM   19  C   UNL     1     -21.836 -11.830  -0.447  1.00  0.00     0.032 A 
HETATM   20  C   UNL     1     -22.479 -12.467   0.621  1.00  0.00     0.030 A 
HETATM   21  C   UNL     1     -23.410 -13.472   0.378  1.00  0.00     0.009 A 
HETATM   22  C   UNL     1     -23.738 -13.836  -0.930  1.00  0.00    -0.062 A 
HETATM   23  C   UNL     1     -24.696 -14.957  -1.192  1.00  0.00     0.048 C 
HETATM   24  C   UNL     1     -23.144 -13.152  -1.998  1.00  0.00     0.009 A 
HETATM   25  C   UNL     1     -22.211 -12.142  -1.755  1.00  0.00     0.030 A 
ENDBRANCH  17  19
ENDBRANCH   1  17
BRANCH   4  26
HETATM   26  N   UNL     1     -16.302 -10.048  -3.415  1.00  0.00    -0.259 NA
HETATM   27  H   UNL     1     -15.642  -9.548  -2.818  1.00  0.00     0.134 HD
BRANCH  26  28
HETATM   28  C   UNL     1     -15.628 -11.085  -4.127  1.00  0.00     0.012 C 
HETATM   29  C   UNL     1     -14.713 -11.928  -3.481  1.00  0.00     0.024 C 
HETATM   30  C   UNL     1     -13.903 -12.799  -4.215  1.00  0.00     0.008 C 
HETATM   31  C   UNL     1     -14.027 -12.869  -5.603  1.00  0.00    -0.062 C 
HETATM   32  C   UNL     1     -15.040 -12.134  -6.230  1.00  0.00     0.008 C 
HETATM   33  C   UNL     1     -13.066 -13.681  -6.420  1.00  0.00     0.048 C 
HETATM   34  C   UNL     1     -15.846 -11.260  -5.496  1.00  0.00     0.024 C 
ENDBRANCH  26  28
ENDBRANCH   4  26
TORSDOF 4
ENDMDL
MODEL 7
REMARK VINA RESULT:      -8.9      4.736      9.676
REMARK  4 active torsions:
REMARK  status: ('A' for Active; 'I' for Inactive)
REMARK    1  A    between atoms: C_5  and  N_8 
REMARK    2  A    between atoms: N_8  and  C_9 
REMARK    3  A    between atoms: C_12  and  N_15 
REMARK    4  A    between atoms: N_15  and  C_16 
ROOT
HETATM    1  C   UNL     1     -22.463 -10.259  -0.037  1.00  0.00     0.048 C 
HETATM    2  C   UNL     1     -21.554 -11.319   0.030  1.00  0.00     0.058 C 
HETATM    3  C   UNL     1     -21.939 -12.600  -0.343  1.00  0.00     0.053 C 
HETATM    4  C   UNL     1     -23.298 -12.941  -0.359  1.00  0.00     0.028 C 
HETATM    5  C   UNL     1     -24.227 -11.904  -0.414  1.00  0.00     0.027 C 
HETATM    6  C   UNL     1     -23.798 -10.569  -0.337  1.00  0.00     0.032 C 
HETATM    7  C   UNL     1     -20.888 -13.437  -0.977  1.00  0.00     0.196 C 
HETATM    8  O   UNL     1     -21.177 -14.296  -1.803  1.00  0.00    -0.287 OA
HETATM    9  C   UNL     1     -19.470 -13.104  -0.735  1.00  0.00     0.029 A 
HETATM   10  C   UNL     1     -18.452 -13.796  -1.396  1.00  0.00     0.016 A 
HETATM   11  C   UNL     1     -17.116 -13.492  -1.123  1.00  0.00     0.001 A 
HETATM   12  C   UNL     1     -16.795 -12.530  -0.161  1.00  0.00     0.001 A 
HETATM   13  C   UNL     1     -17.807 -11.814   0.470  1.00  0.00     0.016 A 
HETATM   14  C   UNL     1     -19.140 -12.066   0.131  1.00  0.00     0.029 A 
HETATM   15  C   UNL     1     -20.193 -11.139   0.567  1.00  0.00     0.196 C 
HETATM   16  O   UNL     1     -19.951 -10.230   1.353  1.00  0.00    -0.286 OA
ENDROOT
BRANCH   1  17
HETATM   17  N   UNL     1     -21.982  -8.923  -0.066  1.00  0.00    -0.355 N 
HETATM   18  H   UNL     1     -22.472  -8.351   0.636  1.00  0.00     0.166 HD
BRANCH  17  19
HETATM   19  C   UNL     1     -21.743  -8.150  -1.216  1.00  0.00     0.032 A 
HETATM   20  C   UNL     1     -21.195  -8.724  -2.369  1.00  0.00     0.030 A 
HETATM   21  C   UNL     1     -20.992  -7.951  -3.508  1.00  0.00     0.009 A 
HETATM   22  C   UNL     1     -21.361  -6.603  -3.527  1.00  0.00    -0.062 A 
HETATM   23  C   UNL     1     -21.090  -5.756  -4.732  1.00  0.00     0.048 C 
HETATM   24  C   UNL     1     -21.971  -6.047  -2.395  1.00  0.00     0.009 A 
HETATM   25  C   UNL     1     -22.175  -6.823  -1.253  1.00  0.00     0.030 A 
ENDBRANCH  17  19
ENDBRANCH   1  17
BRANCH   4  26
HETATM   26  N   UNL     1     -23.768 -14.286  -0.328  1.00  0.00    -0.259 NA
HETATM   27  H   UNL     1     -23.147 -14.871  -0.889  1.00  0.00     0.134 HD
BRANCH  26  28
HETATM   28  C   UNL     1     -24.094 -14.950   0.892  1.00  0.00     0.012 C 
HETATM   29  C   UNL     1     -24.902 -16.095   0.899  1.00  0.00     0.024 C 
HETATM   30  C   UNL     1     -25.389 -16.619   2.100  1.00  0.00     0.008 C 
HETATM   31  C   UNL     1     -25.040 -16.028   3.314  1.00  0.00    -0.062 C 
HETATM   32  C   UNL     1     -24.117 -14.975   3.315  1.00  0.00     0.008 C 
HETATM   33  C   UNL     1     -25.672 -16.478   4.598  1.00  0.00     0.048 C 
HETATM   34  C   UNL     1     -23.635 -14.450   2.114  1.00  0.00     0.024 C 
ENDBRANCH  26  28
ENDBRANCH   4  26
TORSDOF 4
ENDMDL
MODEL 8
REMARK VINA RESULT:      -8.8      2.728      8.623
REMARK  4 active torsions:
REMARK  status: ('A' for Active; 'I' for Inactive)
REMARK    1  A    between atoms: C_5  and  N_8 
REMARK    2  A    between atoms: N_8  and  C_9 
REMARK    3  A    between atoms: C_12  and  N_15 
REMARK    4  A    between atoms: N_15  and  C_16 
ROOT
HETATM    1  C   UNL     1     -20.570  -8.930  -3.864  1.00  0.00     0.048 C 
HETATM    2  C   UNL     1     -20.431 -10.193  -4.447  1.00  0.00     0.058 C 
HETATM    3  C   UNL     1     -21.342 -11.202  -4.164  1.00  0.00     0.053 C 
HETATM    4  C   UNL     1     -22.118 -11.133  -3.000  1.00  0.00     0.028 C 
HETATM    5  C   UNL     1     -22.265  -9.887  -2.392  1.00  0.00     0.027 C 
HETATM    6  C   UNL     1     -21.556  -8.778  -2.877  1.00  0.00     0.032 C 
HETATM    7  C   UNL     1     -21.631 -12.147  -5.274  1.00  0.00     0.196 C 
HETATM    8  O   UNL     1     -22.726 -12.692  -5.370  1.00  0.00    -0.287 OA
HETATM    9  C   UNL     1     -20.645 -12.289  -6.364  1.00  0.00     0.029 A 
HETATM   10  C   UNL     1     -20.924 -13.083  -7.479  1.00  0.00     0.016 A 
HETATM   11  C   UNL     1     -19.962 -13.236  -8.481  1.00  0.00     0.001 A 
HETATM   12  C   UNL     1     -18.708 -12.633  -8.350  1.00  0.00     0.001 A 
HETATM   13  C   UNL     1     -18.443 -11.811  -7.259  1.00  0.00     0.016 A 
HETATM   14  C   UNL     1     -19.439 -11.596  -6.303  1.00  0.00     0.029 A 
HETATM   15  C   UNL     1     -19.283 -10.524  -5.311  1.00  0.00     0.196 C 
HETATM   16  O   UNL     1     -18.227  -9.910  -5.203  1.00  0.00    -0.286 OA
ENDROOT
BRANCH   1  17
HETATM   17  N   UNL     1     -19.922  -7.811  -4.450  1.00  0.00    -0.355 N 
HETATM   18  H   UNL     1     -19.424  -7.269  -3.732  1.00  0.00     0.166 HD
BRANCH  17  19
HETATM   19  C   UNL     1     -20.475  -6.933  -5.400  1.00  0.00     0.032 A 
HETATM   20  C   UNL     1     -21.753  -6.392  -5.224  1.00  0.00     0.030 A 
HETATM   21  C   UNL     1     -22.272  -5.501  -6.159  1.00  0.00     0.009 A 
HETATM   22  C   UNL     1     -21.515  -5.113  -7.267  1.00  0.00    -0.062 A 
HETATM   23  C   UNL     1     -22.094  -4.200  -8.304  1.00  0.00     0.048 C 
HETATM   24  C   UNL     1     -20.210  -5.603  -7.408  1.00  0.00     0.009 A 
HETATM   25  C   UNL     1     -19.689  -6.495  -6.469  1.00  0.00     0.030 A 
ENDBRANCH  17  19
ENDBRANCH   1  17
BRANCH   4  26
HETATM   26  N   UNL     1     -22.763 -12.264  -2.420  1.00  0.00    -0.259 NA
HETATM   27  H   UNL     1     -22.627 -13.074  -3.026  1.00  0.00     0.134 HD
BRANCH  26  28
HETATM   28  C   UNL     1     -22.564 -12.635  -1.057  1.00  0.00     0.012 C 
HETATM   29  C   UNL     1     -21.351 -13.195  -0.630  1.00  0.00     0.024 C 
HETATM   30  C   UNL     1     -21.230 -13.748   0.648  1.00  0.00     0.008 C 
HETATM   31  C   UNL     1     -22.309 -13.711   1.532  1.00  0.00    -0.062 C 
HETATM   32  C   UNL     1     -23.469 -13.024   1.156  1.00  0.00     0.008 C 
HETATM   33  C   UNL     1     -22.249 -14.432   2.846  1.00  0.00     0.048 C 
HETATM   34  C   UNL     1     -23.590 -12.475  -0.123  1.00  0.00     0.024 C 
ENDBRANCH  26  28
ENDBRANCH   4  26
TORSDOF 4
ENDMDL
MODEL 9
REMARK VINA RESULT:      -8.7      2.018      2.827
REMARK  4 active torsions:
REMARK  status: ('A' for Active; 'I' for Inactive)
REMARK    1  A    between atoms: C_5  and  N_8 
REMARK    2  A    between atoms: N_8  and  C_9 
REMARK    3  A    between atoms: C_12  and  N_15 
REMARK    4  A    between atoms: N_15  and  C_16 
ROOT
HETATM    1  C   UNL     1     -20.048 -10.063  -4.208  1.00  0.00     0.048 C 
HETATM    2  C   UNL     1     -20.290  -9.096  -3.227  1.00  0.00     0.058 C 
HETATM    3  C   UNL     1     -20.693  -7.817  -3.583  1.00  0.00     0.053 C 
HETATM    4  C   UNL     1     -20.442  -7.344  -4.878  1.00  0.00     0.028 C 
HETATM    5  C   UNL     1     -20.186  -8.284  -5.874  1.00  0.00     0.027 C 
HETATM    6  C   UNL     1     -20.074  -9.644  -5.547  1.00  0.00     0.032 C 
HETATM    7  C   UNL     1     -21.624  -7.142  -2.642  1.00  0.00     0.196 C 
HETATM    8  O   UNL     1     -22.447  -6.326  -3.045  1.00  0.00    -0.287 OA
HETATM    9  C   UNL     1     -21.671  -7.596  -1.238  1.00  0.00     0.029 A 
HETATM   10  C   UNL     1     -22.606  -7.063  -0.347  1.00  0.00     0.016 A 
HETATM   11  C   UNL     1     -22.607  -7.477   0.987  1.00  0.00     0.001 A 
HETATM   12  C   UNL     1     -21.650  -8.387   1.443  1.00  0.00     0.001 A 
HETATM   13  C   UNL     1     -20.742  -8.946   0.549  1.00  0.00     0.016 A 
HETATM   14  C   UNL     1     -20.800  -8.590  -0.802  1.00  0.00     0.029 A 
HETATM   15  C   UNL     1     -20.052  -9.370  -1.797  1.00  0.00     0.196 C 
HETATM   16  O   UNL     1     -19.253 -10.234  -1.454  1.00  0.00    -0.286 OA
ENDROOT
BRANCH   1  17
HETATM   17  N   UNL     1     -20.050 -11.438  -3.855  1.00  0.00    -0.355 N 
HETATM   18  H   UNL     1     -19.708 -12.009  -4.640  1.00  0.00     0.166 HD
BRANCH  17  19
HETATM   19  C   UNL     1     -21.081 -12.124  -3.190  1.00  0.00     0.032 A 
HETATM   20  C   UNL     1     -20.810 -13.253  -2.409  1.00  0.00     0.030 A 
HETATM   21  C   UNL     1     -21.839 -13.902  -1.733  1.00  0.00     0.009 A 
HETATM   22  C   UNL     1     -23.148 -13.419  -1.801  1.00  0.00    -0.062 A 
HETATM   23  C   UNL     1     -24.266 -14.150  -1.122  1.00  0.00     0.048 C 
HETATM   24  C   UNL     1     -23.408 -12.251  -2.528  1.00  0.00     0.009 A 
HETATM   25  C   UNL     1     -22.376 -11.598  -3.205  1.00  0.00     0.030 A 
ENDBRANCH  17  19
ENDBRANCH   1  17
BRANCH   4  26
HETATM   26  N   UNL     1     -20.441  -5.960  -5.220  1.00  0.00    -0.259 NA
HETATM   27  H   UNL     1     -19.565  -5.539  -4.908  1.00  0.00     0.134 HD
BRANCH  26  28
HETATM   28  C   UNL     1     -20.764  -5.501  -6.532  1.00  0.00     0.012 C 
HETATM   29  C   UNL     1     -19.775  -5.381  -7.519  1.00  0.00     0.024 C 
HETATM   30  C   UNL     1     -20.050  -4.739  -8.730  1.00  0.00     0.008 C 
HETATM   31  C   UNL     1     -21.329  -4.245  -8.986  1.00  0.00    -0.062 C 
HETATM   32  C   UNL     1     -22.349  -4.494  -8.062  1.00  0.00     0.008 C 
HETATM   33  C   UNL     1     -21.602  -3.421 -10.209  1.00  0.00     0.048 C 
HETATM   34  C   UNL     1     -22.073  -5.132  -6.850  1.00  0.00     0.024 C 
ENDBRANCH  26  28
ENDBRANCH   4  26
TORSDOF 4
ENDMDL
