MODEL 1
REMARK VINA RESULT:     -10.2      0.000      0.000
REMARK  5 active torsions:
REMARK  status: ('A' for Active; 'I' for Inactive)
REMARK    1  A    between atoms: C_4  and  N_7 
REMARK    2  A    between atoms: N_9  and  C_11 
REMARK    3  A    between atoms: C_14  and  N_17 
REMARK    4  A    between atoms: N_19  and  C_21 
REMARK    5  A    between atoms: C_22  and  O_31 
ROOT
HETATM    1  C   UNL     1     -21.166  -5.049  -7.532  1.00  0.00     0.048 A 
HETATM    2  C   UNL     1     -20.481  -4.304  -6.552  1.00  0.00     0.033 A 
HETATM    3  C   UNL     1     -20.333  -4.795  -5.234  1.00  0.00     0.033 A 
HETATM    4  C   UNL     1     -20.855  -6.038  -4.860  1.00  0.00     0.048 A 
HETATM    5  C   UNL     1     -21.546  -6.768  -5.842  1.00  0.00     0.033 A 
HETATM    6  C   UNL     1     -21.691  -6.280  -7.154  1.00  0.00     0.033 A 
ENDROOT
BRANCH   4   7
HETATM    7  N   UNL     1     -20.782  -6.574  -3.551  1.00  0.00    -0.300 N 
HETATM    8  N   UNL     1     -21.338  -7.691  -3.405  1.00  0.00    -0.297 N 
ATOM      9  HN  UNL     1     -21.667  -8.285  -4.166  1.00  0.00     0.187 HD
ATOM     10  HN  UNL     1     -20.314  -6.089  -2.784  1.00  0.00     0.187 HD
BRANCH   8  11
HETATM   11  C   UNL     1     -21.442  -8.004  -2.017  1.00  0.00     0.092 C 
HETATM   12  C   UNL     1     -22.124  -7.130  -1.142  1.00  0.00     0.094 C 
HETATM   13  C   UNL     1     -22.271  -7.412   0.215  1.00  0.00     0.040 C 
HETATM   14  C   UNL     1     -21.858  -8.641   0.699  1.00  0.00     0.015 C 
HETATM   15  C   UNL     1     -21.169  -9.530  -0.132  1.00  0.00    -0.024 C 
HETATM   16  C   UNL     1     -20.751 -10.766   0.368  1.00  0.00     0.012 C 
HETATM   17  C   UNL     1     -20.828  -9.149  -1.450  1.00  0.00     0.005 C 
HETATM   18  C   UNL     1     -19.715 -11.451  -0.256  1.00  0.00     0.001 C 
HETATM   19  C   UNL     1     -19.225 -10.998  -1.473  1.00  0.00     0.001 C 
HETATM   20  C   UNL     1     -19.846  -9.921  -2.112  1.00  0.00     0.014 C 
BRANCH  12  21
HETATM   21  O   UNL     1     -22.666  -5.950  -1.572  1.00  0.00    -0.358 OA
HETATM   22  H   UNL     1     -22.896  -5.444  -0.775  1.00  0.00     0.217 HD
ENDBRANCH  12  21
ENDBRANCH   8  11
ENDBRANCH   4   7
BRANCH   1  23
HETATM   23  N   UNL     1     -21.429  -4.566  -8.844  1.00  0.00    -0.300 N 
HETATM   24  N   UNL     1     -22.644  -4.274  -9.039  1.00  0.00    -0.300 N 
ATOM     25  HN  UNL     1     -23.360  -4.313  -8.313  1.00  0.00     0.187 HD
ATOM     26  HN  UNL     1     -20.708  -4.465  -9.558  1.00  0.00     0.187 HD
BRANCH  24  27
HETATM   27  C   UNL     1     -22.902  -3.887 -10.374  1.00  0.00     0.048 A 
HETATM   28  C   UNL     1     -24.165  -3.509 -10.861  1.00  0.00     0.031 A 
HETATM   29  C   UNL     1     -24.326  -3.044 -12.173  1.00  0.00     0.002 A 
HETATM   30  C   UNL     1     -23.229  -2.950 -13.026  1.00  0.00     0.000 A 
HETATM   31  C   UNL     1     -21.970  -3.319 -12.563  1.00  0.00     0.002 A 
HETATM   32  C   UNL     1     -21.813  -3.782 -11.246  1.00  0.00     0.031 A 
ENDBRANCH  24  27
ENDBRANCH   1  23
TORSDOF 5
ENDMDL
MODEL 2
REMARK VINA RESULT:      -9.6      2.361     10.259
REMARK  5 active torsions:
REMARK  status: ('A' for Active; 'I' for Inactive)
REMARK    1  A    between atoms: C_4  and  N_7 
REMARK    2  A    between atoms: N_9  and  C_11 
REMARK    3  A    between atoms: C_14  and  N_17 
REMARK    4  A    between atoms: N_19  and  C_21 
REMARK    5  A    between atoms: C_22  and  O_31 
ROOT
HETATM    1  C   UNL     1     -21.605  -8.107  -3.163  1.00  0.00     0.048 A 
HETATM    2  C   UNL     1     -21.459  -6.709  -3.083  1.00  0.00     0.033 A 
HETATM    3  C   UNL     1     -21.208  -5.933  -4.239  1.00  0.00     0.033 A 
HETATM    4  C   UNL     1     -21.104  -6.527  -5.501  1.00  0.00     0.048 A 
HETATM    5  C   UNL     1     -21.240  -7.923  -5.570  1.00  0.00     0.033 A 
HETATM    6  C   UNL     1     -21.492  -8.694  -4.419  1.00  0.00     0.033 A 
ENDROOT
BRANCH   4   7
HETATM    7  N   UNL     1     -20.812  -5.819  -6.694  1.00  0.00    -0.300 N 
HETATM    8  N   UNL     1     -21.577  -4.852  -6.934  1.00  0.00    -0.297 N 
ATOM      9  HN  UNL     1     -22.245  -4.455  -6.274  1.00  0.00     0.187 HD
ATOM     10  HN  UNL     1     -20.041  -6.076  -7.310  1.00  0.00     0.187 HD
BRANCH   8  11
HETATM   11  C   UNL     1     -21.369  -4.389  -8.268  1.00  0.00     0.092 C 
HETATM   12  C   UNL     1     -20.059  -4.185  -8.751  1.00  0.00     0.094 C 
HETATM   13  C   UNL     1     -19.812  -3.760 -10.055  1.00  0.00     0.040 C 
HETATM   14  C   UNL     1     -20.867  -3.665 -10.946  1.00  0.00     0.015 C 
HETATM   15  C   UNL     1     -22.181  -3.849 -10.505  1.00  0.00    -0.024 C 
HETATM   16  C   UNL     1     -23.239  -3.743 -11.411  1.00  0.00     0.012 C 
HETATM   17  C   UNL     1     -22.444  -4.063  -9.132  1.00  0.00     0.005 C 
HETATM   18  C   UNL     1     -24.522  -3.477 -10.949  1.00  0.00     0.001 C 
HETATM   19  C   UNL     1     -24.782  -3.498  -9.586  1.00  0.00     0.001 C 
HETATM   20  C   UNL     1     -23.778  -3.890  -8.695  1.00  0.00     0.014 C 
BRANCH  12  21
HETATM   21  O   UNL     1     -18.957  -4.376  -7.964  1.00  0.00    -0.358 OA
HETATM   22  H   UNL     1     -19.275  -4.770  -7.134  1.00  0.00     0.217 HD
ENDBRANCH  12  21
ENDBRANCH   8  11
ENDBRANCH   4   7
BRANCH   1  23
HETATM   23  N   UNL     1     -21.763  -8.948  -2.027  1.00  0.00    -0.300 N 
HETATM   24  N   UNL     1     -22.128 -10.124  -2.316  1.00  0.00    -0.300 N 
ATOM     25  HN  UNL     1     -22.235 -10.464  -3.272  1.00  0.00     0.187 HD
ATOM     26  HN  UNL     1     -21.598  -8.633  -1.071  1.00  0.00     0.187 HD
BRANCH  24  27
HETATM   27  C   UNL     1     -22.370 -10.915  -1.170  1.00  0.00     0.048 A 
HETATM   28  C   UNL     1     -23.625 -11.439  -0.818  1.00  0.00     0.031 A 
HETATM   29  C   UNL     1     -23.770 -12.296   0.281  1.00  0.00     0.002 A 
HETATM   30  C   UNL     1     -22.664 -12.645   1.051  1.00  0.00     0.000 A 
HETATM   31  C   UNL     1     -21.412 -12.137   0.720  1.00  0.00     0.002 A 
HETATM   32  C   UNL     1     -21.271 -11.281  -0.385  1.00  0.00     0.031 A 
ENDBRANCH  24  27
ENDBRANCH   1  23
TORSDOF 5
ENDMDL
MODEL 3
REMARK VINA RESULT:      -9.6      1.536      2.724
REMARK  5 active torsions:
REMARK  status: ('A' for Active; 'I' for Inactive)
REMARK    1  A    between atoms: C_4  and  N_7 
REMARK    2  A    between atoms: N_9  and  C_11 
REMARK    3  A    between atoms: C_14  and  N_17 
REMARK    4  A    between atoms: N_19  and  C_21 
REMARK    5  A    between atoms: C_22  and  O_31 
ROOT
HETATM    1  C   UNL     1     -21.346  -5.254  -7.126  1.00  0.00     0.048 A 
HETATM    2  C   UNL     1     -22.286  -5.481  -6.102  1.00  0.00     0.033 A 
HETATM    3  C   UNL     1     -22.013  -6.380  -5.045  1.00  0.00     0.033 A 
HETATM    4  C   UNL     1     -20.798  -7.071  -4.978  1.00  0.00     0.048 A 
HETATM    5  C   UNL     1     -19.871  -6.847  -6.009  1.00  0.00     0.033 A 
HETATM    6  C   UNL     1     -20.143  -5.949  -7.058  1.00  0.00     0.033 A 
ENDROOT
BRANCH   4   7
HETATM    7  N   UNL     1     -20.473  -8.017  -3.974  1.00  0.00    -0.300 N 
HETATM    8  N   UNL     1     -21.402  -8.808  -3.674  1.00  0.00    -0.297 N 
ATOM      9  HN  UNL     1     -22.268  -8.921  -4.199  1.00  0.00     0.187 HD
ATOM     10  HN  UNL     1     -19.555  -8.053  -3.530  1.00  0.00     0.187 HD
BRANCH   8  11
HETATM   11  C   UNL     1     -21.063  -9.524  -2.487  1.00  0.00     0.092 C 
HETATM   12  C   UNL     1     -20.420 -10.778  -2.575  1.00  0.00     0.094 C 
HETATM   13  C   UNL     1     -20.049 -11.498  -1.440  1.00  0.00     0.040 C 
HETATM   14  C   UNL     1     -20.188 -10.912  -0.193  1.00  0.00     0.015 C 
HETATM   15  C   UNL     1     -20.829  -9.677  -0.063  1.00  0.00    -0.024 C 
HETATM   16  C   UNL     1     -20.970  -9.098   1.202  1.00  0.00     0.012 C 
HETATM   17  C   UNL     1     -21.401  -9.051  -1.194  1.00  0.00     0.005 C 
HETATM   18  C   UNL     1     -21.955  -8.142   1.419  1.00  0.00     0.001 C 
HETATM   19  C   UNL     1     -22.671  -7.633   0.345  1.00  0.00     0.001 C 
HETATM   20  C   UNL     1     -22.325  -8.007  -0.957  1.00  0.00     0.014 C 
BRANCH  12  21
HETATM   21  O   UNL     1     -20.140 -11.367  -3.777  1.00  0.00    -0.358 OA
HETATM   22  H   UNL     1     -19.917 -12.294  -3.586  1.00  0.00     0.217 HD
ENDBRANCH  12  21
ENDBRANCH   8  11
ENDBRANCH   4   7
BRANCH   1  23
HETATM   23  N   UNL     1     -21.602  -4.436  -8.261  1.00  0.00    -0.300 N 
HETATM   24  N   UNL     1     -22.506  -4.893  -9.018  1.00  0.00    -0.300 N 
ATOM     25  HN  UNL     1     -23.051  -5.730  -8.808  1.00  0.00     0.187 HD
ATOM     26  HN  UNL     1     -21.104  -3.566  -8.447  1.00  0.00     0.187 HD
BRANCH  24  27
HETATM   27  C   UNL     1     -22.680  -4.117 -10.187  1.00  0.00     0.048 A 
HETATM   28  C   UNL     1     -21.632  -3.696 -11.023  1.00  0.00     0.031 A 
HETATM   29  C   UNL     1     -21.889  -3.012 -12.218  1.00  0.00     0.002 A 
HETATM   30  C   UNL     1     -23.200  -2.731 -12.600  1.00  0.00     0.000 A 
HETATM   31  C   UNL     1     -24.251  -3.139 -11.786  1.00  0.00     0.002 A 
HETATM   32  C   UNL     1     -23.988  -3.828 -10.590  1.00  0.00     0.031 A 
ENDBRANCH  24  27
ENDBRANCH   1  23
TORSDOF 5
ENDMDL
MODEL 4
REMARK VINA RESULT:      -8.9      1.216      1.873
REMARK  5 active torsions:
REMARK  status: ('A' for Active; 'I' for Inactive)
REMARK    1  A    between atoms: C_4  and  N_7 
REMARK    2  A    between atoms: N_9  and  C_11 
REMARK    3  A    between atoms: C_14  and  N_17 
REMARK    4  A    between atoms: N_19  and  C_21 
REMARK    5  A    between atoms: C_22  and  O_31 
ROOT
HETATM    1  C   UNL     1     -21.248  -5.845  -6.826  1.00  0.00     0.048 A 
HETATM    2  C   UNL     1     -20.168  -6.654  -6.421  1.00  0.00     0.033 A 
HETATM    3  C   UNL     1     -20.217  -7.384  -5.211  1.00  0.00     0.033 A 
HETATM    4  C   UNL     1     -21.340  -7.334  -4.379  1.00  0.00     0.048 A 
HETATM    5  C   UNL     1     -22.407  -6.516  -4.786  1.00  0.00     0.033 A 
HETATM    6  C   UNL     1     -22.359  -5.792  -5.992  1.00  0.00     0.033 A 
ENDROOT
BRANCH   4   7
HETATM    7  N   UNL     1     -21.442  -8.004  -3.135  1.00  0.00    -0.300 N 
HETATM    8  N   UNL     1     -20.378  -8.042  -2.467  1.00  0.00    -0.297 N 
ATOM      9  HN  UNL     1     -19.539  -7.500  -2.670  1.00  0.00     0.187 HD
ATOM     10  HN  UNL     1     -22.312  -8.423  -2.806  1.00  0.00     0.187 HD
BRANCH   8  11
HETATM   11  C   UNL     1     -20.520  -8.957  -1.381  1.00  0.00     0.092 C 
HETATM   12  C   UNL     1     -21.314  -8.615  -0.265  1.00  0.00     0.094 C 
HETATM   13  C   UNL     1     -21.500  -9.490   0.804  1.00  0.00     0.040 C 
HETATM   14  C   UNL     1     -21.008 -10.781   0.713  1.00  0.00     0.015 C 
HETATM   15  C   UNL     1     -20.208 -11.155  -0.370  1.00  0.00    -0.024 C 
HETATM   16  C   UNL     1     -19.710 -12.459  -0.448  1.00  0.00     0.012 C 
HETATM   17  C   UNL     1     -19.839 -10.199  -1.343  1.00  0.00     0.005 C 
HETATM   18  C   UNL     1     -18.592 -12.728  -1.228  1.00  0.00     0.001 C 
HETATM   19  C   UNL     1     -18.086 -11.746  -2.068  1.00  0.00     0.001 C 
HETATM   20  C   UNL     1     -18.764 -10.531  -2.201  1.00  0.00     0.014 C 
BRANCH  12  21
HETATM   21  O   UNL     1     -21.933  -7.400  -0.160  1.00  0.00    -0.358 OA
HETATM   22  H   UNL     1     -21.790  -7.094   0.751  1.00  0.00     0.217 HD
ENDBRANCH  12  21
ENDBRANCH   8  11
ENDBRANCH   4   7
BRANCH   1  23
HETATM   23  N   UNL     1     -21.218  -5.015  -7.982  1.00  0.00    -0.300 N 
HETATM   24  N   UNL     1     -22.356  -4.842  -8.507  1.00  0.00    -0.300 N 
ATOM     25  HN  UNL     1     -23.223  -5.203  -8.110  1.00  0.00     0.187 HD
ATOM     26  HN  UNL     1     -20.363  -4.600  -8.350  1.00  0.00     0.187 HD
BRANCH  24  27
HETATM   27  C   UNL     1     -22.293  -4.094  -9.705  1.00  0.00     0.048 A 
HETATM   28  C   UNL     1     -21.109  -3.832 -10.416  1.00  0.00     0.031 A 
HETATM   29  C   UNL     1     -21.137  -3.165 -11.647  1.00  0.00     0.002 A 
HETATM   30  C   UNL     1     -22.348  -2.744 -12.192  1.00  0.00     0.000 A 
HETATM   31  C   UNL     1     -23.531  -2.993 -11.504  1.00  0.00     0.002 A 
HETATM   32  C   UNL     1     -23.498  -3.665 -10.271  1.00  0.00     0.031 A 
ENDBRANCH  24  27
ENDBRANCH   1  23
TORSDOF 5
ENDMDL
MODEL 5
REMARK VINA RESULT:      -8.7      2.152      2.918
REMARK  5 active torsions:
REMARK  status: ('A' for Active; 'I' for Inactive)
REMARK    1  A    between atoms: C_4  and  N_7 
REMARK    2  A    between atoms: N_9  and  C_11 
REMARK    3  A    between atoms: C_14  and  N_17 
REMARK    4  A    between atoms: N_19  and  C_21 
REMARK    5  A    between atoms: C_22  and  O_31 
ROOT
HETATM    1  C   UNL     1     -21.104  -6.104  -6.533  1.00  0.00     0.048 A 
HETATM    2  C   UNL     1     -21.963  -5.960  -5.426  1.00  0.00     0.033 A 
HETATM    3  C   UNL     1     -21.772  -6.722  -4.250  1.00  0.00     0.033 A 
HETATM    4  C   UNL     1     -20.721  -7.639  -4.144  1.00  0.00     0.048 A 
HETATM    5  C   UNL     1     -19.876  -7.784  -5.257  1.00  0.00     0.033 A 
HETATM    6  C   UNL     1     -20.066  -7.023  -6.426  1.00  0.00     0.033 A 
ENDROOT
BRANCH   4   7
HETATM    7  N   UNL     1     -20.495  -8.466  -3.015  1.00  0.00    -0.300 N 
HETATM    8  N   UNL     1     -20.093  -9.626  -3.283  1.00  0.00    -0.297 N 
ATOM      9  HN  UNL     1     -19.769  -9.937  -4.198  1.00  0.00     0.187 HD
ATOM     10  HN  UNL     1     -20.646  -8.144  -2.059  1.00  0.00     0.187 HD
BRANCH   8  11
HETATM   11  C   UNL     1     -20.158 -10.443  -2.115  1.00  0.00     0.092 C 
HETATM   12  C   UNL     1     -18.972 -10.933  -1.525  1.00  0.00     0.094 C 
HETATM   13  C   UNL     1     -18.991 -11.711  -0.370  1.00  0.00     0.040 C 
HETATM   14  C   UNL     1     -20.188 -11.899   0.300  1.00  0.00     0.015 C 
HETATM   15  C   UNL     1     -21.385 -11.440  -0.256  1.00  0.00    -0.024 C 
HETATM   16  C   UNL     1     -22.589 -11.641   0.424  1.00  0.00     0.012 C 
HETATM   17  C   UNL     1     -21.389 -10.842  -1.538  1.00  0.00     0.005 C 
HETATM   18  C   UNL     1     -23.791 -11.611  -0.271  1.00  0.00     0.001 C 
HETATM   19  C   UNL     1     -23.810 -11.201  -1.597  1.00  0.00     0.001 C 
HETATM   20  C   UNL     1     -22.638 -10.723  -2.191  1.00  0.00     0.014 C 
BRANCH  12  21
HETATM   21  O   UNL     1     -17.739 -10.685  -2.063  1.00  0.00    -0.358 OA
HETATM   22  H   UNL     1     -17.595  -9.726  -1.994  1.00  0.00     0.217 HD
ENDBRANCH  12  21
ENDBRANCH   8  11
ENDBRANCH   4   7
BRANCH   1  23
HETATM   23  N   UNL     1     -21.303  -5.437  -7.774  1.00  0.00    -0.300 N 
HETATM   24  N   UNL     1     -22.420  -4.851  -7.858  1.00  0.00    -0.300 N 
ATOM     25  HN  UNL     1     -23.091  -4.799  -7.092  1.00  0.00     0.187 HD
ATOM     26  HN  UNL     1     -20.611  -5.432  -8.523  1.00  0.00     0.187 HD
BRANCH  24  27
HETATM   27  C   UNL     1     -22.637  -4.275  -9.131  1.00  0.00     0.048 A 
HETATM   28  C   UNL     1     -23.896  -3.887  -9.622  1.00  0.00     0.031 A 
HETATM   29  C   UNL     1     -24.022  -3.234 -10.855  1.00  0.00     0.002 A 
HETATM   30  C   UNL     1     -22.893  -2.956 -11.623  1.00  0.00     0.000 A 
HETATM   31  C   UNL     1     -21.638  -3.332 -11.154  1.00  0.00     0.002 A 
HETATM   32  C   UNL     1     -21.516  -3.984  -9.916  1.00  0.00     0.031 A 
ENDBRANCH  24  27
ENDBRANCH   1  23
TORSDOF 5
ENDMDL
MODEL 6
REMARK VINA RESULT:      -8.5      2.041      2.491
REMARK  5 active torsions:
REMARK  status: ('A' for Active; 'I' for Inactive)
REMARK    1  A    between atoms: C_4  and  N_7 
REMARK    2  A    between atoms: N_9  and  C_11 
REMARK    3  A    between atoms: C_14  and  N_17 
REMARK    4  A    between atoms: N_19  and  C_21 
REMARK    5  A    between atoms: C_22  and  O_31 
ROOT
HETATM    1  C   UNL     1     -21.288  -5.841  -6.848  1.00  0.00     0.048 A 
HETATM    2  C   UNL     1     -20.204  -6.630  -6.417  1.00  0.00     0.033 A 
HETATM    3  C   UNL     1     -20.275  -7.376  -5.218  1.00  0.00     0.033 A 
HETATM    4  C   UNL     1     -21.425  -7.361  -4.421  1.00  0.00     0.048 A 
HETATM    5  C   UNL     1     -22.497  -6.562  -4.853  1.00  0.00     0.033 A 
HETATM    6  C   UNL     1     -22.427  -5.823  -6.049  1.00  0.00     0.033 A 
ENDROOT
BRANCH   4   7
HETATM    7  N   UNL     1     -21.551  -8.047  -3.188  1.00  0.00    -0.300 N 
HETATM    8  N   UNL     1     -21.061  -9.204  -3.176  1.00  0.00    -0.297 N 
ATOM      9  HN  UNL     1     -20.456  -9.592  -3.899  1.00  0.00     0.187 HD
ATOM     10  HN  UNL     1     -22.006  -7.634  -2.374  1.00  0.00     0.187 HD
BRANCH   8  11
HETATM   11  C   UNL     1     -21.477  -9.894  -1.998  1.00  0.00     0.092 C 
HETATM   12  C   UNL     1     -21.248  -9.326  -0.726  1.00  0.00     0.094 C 
HETATM   13  C   UNL     1     -21.662  -9.954   0.447  1.00  0.00     0.040 C 
HETATM   14  C   UNL     1     -22.438 -11.097   0.364  1.00  0.00     0.015 C 
HETATM   15  C   UNL     1     -22.679 -11.697  -0.876  1.00  0.00    -0.024 C 
HETATM   16  C   UNL     1     -23.458 -12.855  -0.948  1.00  0.00     0.012 C 
HETATM   17  C   UNL     1     -22.072 -11.179  -2.043  1.00  0.00     0.005 C 
HETATM   18  C   UNL     1     -23.345 -13.698  -2.047  1.00  0.00     0.001 C 
HETATM   19  C   UNL     1     -22.600 -13.299  -3.147  1.00  0.00     0.001 C 
HETATM   20  C   UNL     1     -22.058 -12.011  -3.187  1.00  0.00     0.014 C 
BRANCH  12  21
HETATM   21  O   UNL     1     -20.593  -8.135  -0.570  1.00  0.00    -0.358 OA
HETATM   22  H   UNL     1     -19.968  -8.258   0.165  1.00  0.00     0.217 HD
ENDBRANCH  12  21
ENDBRANCH   8  11
ENDBRANCH   4   7
BRANCH   1  23
HETATM   23  N   UNL     1     -21.241  -4.997  -7.992  1.00  0.00    -0.300 N 
HETATM   24  N   UNL     1     -22.369  -4.822  -8.536  1.00  0.00    -0.300 N 
ATOM     25  HN  UNL     1     -23.243  -5.190  -8.159  1.00  0.00     0.187 HD
ATOM     26  HN  UNL     1     -20.381  -4.575  -8.340  1.00  0.00     0.187 HD
BRANCH  24  27
HETATM   27  C   UNL     1     -22.288  -4.059  -9.723  1.00  0.00     0.048 A 
HETATM   28  C   UNL     1     -21.094  -3.794 -10.416  1.00  0.00     0.031 A 
HETATM   29  C   UNL     1     -21.102  -3.111 -11.639  1.00  0.00     0.002 A 
HETATM   30  C   UNL     1     -22.304  -2.677 -12.194  1.00  0.00     0.000 A 
HETATM   31  C   UNL     1     -23.497  -2.928 -11.524  1.00  0.00     0.002 A 
HETATM   32  C   UNL     1     -23.484  -3.616 -10.299  1.00  0.00     0.031 A 
ENDBRANCH  24  27
ENDBRANCH   1  23
TORSDOF 5
ENDMDL
MODEL 7
REMARK VINA RESULT:      -8.5     16.351     19.071
REMARK  5 active torsions:
REMARK  status: ('A' for Active; 'I' for Inactive)
REMARK    1  A    between atoms: C_4  and  N_7 
REMARK    2  A    between atoms: N_9  and  C_11 
REMARK    3  A    between atoms: C_14  and  N_17 
REMARK    4  A    between atoms: N_19  and  C_21 
REMARK    5  A    between atoms: C_22  and  O_31 
ROOT
HETATM    1  C   UNL     1     -18.716   9.668   2.758  1.00  0.00     0.048 A 
HETATM    2  C   UNL     1     -19.166  10.747   1.973  1.00  0.00     0.033 A 
HETATM    3  C   UNL     1     -20.497  10.799   1.498  1.00  0.00     0.033 A 
HETATM    4  C   UNL     1     -21.413   9.785   1.796  1.00  0.00     0.048 A 
HETATM    5  C   UNL     1     -20.952   8.707   2.571  1.00  0.00     0.033 A 
HETATM    6  C   UNL     1     -19.628   8.658   3.045  1.00  0.00     0.033 A 
ENDROOT
BRANCH   4   7
HETATM    7  N   UNL     1     -22.747   9.749   1.321  1.00  0.00    -0.300 N 
HETATM    8  N   UNL     1     -23.386   8.709   1.618  1.00  0.00    -0.297 N 
ATOM      9  HN  UNL     1     -23.081   8.006   2.291  1.00  0.00     0.187 HD
ATOM     10  HN  UNL     1     -23.158  10.509   0.778  1.00  0.00     0.187 HD
BRANCH   8  11
HETATM   11  C   UNL     1     -24.602   8.657   0.872  1.00  0.00     0.092 C 
HETATM   12  C   UNL     1     -25.769   9.272   1.377  1.00  0.00     0.094 C 
HETATM   13  C   UNL     1     -26.969   9.267   0.668  1.00  0.00     0.040 C 
HETATM   14  C   UNL     1     -26.991   8.768  -0.622  1.00  0.00     0.015 C 
HETATM   15  C   UNL     1     -25.859   8.141  -1.154  1.00  0.00    -0.024 C 
HETATM   16  C   UNL     1     -25.894   7.634  -2.456  1.00  0.00     0.012 C 
HETATM   17  C   UNL     1     -24.711   7.952  -0.352  1.00  0.00     0.005 C 
HETATM   18  C   UNL     1     -24.993   6.648  -2.839  1.00  0.00     0.001 C 
HETATM   19  C   UNL     1     -23.949   6.302  -1.992  1.00  0.00     0.001 C 
HETATM   20  C   UNL     1     -23.750   7.020  -0.809  1.00  0.00     0.014 C 
BRANCH  12  21
HETATM   21  O   UNL     1     -25.793   9.893   2.595  1.00  0.00    -0.358 OA
HETATM   22  H   UNL     1     -25.672   9.197   3.263  1.00  0.00     0.217 HD
ENDBRANCH  12  21
ENDBRANCH   8  11
ENDBRANCH   4   7
BRANCH   1  23
HETATM   23  N   UNL     1     -17.367   9.513   3.183  1.00  0.00    -0.300 N 
HETATM   24  N   UNL     1     -17.257   9.030   4.347  1.00  0.00    -0.300 N 
ATOM     25  HN  UNL     1     -18.050   8.717   4.906  1.00  0.00     0.187 HD
ATOM     26  HN  UNL     1     -16.566   9.767   2.605  1.00  0.00     0.187 HD
BRANCH  24  27
HETATM   27  C   UNL     1     -15.915   8.973   4.787  1.00  0.00     0.048 A 
HETATM   28  C   UNL     1     -14.798   9.044   3.937  1.00  0.00     0.031 A 
HETATM   29  C   UNL     1     -13.496   9.077   4.455  1.00  0.00     0.002 A 
HETATM   30  C   UNL     1     -13.285   9.038   5.831  1.00  0.00     0.000 A 
HETATM   31  C   UNL     1     -14.377   8.966   6.689  1.00  0.00     0.002 A 
HETATM   32  C   UNL     1     -15.681   8.936   6.166  1.00  0.00     0.031 A 
ENDBRANCH  24  27
ENDBRANCH   1  23
TORSDOF 5
ENDMDL
MODEL 8
REMARK VINA RESULT:      -8.3      1.654      2.348
REMARK  5 active torsions:
REMARK  status: ('A' for Active; 'I' for Inactive)
REMARK    1  A    between atoms: C_4  and  N_7 
REMARK    2  A    between atoms: N_9  and  C_11 
REMARK    3  A    between atoms: C_14  and  N_17 
REMARK    4  A    between atoms: N_19  and  C_21 
REMARK    5  A    between atoms: C_22  and  O_31 
ROOT
HETATM    1  C   UNL     1     -22.349  -4.343  -9.101  1.00  0.00     0.048 A 
HETATM    2  C   UNL     1     -21.048  -4.883  -9.066  1.00  0.00     0.033 A 
HETATM    3  C   UNL     1     -20.534  -5.473  -7.888  1.00  0.00     0.033 A 
HETATM    4  C   UNL     1     -21.301  -5.548  -6.721  1.00  0.00     0.048 A 
HETATM    5  C   UNL     1     -22.593  -4.997  -6.761  1.00  0.00     0.033 A 
HETATM    6  C   UNL     1     -23.104  -4.412  -7.935  1.00  0.00     0.033 A 
ENDROOT
BRANCH   4   7
HETATM    7  N   UNL     1     -20.837  -6.085  -5.494  1.00  0.00    -0.300 N 
HETATM    8  N   UNL     1     -21.037  -7.317  -5.349  1.00  0.00    -0.297 N 
ATOM      9  HN  UNL     1     -21.335  -7.954  -6.088  1.00  0.00     0.187 HD
ATOM     10  HN  UNL     1     -20.377  -5.516  -4.784  1.00  0.00     0.187 HD
BRANCH   8  11
HETATM   11  C   UNL     1     -20.785  -7.693  -3.996  1.00  0.00     0.092 C 
HETATM   12  C   UNL     1     -21.480  -7.059  -2.943  1.00  0.00     0.094 C 
HETATM   13  C   UNL     1     -21.283  -7.415  -1.610  1.00  0.00     0.040 C 
HETATM   14  C   UNL     1     -20.488  -8.509  -1.313  1.00  0.00     0.015 C 
HETATM   15  C   UNL     1     -19.775  -9.157  -2.325  1.00  0.00    -0.024 C 
HETATM   16  C   UNL     1     -18.970 -10.256  -2.014  1.00  0.00     0.012 C 
HETATM   17  C   UNL     1     -19.805  -8.655  -3.647  1.00  0.00     0.005 C 
HETATM   18  C   UNL     1     -17.938 -10.624  -2.869  1.00  0.00     0.001 C 
HETATM   19  C   UNL     1     -17.826 -10.018  -4.113  1.00  0.00     0.001 C 
HETATM   20  C   UNL     1     -18.809  -9.120  -4.537  1.00  0.00     0.014 C 
BRANCH  12  21
HETATM   21  O   UNL     1     -22.375  -6.049  -3.168  1.00  0.00    -0.358 OA
HETATM   22  H   UNL     1     -22.658  -6.132  -4.095  1.00  0.00     0.217 HD
ENDBRANCH  12  21
ENDBRANCH   8  11
ENDBRANCH   4   7
BRANCH   1  23
HETATM   23  N   UNL     1     -22.884  -3.653 -10.224  1.00  0.00    -0.300 N 
HETATM   24  N   UNL     1     -22.736  -4.276 -11.315  1.00  0.00    -0.300 N 
ATOM     25  HN  UNL     1     -22.335  -5.211 -11.383  1.00  0.00     0.187 HD
ATOM     26  HN  UNL     1     -23.342  -2.745 -10.156  1.00  0.00     0.187 HD
BRANCH  24  27
HETATM   27  C   UNL     1     -23.189  -3.534 -12.430  1.00  0.00     0.048 A 
HETATM   28  C   UNL     1     -24.439  -2.895 -12.503  1.00  0.00     0.031 A 
HETATM   29  C   UNL     1     -24.780  -2.096 -13.602  1.00  0.00     0.002 A 
HETATM   30  C   UNL     1     -23.880  -1.921 -14.652  1.00  0.00     0.000 A 
HETATM   31  C   UNL     1     -22.639  -2.546 -14.598  1.00  0.00     0.002 A 
HETATM   32  C   UNL     1     -22.300  -3.343 -13.493  1.00  0.00     0.031 A 
ENDBRANCH  24  27
ENDBRANCH   1  23
TORSDOF 5
ENDMDL
MODEL 9
REMARK VINA RESULT:      -8.1      5.402      9.835
REMARK  5 active torsions:
REMARK  status: ('A' for Active; 'I' for Inactive)
REMARK    1  A    between atoms: C_4  and  N_7 
REMARK    2  A    between atoms: N_9  and  C_11 
REMARK    3  A    between atoms: C_14  and  N_17 
REMARK    4  A    between atoms: N_19  and  C_21 
REMARK    5  A    between atoms: C_22  and  O_31 
ROOT
HETATM    1  C   UNL     1     -15.674 -11.948  -4.799  1.00  0.00     0.048 A 
HETATM    2  C   UNL     1     -16.460 -11.144  -5.648  1.00  0.00     0.033 A 
HETATM    3  C   UNL     1     -17.360 -10.189  -5.122  1.00  0.00     0.033 A 
HETATM    4  C   UNL     1     -17.497 -10.005  -3.742  1.00  0.00     0.048 A 
HETATM    5  C   UNL     1     -16.718 -10.819  -2.903  1.00  0.00     0.033 A 
HETATM    6  C   UNL     1     -15.820 -11.768  -3.428  1.00  0.00     0.033 A 
ENDROOT
BRANCH   4   7
HETATM    7  N   UNL     1     -18.407  -9.099  -3.144  1.00  0.00    -0.300 N 
HETATM    8  N   UNL     1     -19.609  -9.462  -3.172  1.00  0.00    -0.297 N 
ATOM      9  HN  UNL     1     -19.934 -10.395  -3.426  1.00  0.00     0.187 HD
ATOM     10  HN  UNL     1     -18.109  -8.219  -2.722  1.00  0.00     0.187 HD
BRANCH   8  11
HETATM   11  C   UNL     1     -20.454  -8.375  -2.797  1.00  0.00     0.092 C 
HETATM   12  C   UNL     1     -20.688  -7.316  -3.701  1.00  0.00     0.094 C 
HETATM   13  C   UNL     1     -21.527  -6.249  -3.383  1.00  0.00     0.040 C 
HETATM   14  C   UNL     1     -22.258  -6.290  -2.209  1.00  0.00     0.015 C 
HETATM   15  C   UNL     1     -22.047  -7.316  -1.283  1.00  0.00    -0.024 C 
HETATM   16  C   UNL     1     -22.786  -7.344  -0.097  1.00  0.00     0.012 C 
HETATM   17  C   UNL     1     -21.036  -8.277  -1.509  1.00  0.00     0.005 C 
HETATM   18  C   UNL     1     -22.307  -8.049   1.000  1.00  0.00     0.001 C 
HETATM   19  C   UNL     1     -21.196  -8.869   0.861  1.00  0.00     0.001 C 
HETATM   20  C   UNL     1     -20.631  -9.061  -0.403  1.00  0.00     0.014 C 
BRANCH  12  21
HETATM   21  O   UNL     1     -20.095  -7.267  -4.932  1.00  0.00    -0.358 OA
HETATM   22  H   UNL     1     -20.774  -6.956  -5.554  1.00  0.00     0.217 HD
ENDBRANCH  12  21
ENDBRANCH   8  11
ENDBRANCH   4   7
BRANCH   1  23
HETATM   23  N   UNL     1     -14.824 -12.989  -5.267  1.00  0.00    -0.300 N 
HETATM   24  N   UNL     1     -14.900 -14.048  -4.580  1.00  0.00    -0.300 N 
ATOM     25  HN  UNL     1     -15.553 -14.176  -3.806  1.00  0.00     0.187 HD
ATOM     26  HN  UNL     1     -14.213 -12.891  -6.077  1.00  0.00     0.187 HD
BRANCH  24  27
HETATM   27  C   UNL     1     -13.981 -15.036  -5.001  1.00  0.00     0.048 A 
HETATM   28  C   UNL     1     -13.567 -15.218  -6.332  1.00  0.00     0.031 A 
HETATM   29  C   UNL     1     -12.579 -16.156  -6.661  1.00  0.00     0.002 A 
HETATM   30  C   UNL     1     -11.988 -16.933  -5.667  1.00  0.00     0.000 A 
HETATM   31  C   UNL     1     -12.385 -16.768  -4.344  1.00  0.00     0.002 A 
HETATM   32  C   UNL     1     -13.373 -15.825  -4.019  1.00  0.00     0.031 A 
ENDBRANCH  24  27
ENDBRANCH   1  23
TORSDOF 5
ENDMDL
