MODEL 1
REMARK VINA RESULT:     -10.5      0.000      0.000
REMARK  1 active torsions:
REMARK  status: ('A' for Active; 'I' for Inactive)
REMARK    1  A    between atoms: C_9  and  C_12 
ROOT
HETATM    1  C   UNL     1     -21.363  -8.637  -1.670  1.00  0.00     0.001 A 
HETATM    2  C   UNL     1     -21.945  -7.422  -1.328  1.00  0.00     0.002 A 
HETATM    3  C   UNL     1     -21.937  -6.361  -2.239  1.00  0.00     0.030 A 
HETATM    4  C   UNL     1     -21.361  -6.479  -3.497  1.00  0.00     0.042 A 
HETATM    5  C   UNL     1     -20.766  -7.713  -3.834  1.00  0.00    -0.009 A 
HETATM    6  C   UNL     1     -20.769  -8.783  -2.920  1.00  0.00     0.013 A 
HETATM    7  C   UNL     1     -20.188  -7.840  -5.098  1.00  0.00     0.015 A 
HETATM    8  C   UNL     1     -20.238  -6.774  -5.990  1.00  0.00     0.027 A 
HETATM    9  C   UNL     1     -20.867  -5.596  -5.594  1.00  0.00     0.029 A 
HETATM   10  N   UNL     1     -21.403  -5.440  -4.357  1.00  0.00    -0.358 N 
ATOM     11  HN  UNL     1     -21.828  -4.555  -4.082  1.00  0.00     0.166 HD
ENDROOT
BRANCH   9  12
HETATM   12  C   UNL     1     -21.032  -4.478  -6.583  1.00  0.00     0.185 A 
HETATM   13  C   UNL     1     -22.340  -4.500  -7.343  1.00  0.00     0.177 A 
HETATM   14  O   UNL     1     -23.471  -4.464  -6.889  1.00  0.00    -0.291 OA
HETATM   15  C   UNL     1     -22.042  -4.463  -8.778  1.00  0.00     0.025 A 
HETATM   16  C   UNL     1     -22.918  -4.350  -9.841  1.00  0.00     0.016 A 
HETATM   17  C   UNL     1     -20.668  -4.491  -8.970  1.00  0.00     0.025 A 
HETATM   18  C   UNL     1     -22.371  -4.277 -11.127  1.00  0.00     0.001 A 
HETATM   19  C   UNL     1     -20.976  -4.327 -11.321  1.00  0.00     0.001 A 
HETATM   20  C   UNL     1     -20.107  -4.436 -10.233  1.00  0.00     0.016 A 
HETATM   21  C   UNL     1     -19.985  -4.513  -7.678  1.00  0.00     0.177 A 
HETATM   22  O   UNL     1     -18.773  -4.479  -7.557  1.00  0.00    -0.291 OA
ENDBRANCH   9  12
TORSDOF 1
ENDMDL
MODEL 2
REMARK VINA RESULT:      -9.7      2.056      3.858
REMARK  1 active torsions:
REMARK  status: ('A' for Active; 'I' for Inactive)
REMARK    1  A    between atoms: C_9  and  C_12 
ROOT
HETATM    1  C   UNL     1     -21.192  -9.315   1.128  1.00  0.00     0.001 A 
HETATM    2  C   UNL     1     -21.010 -10.388   0.263  1.00  0.00     0.002 A 
HETATM    3  C   UNL     1     -21.145 -10.205  -1.118  1.00  0.00     0.030 A 
HETATM    4  C   UNL     1     -21.457  -8.968  -1.667  1.00  0.00     0.042 A 
HETATM    5  C   UNL     1     -21.648  -7.886  -0.782  1.00  0.00    -0.009 A 
HETATM    6  C   UNL     1     -21.516  -8.065   0.607  1.00  0.00     0.013 A 
HETATM    7  C   UNL     1     -21.959  -6.639  -1.328  1.00  0.00     0.015 A 
HETATM    8  C   UNL     1     -22.043  -6.492  -2.708  1.00  0.00     0.027 A 
HETATM    9  C   UNL     1     -21.815  -7.601  -3.517  1.00  0.00     0.029 A 
HETATM   10  N   UNL     1     -21.547  -8.830  -3.006  1.00  0.00    -0.358 N 
ATOM     11  HN  UNL     1     -21.417  -9.633  -3.621  1.00  0.00     0.166 HD
ENDROOT
BRANCH   9  12
HETATM   12  C   UNL     1     -21.787  -7.435  -5.009  1.00  0.00     0.185 A 
HETATM   13  C   UNL     1     -20.404  -7.256  -5.595  1.00  0.00     0.177 A 
HETATM   14  O   UNL     1     -19.451  -8.013  -5.513  1.00  0.00    -0.291 OA
HETATM   15  C   UNL     1     -20.399  -6.033  -6.404  1.00  0.00     0.025 A 
HETATM   16  C   UNL     1     -19.396  -5.537  -7.217  1.00  0.00     0.016 A 
HETATM   17  C   UNL     1     -21.634  -5.408  -6.312  1.00  0.00     0.025 A 
HETATM   18  C   UNL     1     -19.665  -4.368  -7.937  1.00  0.00     0.001 A 
HETATM   19  C   UNL     1     -20.912  -3.723  -7.826  1.00  0.00     0.001 A 
HETATM   20  C   UNL     1     -21.915  -4.243  -7.004  1.00  0.00     0.016 A 
HETATM   21  C   UNL     1     -22.529  -6.196  -5.469  1.00  0.00     0.177 A 
HETATM   22  O   UNL     1     -23.695  -5.905  -5.269  1.00  0.00    -0.291 OA
ENDBRANCH   9  12
TORSDOF 1
ENDMDL
MODEL 3
REMARK VINA RESULT:      -8.6      2.257      7.333
REMARK  1 active torsions:
REMARK  status: ('A' for Active; 'I' for Inactive)
REMARK    1  A    between atoms: C_9  and  C_12 
ROOT
HETATM    1  C   UNL     1     -21.212  -4.143  -8.864  1.00  0.00     0.001 A 
HETATM    2  C   UNL     1     -19.921  -4.052  -8.357  1.00  0.00     0.002 A 
HETATM    3  C   UNL     1     -19.629  -4.567  -7.089  1.00  0.00     0.030 A 
HETATM    4  C   UNL     1     -20.597  -5.180  -6.306  1.00  0.00     0.042 A 
HETATM    5  C   UNL     1     -21.907  -5.261  -6.824  1.00  0.00    -0.009 A 
HETATM    6  C   UNL     1     -22.207  -4.743  -8.097  1.00  0.00     0.013 A 
HETATM    7  C   UNL     1     -22.885  -5.879  -6.042  1.00  0.00     0.015 A 
HETATM    8  C   UNL     1     -22.543  -6.415  -4.805  1.00  0.00     0.027 A 
HETATM    9  C   UNL     1     -21.223  -6.319  -4.374  1.00  0.00     0.029 A 
HETATM   10  N   UNL     1     -20.265  -5.690  -5.102  1.00  0.00    -0.358 N 
ATOM     11  HN  UNL     1     -19.312  -5.605  -4.746  1.00  0.00     0.166 HD
ENDROOT
BRANCH   9  12
HETATM   12  C   UNL     1     -20.812  -6.992  -3.096  1.00  0.00     0.185 A 
HETATM   13  C   UNL     1     -20.938  -8.499  -3.112  1.00  0.00     0.177 A 
HETATM   14  O   UNL     1     -20.404  -9.288  -3.873  1.00  0.00    -0.291 OA
HETATM   15  C   UNL     1     -21.751  -8.908  -1.962  1.00  0.00     0.025 A 
HETATM   16  C   UNL     1     -22.030 -10.184  -1.510  1.00  0.00     0.016 A 
HETATM   17  C   UNL     1     -22.193  -7.784  -1.281  1.00  0.00     0.025 A 
HETATM   18  C   UNL     1     -22.790 -10.306  -0.341  1.00  0.00     0.001 A 
HETATM   19  C   UNL     1     -23.257  -9.163   0.337  1.00  0.00     0.001 A 
HETATM   20  C   UNL     1     -22.959  -7.881  -0.132  1.00  0.00     0.016 A 
HETATM   21  C   UNL     1     -21.672  -6.578  -1.920  1.00  0.00     0.177 A 
HETATM   22  O   UNL     1     -21.858  -5.453  -1.487  1.00  0.00    -0.291 OA
ENDBRANCH   9  12
TORSDOF 1
ENDMDL
MODEL 4
REMARK VINA RESULT:      -8.5      3.376      7.089
REMARK  1 active torsions:
REMARK  status: ('A' for Active; 'I' for Inactive)
REMARK    1  A    between atoms: C_9  and  C_12 
ROOT
HETATM    1  C   UNL     1     -21.517  -4.097  -7.786  1.00  0.00     0.001 A 
HETATM    2  C   UNL     1     -20.242  -4.536  -8.120  1.00  0.00     0.002 A 
HETATM    3  C   UNL     1     -19.681  -5.631  -7.454  1.00  0.00     0.030 A 
HETATM    4  C   UNL     1     -20.365  -6.310  -6.455  1.00  0.00     0.042 A 
HETATM    5  C   UNL     1     -21.656  -5.854  -6.116  1.00  0.00    -0.009 A 
HETATM    6  C   UNL     1     -22.224  -4.752  -6.781  1.00  0.00     0.013 A 
HETATM    7  C   UNL     1     -22.351  -6.534  -5.114  1.00  0.00     0.015 A 
HETATM    8  C   UNL     1     -21.773  -7.643  -4.506  1.00  0.00     0.027 A 
HETATM    9  C   UNL     1     -20.506  -8.049  -4.913  1.00  0.00     0.029 A 
HETATM   10  N   UNL     1     -19.799  -7.380  -5.860  1.00  0.00    -0.358 N 
ATOM     11  HN  UNL     1     -18.858  -7.680  -6.116  1.00  0.00     0.166 HD
ENDROOT
BRANCH   9  12
HETATM   12  C   UNL     1     -19.917  -9.311  -4.351  1.00  0.00     0.185 A 
HETATM   13  C   UNL     1     -19.079  -9.112  -3.107  1.00  0.00     0.177 A 
HETATM   14  O   UNL     1     -19.420  -8.621  -2.044  1.00  0.00    -0.291 OA
HETATM   15  C   UNL     1     -17.763  -9.717  -3.334  1.00  0.00     0.025 A 
HETATM   16  C   UNL     1     -16.720  -9.880  -2.441  1.00  0.00     0.016 A 
HETATM   17  C   UNL     1     -17.693 -10.208  -4.630  1.00  0.00     0.025 A 
HETATM   18  C   UNL     1     -15.578 -10.549  -2.894  1.00  0.00     0.001 A 
HETATM   19  C   UNL     1     -15.500 -11.029  -4.217  1.00  0.00     0.001 A 
HETATM   20  C   UNL     1     -16.567 -10.859  -5.102  1.00  0.00     0.016 A 
HETATM   21  C   UNL     1     -18.963  -9.986  -5.315  1.00  0.00     0.177 A 
HETATM   22  O   UNL     1     -19.194 -10.376  -6.447  1.00  0.00    -0.291 OA
ENDBRANCH   9  12
TORSDOF 1
ENDMDL
MODEL 5
REMARK VINA RESULT:      -8.2      4.209      6.908
REMARK  1 active torsions:
REMARK  status: ('A' for Active; 'I' for Inactive)
REMARK    1  A    between atoms: C_9  and  C_12 
ROOT
HETATM    1  C   UNL     1     -23.164 -14.218   1.748  1.00  0.00     0.001 A 
HETATM    2  C   UNL     1     -21.779 -14.288   1.654  1.00  0.00     0.002 A 
HETATM    3  C   UNL     1     -21.069 -13.267   1.012  1.00  0.00     0.030 A 
HETATM    4  C   UNL     1     -21.707 -12.166   0.458  1.00  0.00     0.042 A 
HETATM    5  C   UNL     1     -23.113 -12.106   0.550  1.00  0.00    -0.009 A 
HETATM    6  C   UNL     1     -23.833 -13.131   1.192  1.00  0.00     0.013 A 
HETATM    7  C   UNL     1     -23.762 -11.000  -0.002  1.00  0.00     0.015 A 
HETATM    8  C   UNL     1     -23.015  -9.988  -0.594  1.00  0.00     0.027 A 
HETATM    9  C   UNL     1     -21.628 -10.105  -0.623  1.00  0.00     0.029 A 
HETATM   10  N   UNL     1     -20.981 -11.189  -0.124  1.00  0.00    -0.358 N 
ATOM     11  HN  UNL     1     -19.965 -11.265  -0.188  1.00  0.00     0.166 HD
ENDROOT
BRANCH   9  12
HETATM   12  C   UNL     1     -20.801  -8.970  -1.154  1.00  0.00     0.185 A 
HETATM   13  C   UNL     1     -21.590  -7.729  -1.505  1.00  0.00     0.177 A 
HETATM   14  O   UNL     1     -22.303  -7.062  -0.773  1.00  0.00    -0.291 OA
HETATM   15  C   UNL     1     -21.280  -7.359  -2.889  1.00  0.00     0.025 A 
HETATM   16  C   UNL     1     -21.674  -6.236  -3.594  1.00  0.00     0.016 A 
HETATM   17  C   UNL     1     -20.426  -8.301  -3.443  1.00  0.00     0.025 A 
HETATM   18  C   UNL     1     -21.189  -6.087  -4.898  1.00  0.00     0.001 A 
HETATM   19  C   UNL     1     -20.338  -7.056  -5.466  1.00  0.00     0.001 A 
HETATM   20  C   UNL     1     -19.947  -8.180  -4.735  1.00  0.00     0.016 A 
HETATM   21  C   UNL     1     -20.098  -9.321  -2.450  1.00  0.00     0.177 A 
HETATM   22  O   UNL     1     -19.317 -10.233  -2.655  1.00  0.00    -0.291 OA
ENDBRANCH   9  12
TORSDOF 1
ENDMDL
MODEL 6
REMARK VINA RESULT:      -8.2      3.173      5.379
REMARK  1 active torsions:
REMARK  status: ('A' for Active; 'I' for Inactive)
REMARK    1  A    between atoms: C_9  and  C_12 
ROOT
HETATM    1  C   UNL     1     -23.915 -13.274  -0.802  1.00  0.00     0.001 A 
HETATM    2  C   UNL     1     -23.286 -13.397  -2.035  1.00  0.00     0.002 A 
HETATM    3  C   UNL     1     -22.613 -12.304  -2.590  1.00  0.00     0.030 A 
HETATM    4  C   UNL     1     -22.546 -11.078  -1.942  1.00  0.00     0.042 A 
HETATM    5  C   UNL     1     -23.194 -10.958  -0.695  1.00  0.00    -0.009 A 
HETATM    6  C   UNL     1     -23.874 -12.054  -0.133  1.00  0.00     0.013 A 
HETATM    7  C   UNL     1     -23.128  -9.729  -0.036  1.00  0.00     0.015 A 
HETATM    8  C   UNL     1     -22.414  -8.680  -0.603  1.00  0.00     0.027 A 
HETATM    9  C   UNL     1     -21.778  -8.883  -1.825  1.00  0.00     0.029 A 
HETATM   10  N   UNL     1     -21.860 -10.058  -2.499  1.00  0.00    -0.358 N 
ATOM     11  HN  UNL     1     -21.412 -10.169  -3.409  1.00  0.00     0.166 HD
ENDROOT
BRANCH   9  12
HETATM   12  C   UNL     1     -20.908  -7.800  -2.395  1.00  0.00     0.185 A 
HETATM   13  C   UNL     1     -21.666  -6.648  -3.017  1.00  0.00     0.177 A 
HETATM   14  O   UNL     1     -22.484  -5.916  -2.486  1.00  0.00    -0.291 OA
HETATM   15  C   UNL     1     -21.178  -6.458  -4.387  1.00  0.00     0.025 A 
HETATM   16  C   UNL     1     -21.494  -5.458  -5.287  1.00  0.00     0.016 A 
HETATM   17  C   UNL     1     -20.239  -7.434  -4.686  1.00  0.00     0.025 A 
HETATM   18  C   UNL     1     -20.839  -5.469  -6.524  1.00  0.00     0.001 A 
HETATM   19  C   UNL     1     -19.901  -6.473  -6.834  1.00  0.00     0.001 A 
HETATM   20  C   UNL     1     -19.591  -7.472  -5.908  1.00  0.00     0.016 A 
HETATM   21  C   UNL     1     -20.030  -8.297  -3.526  1.00  0.00     0.177 A 
HETATM   22  O   UNL     1     -19.211  -9.199  -3.497  1.00  0.00    -0.291 OA
ENDBRANCH   9  12
TORSDOF 1
ENDMDL
MODEL 7
REMARK VINA RESULT:      -8.1      4.450      7.320
REMARK  1 active torsions:
REMARK  status: ('A' for Active; 'I' for Inactive)
REMARK    1  A    between atoms: C_9  and  C_12 
ROOT
HETATM    1  C   UNL     1     -19.297 -13.891  -8.520  1.00  0.00     0.001 A 
HETATM    2  C   UNL     1     -18.023 -13.388  -8.289  1.00  0.00     0.002 A 
HETATM    3  C   UNL     1     -17.845 -12.298  -7.430  1.00  0.00     0.030 A 
HETATM    4  C   UNL     1     -18.914 -11.691  -6.785  1.00  0.00     0.042 A 
HETATM    5  C   UNL     1     -20.205 -12.202  -7.031  1.00  0.00    -0.009 A 
HETATM    6  C   UNL     1     -20.390 -13.296  -7.896  1.00  0.00     0.013 A 
HETATM    7  C   UNL     1     -21.285 -11.598  -6.383  1.00  0.00     0.015 A 
HETATM    8  C   UNL     1     -21.060 -10.544  -5.505  1.00  0.00     0.027 A 
HETATM    9  C   UNL     1     -19.753 -10.112  -5.293  1.00  0.00     0.029 A 
HETATM   10  N   UNL     1     -18.694 -10.662  -5.941  1.00  0.00    -0.358 N 
ATOM     11  HN  UNL     1     -17.750 -10.304  -5.792  1.00  0.00     0.166 HD
ENDROOT
BRANCH   9  12
HETATM   12  C   UNL     1     -19.481  -9.055  -4.263  1.00  0.00     0.185 A 
HETATM   13  C   UNL     1     -19.850  -9.446  -2.849  1.00  0.00     0.177 A 
HETATM   14  O   UNL     1     -19.436 -10.393  -2.202  1.00  0.00    -0.291 OA
HETATM   15  C   UNL     1     -20.740  -8.418  -2.302  1.00  0.00     0.025 A 
HETATM   16  C   UNL     1     -21.231  -8.294  -1.015  1.00  0.00     0.016 A 
HETATM   17  C   UNL     1     -21.007  -7.466  -3.275  1.00  0.00     0.025 A 
HETATM   18  C   UNL     1     -22.023  -7.177  -0.728  1.00  0.00     0.001 A 
HETATM   19  C   UNL     1     -22.311  -6.222  -1.724  1.00  0.00     0.001 A 
HETATM   20  C   UNL     1     -21.800  -6.361  -3.017  1.00  0.00     0.016 A 
HETATM   21  C   UNL     1     -20.285  -7.792  -4.502  1.00  0.00     0.177 A 
HETATM   22  O   UNL     1     -20.295  -7.088  -5.496  1.00  0.00    -0.291 OA
ENDBRANCH   9  12
TORSDOF 1
ENDMDL
MODEL 8
REMARK VINA RESULT:      -8.1      4.654      7.436
REMARK  1 active torsions:
REMARK  status: ('A' for Active; 'I' for Inactive)
REMARK    1  A    between atoms: C_9  and  C_12 
ROOT
HETATM    1  C   UNL     1     -14.459 -11.976  -6.026  1.00  0.00     0.001 A 
HETATM    2  C   UNL     1     -15.489 -12.451  -6.830  1.00  0.00     0.002 A 
HETATM    3  C   UNL     1     -16.813 -12.087  -6.560  1.00  0.00     0.030 A 
HETATM    4  C   UNL     1     -17.142 -11.250  -5.502  1.00  0.00     0.042 A 
HETATM    5  C   UNL     1     -16.092 -10.778  -4.687  1.00  0.00    -0.009 A 
HETATM    6  C   UNL     1     -14.760 -11.143  -4.952  1.00  0.00     0.013 A 
HETATM    7  C   UNL     1     -16.416  -9.934  -3.623  1.00  0.00     0.015 A 
HETATM    8  C   UNL     1     -17.740  -9.564  -3.415  1.00  0.00     0.027 A 
HETATM    9  C   UNL     1     -18.718 -10.049  -4.279  1.00  0.00     0.029 A 
HETATM   10  N   UNL     1     -18.429 -10.900  -5.297  1.00  0.00    -0.358 N 
ATOM     11  HN  UNL     1     -19.169 -11.267  -5.895  1.00  0.00     0.166 HD
ENDROOT
BRANCH   9  12
HETATM   12  C   UNL     1     -20.133  -9.568  -4.140  1.00  0.00     0.185 A 
HETATM   13  C   UNL     1     -20.311  -8.078  -4.335  1.00  0.00     0.177 A 
HETATM   14  O   UNL     1     -20.024  -7.411  -5.314  1.00  0.00    -0.291 OA
HETATM   15  C   UNL     1     -21.009  -7.539  -3.164  1.00  0.00     0.025 A 
HETATM   16  C   UNL     1     -21.488  -6.259  -2.955  1.00  0.00     0.016 A 
HETATM   17  C   UNL     1     -21.214  -8.550  -2.236  1.00  0.00     0.025 A 
HETATM   18  C   UNL     1     -22.178  -6.011  -1.763  1.00  0.00     0.001 A 
HETATM   19  C   UNL     1     -22.366  -7.034  -0.813  1.00  0.00     0.001 A 
HETATM   20  C   UNL     1     -21.881  -8.323  -1.045  1.00  0.00     0.016 A 
HETATM   21  C   UNL     1     -20.696  -9.814  -2.755  1.00  0.00     0.177 A 
HETATM   22  O   UNL     1     -20.800 -10.876  -2.167  1.00  0.00    -0.291 OA
ENDBRANCH   9  12
TORSDOF 1
ENDMDL
MODEL 9
REMARK VINA RESULT:      -7.8      4.234      7.010
REMARK  1 active torsions:
REMARK  status: ('A' for Active; 'I' for Inactive)
REMARK    1  A    between atoms: C_9  and  C_12 
ROOT
HETATM    1  C   UNL     1     -15.582 -11.989  -6.649  1.00  0.00     0.001 A 
HETATM    2  C   UNL     1     -15.476 -10.728  -6.072  1.00  0.00     0.002 A 
HETATM    3  C   UNL     1     -16.629 -10.037  -5.684  1.00  0.00     0.030 A 
HETATM    4  C   UNL     1     -17.898 -10.574  -5.853  1.00  0.00     0.042 A 
HETATM    5  C   UNL     1     -17.998 -11.850  -6.446  1.00  0.00    -0.009 A 
HETATM    6  C   UNL     1     -16.842 -12.549  -6.841  1.00  0.00     0.013 A 
HETATM    7  C   UNL     1     -19.271 -12.397  -6.616  1.00  0.00     0.015 A 
HETATM    8  C   UNL     1     -20.388 -11.694  -6.178  1.00  0.00     0.027 A 
HETATM    9  C   UNL     1     -20.207 -10.451  -5.577  1.00  0.00     0.029 A 
HETATM   10  N   UNL     1     -18.981  -9.886  -5.435  1.00  0.00    -0.358 N 
ATOM     11  HN  UNL     1     -18.880  -8.959  -5.022  1.00  0.00     0.166 HD
ENDROOT
BRANCH   9  12
HETATM   12  C   UNL     1     -21.389  -9.732  -4.995  1.00  0.00     0.185 A 
HETATM   13  C   UNL     1     -21.316  -8.225  -5.089  1.00  0.00     0.177 A 
HETATM   14  O   UNL     1     -21.207  -7.541  -6.094  1.00  0.00    -0.291 OA
HETATM   15  C   UNL     1     -21.509  -7.667  -3.748  1.00  0.00     0.025 A 
HETATM   16  C   UNL     1     -21.636  -6.342  -3.371  1.00  0.00     0.016 A 
HETATM   17  C   UNL     1     -21.624  -8.697  -2.826  1.00  0.00     0.025 A 
HETATM   18  C   UNL     1     -21.874  -6.074  -2.018  1.00  0.00     0.001 A 
HETATM   19  C   UNL     1     -21.970  -7.121  -1.081  1.00  0.00     0.001 A 
HETATM   20  C   UNL     1     -21.844  -8.453  -1.482  1.00  0.00     0.016 A 
HETATM   21  C   UNL     1     -21.549  -9.986  -3.510  1.00  0.00     0.177 A 
HETATM   22  O   UNL     1     -21.683 -11.057  -2.943  1.00  0.00    -0.291 OA
ENDBRANCH   9  12
TORSDOF 1
ENDMDL
