MODEL 1
REMARK VINA RESULT:      -6.9      0.000      0.000
REMARK  17 active torsions:
REMARK  status: ('A' for Active; 'I' for Inactive)
REMARK    1  A    between atoms: C_2  and  C_3 
REMARK    2  A    between atoms: C_3  and  C_4 
REMARK    3  A    between atoms: C_4  and  C_5 
REMARK    4  A    between atoms: C_5  and  C_6 
REMARK    5  A    between atoms: C_7  and  C_8 
REMARK    6  A    between atoms: C_8  and  C_9 
REMARK    7  A    between atoms: C_10  and  C_11 
REMARK    8  A    between atoms: C_11  and  C_12 
REMARK    9  A    between atoms: C_13  and  C_14 
REMARK   10  A    between atoms: C_15  and  C_16 
REMARK   11  A    between atoms: C_16  and  C_17 
REMARK   12  A    between atoms: C_16  and  O_23 
REMARK   13  A    between atoms: C_17  and  C_18 
REMARK   14  A    between atoms: C_18  and  C_19 
REMARK   15  A    between atoms: C_19  and  C_20 
REMARK   16  A    between atoms: C_20  and  O_22 
REMARK   17  A    between atoms: O_23  and  O_24 
ROOT
HETATM    1  C   UNL     1     -20.958  -8.869  -5.102  1.00  0.00    -0.023 C 
HETATM    2  C   UNL     1     -20.074  -7.863  -5.217  1.00  0.00    -0.004 C 
ENDROOT
BRANCH   2   3
HETATM    3  C   UNL     1     -20.362  -6.669  -5.971  1.00  0.00    -0.002 C 
HETATM    4  C   UNL     1     -21.593  -6.138  -6.060  1.00  0.00     0.008 C 
BRANCH   4   5
HETATM    5  C   UNL     1     -21.901  -4.896  -6.856  1.00  0.00     0.183 C 
BRANCH   5   6
HETATM    6  C   UNL     1     -21.648  -5.155  -8.347  1.00  0.00     0.040 C 
BRANCH   6   7
HETATM    7  C   UNL     1     -20.517  -4.318  -8.956  1.00  0.00     0.013 C 
BRANCH   7   8
HETATM    8  C   UNL     1     -20.463  -4.351 -10.485  1.00  0.00     0.110 C 
BRANCH   8   9
HETATM    9  C   UNL     1     -21.680  -3.681 -11.087  1.00  0.00     0.139 C 
HETATM   10  O   UNL     1     -21.708  -2.555 -11.555  1.00  0.00    -0.650 OA
BRANCH   9  11
HETATM   11  O   UNL     1     -22.775  -4.474 -11.055  1.00  0.00    -0.776 OA
HETATM   12  H   UNL     1     -23.334  -4.346 -10.266  1.00  0.00     0.167 HD
ENDBRANCH   9  11
ENDBRANCH   8   9
ENDBRANCH   7   8
ENDBRANCH   6   7
ENDBRANCH   5   6
BRANCH   5  13
HETATM   13  O   UNL     1     -23.284  -4.554  -6.682  1.00  0.00    -0.234 OA
BRANCH  13  14
HETATM   14  O   UNL     1     -23.773  -4.117  -7.984  1.00  0.00    -0.250 OA
HETATM   15  H   UNL     1     -22.894  -3.971  -8.379  1.00  0.00     0.253 HD
ENDBRANCH  13  14
ENDBRANCH   5  13
ENDBRANCH   4   5
ENDBRANCH   2   3
BRANCH   1  16
HETATM   16  C   UNL     1     -20.693 -10.128  -4.332  1.00  0.00     0.054 C 
BRANCH  16  17
HETATM   17  C   UNL     1     -21.901 -10.542  -3.543  1.00  0.00    -0.027 C 
HETATM   18  C   UNL     1     -21.941 -11.626  -2.750  1.00  0.00    -0.027 C 
BRANCH  18  19
HETATM   19  C   UNL     1     -23.134 -12.027  -1.933  1.00  0.00     0.053 C 
BRANCH  19  20
HETATM   20  C   UNL     1     -23.670 -10.864  -1.151  1.00  0.00    -0.027 C 
HETATM   21  C   UNL     1     -22.942 -10.142  -0.288  1.00  0.00    -0.030 C 
BRANCH  21  22
HETATM   22  C   UNL     1     -23.481  -8.971   0.478  1.00  0.00     0.027 C 
BRANCH  22  23
HETATM   23  C   UNL     1     -22.663  -7.709   0.197  1.00  0.00     0.004 C 
BRANCH  23  24
HETATM   24  C   UNL     1     -21.328  -8.060  -0.459  1.00  0.00    -0.000 C 
BRANCH  24  25
HETATM   25  C   UNL     1     -21.133  -7.293  -1.765  1.00  0.00    -0.005 C 
HETATM   26  C   UNL     1     -22.230  -6.260  -1.964  1.00  0.00     0.005 C 
ENDBRANCH  24  25
ENDBRANCH  23  24
ENDBRANCH  22  23
ENDBRANCH  21  22
ENDBRANCH  19  20
ENDBRANCH  18  19
ENDBRANCH  16  17
ENDBRANCH   1  16
TORSDOF 17
ENDMDL
MODEL 2
REMARK VINA RESULT:      -6.7      3.597      5.322
REMARK  17 active torsions:
REMARK  status: ('A' for Active; 'I' for Inactive)
REMARK    1  A    between atoms: C_2  and  C_3 
REMARK    2  A    between atoms: C_3  and  C_4 
REMARK    3  A    between atoms: C_4  and  C_5 
REMARK    4  A    between atoms: C_5  and  C_6 
REMARK    5  A    between atoms: C_7  and  C_8 
REMARK    6  A    between atoms: C_8  and  C_9 
REMARK    7  A    between atoms: C_10  and  C_11 
REMARK    8  A    between atoms: C_11  and  C_12 
REMARK    9  A    between atoms: C_13  and  C_14 
REMARK   10  A    between atoms: C_15  and  C_16 
REMARK   11  A    between atoms: C_16  and  C_17 
REMARK   12  A    between atoms: C_16  and  O_23 
REMARK   13  A    between atoms: C_17  and  C_18 
REMARK   14  A    between atoms: C_18  and  C_19 
REMARK   15  A    between atoms: C_19  and  C_20 
REMARK   16  A    between atoms: C_20  and  O_22 
REMARK   17  A    between atoms: O_23  and  O_24 
ROOT
HETATM    1  C   UNL     1     -22.082  -7.442  -1.141  1.00  0.00    -0.023 C 
HETATM    2  C   UNL     1     -22.116  -6.280  -1.815  1.00  0.00    -0.004 C 
ENDROOT
BRANCH   2   3
HETATM    3  C   UNL     1     -21.515  -6.129  -3.117  1.00  0.00    -0.002 C 
HETATM    4  C   UNL     1     -22.028  -6.680  -4.229  1.00  0.00     0.008 C 
BRANCH   4   5
HETATM    5  C   UNL     1     -21.397  -6.533  -5.590  1.00  0.00     0.183 C 
BRANCH   5   6
HETATM    6  C   UNL     1     -20.714  -5.164  -5.705  1.00  0.00     0.040 C 
BRANCH   6   7
HETATM    7  C   UNL     1     -21.275  -4.262  -6.811  1.00  0.00     0.013 C 
BRANCH   7   8
HETATM    8  C   UNL     1     -22.710  -4.594  -7.225  1.00  0.00     0.110 C 
BRANCH   8   9
HETATM    9  C   UNL     1     -23.023  -4.037  -8.598  1.00  0.00     0.139 C 
HETATM   10  O   UNL     1     -22.287  -4.096  -9.569  1.00  0.00    -0.650 OA
BRANCH   9  11
HETATM   11  O   UNL     1     -24.237  -3.444  -8.650  1.00  0.00    -0.776 OA
HETATM   12  H   UNL     1     -24.985  -4.067  -8.586  1.00  0.00     0.167 HD
ENDBRANCH   9  11
ENDBRANCH   8   9
ENDBRANCH   7   8
ENDBRANCH   6   7
ENDBRANCH   5   6
BRANCH   5  13
HETATM   13  O   UNL     1     -20.402  -7.553  -5.761  1.00  0.00    -0.234 OA
BRANCH  13  14
HETATM   14  O   UNL     1     -19.476  -7.066  -6.778  1.00  0.00    -0.250 OA
HETATM   15  H   UNL     1     -19.789  -7.652  -7.490  1.00  0.00     0.253 HD
ENDBRANCH  13  14
ENDBRANCH   5  13
ENDBRANCH   4   5
ENDBRANCH   2   3
BRANCH   1  16
HETATM   16  C   UNL     1     -22.690  -7.637   0.216  1.00  0.00     0.054 C 
BRANCH  16  17
HETATM   17  C   UNL     1     -23.378  -8.967   0.313  1.00  0.00    -0.027 C 
HETATM   18  C   UNL     1     -23.118 -10.006  -0.499  1.00  0.00    -0.027 C 
BRANCH  18  19
HETATM   19  C   UNL     1     -23.777 -11.349  -0.385  1.00  0.00     0.053 C 
BRANCH  19  20
HETATM   20  C   UNL     1     -22.956 -12.286   0.451  1.00  0.00    -0.027 C 
HETATM   21  C   UNL     1     -23.476 -13.175   1.310  1.00  0.00    -0.030 C 
BRANCH  21  22
HETATM   22  C   UNL     1     -22.649 -14.119   2.130  1.00  0.00     0.027 C 
BRANCH  22  23
HETATM   23  C   UNL     1     -23.500 -14.804   3.201  1.00  0.00     0.004 C 
BRANCH  23  24
HETATM   24  C   UNL     1     -22.623 -15.601   4.166  1.00  0.00    -0.000 C 
BRANCH  24  25
HETATM   25  C   UNL     1     -23.044 -15.373   5.616  1.00  0.00    -0.005 C 
HETATM   26  C   UNL     1     -24.542 -15.561   5.788  1.00  0.00     0.005 C 
ENDBRANCH  24  25
ENDBRANCH  23  24
ENDBRANCH  22  23
ENDBRANCH  21  22
ENDBRANCH  19  20
ENDBRANCH  18  19
ENDBRANCH  16  17
ENDBRANCH   1  16
TORSDOF 17
ENDMDL
MODEL 3
REMARK VINA RESULT:      -6.7      1.765      3.844
REMARK  17 active torsions:
REMARK  status: ('A' for Active; 'I' for Inactive)
REMARK    1  A    between atoms: C_2  and  C_3 
REMARK    2  A    between atoms: C_3  and  C_4 
REMARK    3  A    between atoms: C_4  and  C_5 
REMARK    4  A    between atoms: C_5  and  C_6 
REMARK    5  A    between atoms: C_7  and  C_8 
REMARK    6  A    between atoms: C_8  and  C_9 
REMARK    7  A    between atoms: C_10  and  C_11 
REMARK    8  A    between atoms: C_11  and  C_12 
REMARK    9  A    between atoms: C_13  and  C_14 
REMARK   10  A    between atoms: C_15  and  C_16 
REMARK   11  A    between atoms: C_16  and  C_17 
REMARK   12  A    between atoms: C_16  and  O_23 
REMARK   13  A    between atoms: C_17  and  C_18 
REMARK   14  A    between atoms: C_18  and  C_19 
REMARK   15  A    between atoms: C_19  and  C_20 
REMARK   16  A    between atoms: C_20  and  O_22 
REMARK   17  A    between atoms: O_23  and  O_24 
ROOT
HETATM    1  C   UNL     1     -21.971  -7.221  -1.251  1.00  0.00    -0.023 C 
HETATM    2  C   UNL     1     -22.035  -6.114  -2.010  1.00  0.00    -0.004 C 
ENDROOT
BRANCH   2   3
HETATM    3  C   UNL     1     -21.459  -6.054  -3.330  1.00  0.00    -0.002 C 
HETATM    4  C   UNL     1     -22.066  -6.555  -4.418  1.00  0.00     0.008 C 
BRANCH   4   5
HETATM    5  C   UNL     1     -21.463  -6.504  -5.799  1.00  0.00     0.183 C 
BRANCH   5   6
HETATM    6  C   UNL     1     -20.252  -5.562  -5.805  1.00  0.00     0.040 C 
BRANCH   6   7
HETATM    7  C   UNL     1     -20.224  -4.567  -6.971  1.00  0.00     0.013 C 
BRANCH   7   8
HETATM    8  C   UNL     1     -21.501  -3.737  -7.121  1.00  0.00     0.110 C 
BRANCH   8   9
HETATM    9  C   UNL     1     -22.167  -4.001  -8.455  1.00  0.00     0.139 C 
HETATM   10  O   UNL     1     -21.712  -4.695  -9.348  1.00  0.00    -0.650 OA
BRANCH   9  11
HETATM   11  O   UNL     1     -23.358  -3.369  -8.570  1.00  0.00    -0.776 OA
HETATM   12  H   UNL     1     -23.699  -3.010  -7.730  1.00  0.00     0.167 HD
ENDBRANCH   9  11
ENDBRANCH   8   9
ENDBRANCH   7   8
ENDBRANCH   6   7
ENDBRANCH   5   6
BRANCH   5  13
HETATM   13  O   UNL     1     -21.019  -7.817  -6.170  1.00  0.00    -0.234 OA
BRANCH  13  14
HETATM   14  O   UNL     1     -19.567  -7.820  -6.037  1.00  0.00    -0.250 OA
HETATM   15  H   UNL     1     -19.523  -8.564  -5.410  1.00  0.00     0.253 HD
ENDBRANCH  13  14
ENDBRANCH   5  13
ENDBRANCH   4   5
ENDBRANCH   2   3
BRANCH   1  16
HETATM   16  C   UNL     1     -22.552  -7.321   0.128  1.00  0.00     0.054 C 
BRANCH  16  17
HETATM   17  C   UNL     1     -23.326  -8.596   0.296  1.00  0.00    -0.027 C 
HETATM   18  C   UNL     1     -23.056  -9.729  -0.373  1.00  0.00    -0.027 C 
BRANCH  18  19
HETATM   19  C   UNL     1     -23.804 -11.016  -0.184  1.00  0.00     0.053 C 
BRANCH  19  20
HETATM   20  C   UNL     1     -23.489 -11.991  -1.280  1.00  0.00    -0.027 C 
HETATM   21  C   UNL     1     -22.921 -11.651  -2.445  1.00  0.00    -0.030 C 
BRANCH  21  22
HETATM   22  C   UNL     1     -22.595 -12.635  -3.529  1.00  0.00     0.027 C 
BRANCH  22  23
HETATM   23  C   UNL     1     -21.417 -12.147  -4.375  1.00  0.00     0.004 C 
BRANCH  23  24
HETATM   24  C   UNL     1     -21.156 -10.660  -4.140  1.00  0.00    -0.000 C 
BRANCH  24  25
HETATM   25  C   UNL     1     -19.685 -10.398  -3.825  1.00  0.00    -0.005 C 
HETATM   26  C   UNL     1     -19.535  -9.536  -2.583  1.00  0.00     0.005 C 
ENDBRANCH  24  25
ENDBRANCH  23  24
ENDBRANCH  22  23
ENDBRANCH  21  22
ENDBRANCH  19  20
ENDBRANCH  18  19
ENDBRANCH  16  17
ENDBRANCH   1  16
TORSDOF 17
ENDMDL
MODEL 4
REMARK VINA RESULT:      -6.7      2.392      3.965
REMARK  17 active torsions:
REMARK  status: ('A' for Active; 'I' for Inactive)
REMARK    1  A    between atoms: C_2  and  C_3 
REMARK    2  A    between atoms: C_3  and  C_4 
REMARK    3  A    between atoms: C_4  and  C_5 
REMARK    4  A    between atoms: C_5  and  C_6 
REMARK    5  A    between atoms: C_7  and  C_8 
REMARK    6  A    between atoms: C_8  and  C_9 
REMARK    7  A    between atoms: C_10  and  C_11 
REMARK    8  A    between atoms: C_11  and  C_12 
REMARK    9  A    between atoms: C_13  and  C_14 
REMARK   10  A    between atoms: C_15  and  C_16 
REMARK   11  A    between atoms: C_16  and  C_17 
REMARK   12  A    between atoms: C_16  and  O_23 
REMARK   13  A    between atoms: C_17  and  C_18 
REMARK   14  A    between atoms: C_18  and  C_19 
REMARK   15  A    between atoms: C_19  and  C_20 
REMARK   16  A    between atoms: C_20  and  O_22 
REMARK   17  A    between atoms: O_23  and  O_24 
ROOT
HETATM    1  C   UNL     1     -22.031  -7.297  -1.288  1.00  0.00    -0.023 C 
HETATM    2  C   UNL     1     -21.936  -6.132  -1.952  1.00  0.00    -0.004 C 
ENDROOT
BRANCH   2   3
HETATM    3  C   UNL     1     -21.512  -6.064  -3.328  1.00  0.00    -0.002 C 
HETATM    4  C   UNL     1     -21.965  -6.901  -4.276  1.00  0.00     0.008 C 
BRANCH   4   5
HETATM    5  C   UNL     1     -21.518  -6.840  -5.714  1.00  0.00     0.183 C 
BRANCH   5   6
HETATM    6  C   UNL     1     -20.390  -5.811  -5.867  1.00  0.00     0.040 C 
BRANCH   6   7
HETATM    7  C   UNL     1     -20.388  -5.061  -7.204  1.00  0.00     0.013 C 
BRANCH   7   8
HETATM    8  C   UNL     1     -21.236  -3.788  -7.213  1.00  0.00     0.110 C 
BRANCH   8   9
HETATM    9  C   UNL     1     -22.495  -3.977  -8.031  1.00  0.00     0.139 C 
HETATM   10  O   UNL     1     -22.579  -3.849  -9.240  1.00  0.00    -0.650 OA
BRANCH   9  11
HETATM   11  O   UNL     1     -23.560  -4.312  -7.267  1.00  0.00    -0.776 OA
HETATM   12  H   UNL     1     -23.812  -3.630  -6.617  1.00  0.00     0.167 HD
ENDBRANCH   9  11
ENDBRANCH   8   9
ENDBRANCH   7   8
ENDBRANCH   6   7
ENDBRANCH   5   6
BRANCH   5  13
HETATM   13  O   UNL     1     -21.017  -8.126  -6.108  1.00  0.00    -0.234 OA
BRANCH  13  14
HETATM   14  O   UNL     1     -19.620  -8.174  -5.695  1.00  0.00    -0.250 OA
HETATM   15  H   UNL     1     -19.390  -8.972  -6.204  1.00  0.00     0.253 HD
ENDBRANCH  13  14
ENDBRANCH   5  13
ENDBRANCH   4   5
ENDBRANCH   2   3
BRANCH   1  16
HETATM   16  C   UNL     1     -22.461  -7.408   0.143  1.00  0.00     0.054 C 
BRANCH  16  17
HETATM   17  C   UNL     1     -23.357  -8.595   0.347  1.00  0.00    -0.027 C 
HETATM   18  C   UNL     1     -23.184  -9.778  -0.266  1.00  0.00    -0.027 C 
BRANCH  18  19
HETATM   19  C   UNL     1     -24.056 -10.978  -0.041  1.00  0.00     0.053 C 
BRANCH  19  20
HETATM   20  C   UNL     1     -23.244 -12.239  -0.006  1.00  0.00    -0.027 C 
HETATM   21  C   UNL     1     -22.170 -12.418   0.777  1.00  0.00    -0.030 C 
BRANCH  21  22
HETATM   22  C   UNL     1     -21.373 -13.686   0.817  1.00  0.00     0.027 C 
BRANCH  22  23
HETATM   23  C   UNL     1     -19.997 -13.489   0.178  1.00  0.00     0.004 C 
BRANCH  23  24
HETATM   24  C   UNL     1     -19.590 -12.017   0.206  1.00  0.00    -0.000 C 
BRANCH  24  25
HETATM   25  C   UNL     1     -19.074 -11.557  -1.156  1.00  0.00    -0.005 C 
HETATM   26  C   UNL     1     -19.976 -10.491  -1.753  1.00  0.00     0.005 C 
ENDBRANCH  24  25
ENDBRANCH  23  24
ENDBRANCH  22  23
ENDBRANCH  21  22
ENDBRANCH  19  20
ENDBRANCH  18  19
ENDBRANCH  16  17
ENDBRANCH   1  16
TORSDOF 17
ENDMDL
MODEL 5
REMARK VINA RESULT:      -6.6      2.099      4.201
REMARK  17 active torsions:
REMARK  status: ('A' for Active; 'I' for Inactive)
REMARK    1  A    between atoms: C_2  and  C_3 
REMARK    2  A    between atoms: C_3  and  C_4 
REMARK    3  A    between atoms: C_4  and  C_5 
REMARK    4  A    between atoms: C_5  and  C_6 
REMARK    5  A    between atoms: C_7  and  C_8 
REMARK    6  A    between atoms: C_8  and  C_9 
REMARK    7  A    between atoms: C_10  and  C_11 
REMARK    8  A    between atoms: C_11  and  C_12 
REMARK    9  A    between atoms: C_13  and  C_14 
REMARK   10  A    between atoms: C_15  and  C_16 
REMARK   11  A    between atoms: C_16  and  C_17 
REMARK   12  A    between atoms: C_16  and  O_23 
REMARK   13  A    between atoms: C_17  and  C_18 
REMARK   14  A    between atoms: C_18  and  C_19 
REMARK   15  A    between atoms: C_19  and  C_20 
REMARK   16  A    between atoms: C_20  and  O_22 
REMARK   17  A    between atoms: O_23  and  O_24 
ROOT
HETATM    1  C   UNL     1     -21.898  -6.110  -2.960  1.00  0.00    -0.023 C 
HETATM    2  C   UNL     1     -21.504  -7.094  -3.786  1.00  0.00    -0.004 C 
ENDROOT
BRANCH   2   3
HETATM    3  C   UNL     1     -21.247  -6.865  -5.186  1.00  0.00    -0.002 C 
HETATM    4  C   UNL     1     -21.732  -5.807  -5.856  1.00  0.00     0.008 C 
BRANCH   4   5
HETATM    5  C   UNL     1     -21.475  -5.569  -7.322  1.00  0.00     0.183 C 
BRANCH   5   6
HETATM    6  C   UNL     1     -21.610  -4.074  -7.640  1.00  0.00     0.040 C 
BRANCH   6   7
HETATM    7  C   UNL     1     -22.609  -3.747  -8.756  1.00  0.00     0.013 C 
BRANCH   7   8
HETATM    8  C   UNL     1     -22.588  -4.731  -9.927  1.00  0.00     0.110 C 
BRANCH   8   9
HETATM    9  C   UNL     1     -23.618  -4.358 -10.971  1.00  0.00     0.139 C 
HETATM   10  O   UNL     1     -24.642  -3.728 -10.761  1.00  0.00    -0.650 OA
BRANCH   9  11
HETATM   11  O   UNL     1     -23.289  -4.806 -12.204  1.00  0.00    -0.776 OA
HETATM   12  H   UNL     1     -22.985  -4.106 -12.812  1.00  0.00     0.167 HD
ENDBRANCH   9  11
ENDBRANCH   8   9
ENDBRANCH   7   8
ENDBRANCH   6   7
ENDBRANCH   5   6
BRANCH   5  13
HETATM   13  O   UNL     1     -20.138  -5.983  -7.640  1.00  0.00    -0.234 OA
BRANCH  13  14
HETATM   14  O   UNL     1     -19.324  -4.774  -7.676  1.00  0.00    -0.250 OA
HETATM   15  H   UNL     1     -18.976  -4.858  -6.770  1.00  0.00     0.253 HD
ENDBRANCH  13  14
ENDBRANCH   5  13
ENDBRANCH   4   5
ENDBRANCH   2   3
BRANCH   1  16
HETATM   16  C   UNL     1     -22.180  -6.309  -1.501  1.00  0.00     0.054 C 
BRANCH  16  17
HETATM   17  C   UNL     1     -21.658  -7.633  -1.025  1.00  0.00    -0.027 C 
HETATM   18  C   UNL     1     -21.898  -8.138   0.197  1.00  0.00    -0.027 C 
BRANCH  18  19
HETATM   19  C   UNL     1     -21.407  -9.476   0.666  1.00  0.00     0.053 C 
BRANCH  19  20
HETATM   20  C   UNL     1     -22.163 -10.592   0.006  1.00  0.00    -0.027 C 
HETATM   21  C   UNL     1     -23.482 -10.566  -0.230  1.00  0.00    -0.030 C 
BRANCH  21  22
HETATM   22  C   UNL     1     -24.227 -11.679  -0.904  1.00  0.00     0.027 C 
BRANCH  22  23
HETATM   23  C   UNL     1     -23.316 -12.887  -1.135  1.00  0.00     0.004 C 
BRANCH  23  24
HETATM   24  C   UNL     1     -23.865 -14.126  -0.429  1.00  0.00    -0.000 C 
BRANCH  24  25
HETATM   25  C   UNL     1     -24.696 -14.985  -1.380  1.00  0.00    -0.005 C 
HETATM   26  C   UNL     1     -25.556 -15.976  -0.615  1.00  0.00     0.005 C 
ENDBRANCH  24  25
ENDBRANCH  23  24
ENDBRANCH  22  23
ENDBRANCH  21  22
ENDBRANCH  19  20
ENDBRANCH  18  19
ENDBRANCH  16  17
ENDBRANCH   1  16
TORSDOF 17
ENDMDL
MODEL 6
REMARK VINA RESULT:      -6.5      2.122      3.289
REMARK  17 active torsions:
REMARK  status: ('A' for Active; 'I' for Inactive)
REMARK    1  A    between atoms: C_2  and  C_3 
REMARK    2  A    between atoms: C_3  and  C_4 
REMARK    3  A    between atoms: C_4  and  C_5 
REMARK    4  A    between atoms: C_5  and  C_6 
REMARK    5  A    between atoms: C_7  and  C_8 
REMARK    6  A    between atoms: C_8  and  C_9 
REMARK    7  A    between atoms: C_10  and  C_11 
REMARK    8  A    between atoms: C_11  and  C_12 
REMARK    9  A    between atoms: C_13  and  C_14 
REMARK   10  A    between atoms: C_15  and  C_16 
REMARK   11  A    between atoms: C_16  and  C_17 
REMARK   12  A    between atoms: C_16  and  O_23 
REMARK   13  A    between atoms: C_17  and  C_18 
REMARK   14  A    between atoms: C_18  and  C_19 
REMARK   15  A    between atoms: C_19  and  C_20 
REMARK   16  A    between atoms: C_20  and  O_22 
REMARK   17  A    between atoms: O_23  and  O_24 
ROOT
HETATM    1  C   UNL     1     -21.432  -5.996  -2.960  1.00  0.00    -0.023 C 
HETATM    2  C   UNL     1     -21.843  -6.789  -3.964  1.00  0.00    -0.004 C 
ENDROOT
BRANCH   2   3
HETATM    3  C   UNL     1     -21.283  -6.704  -5.289  1.00  0.00    -0.002 C 
HETATM    4  C   UNL     1     -21.654  -5.772  -6.183  1.00  0.00     0.008 C 
BRANCH   4   5
HETATM    5  C   UNL     1     -21.078  -5.685  -7.573  1.00  0.00     0.183 C 
BRANCH   5   6
HETATM    6  C   UNL     1     -21.201  -4.249  -8.101  1.00  0.00     0.040 C 
BRANCH   6   7
HETATM    7  C   UNL     1     -21.227  -4.132  -9.629  1.00  0.00     0.013 C 
BRANCH   7   8
HETATM    8  C   UNL     1     -22.624  -4.238 -10.244  1.00  0.00     0.110 C 
BRANCH   8   9
HETATM    9  C   UNL     1     -22.550  -4.325 -11.754  1.00  0.00     0.139 C 
HETATM   10  O   UNL     1     -21.688  -3.815 -12.450  1.00  0.00    -0.650 OA
BRANCH   9  11
HETATM   11  O   UNL     1     -23.567  -5.046 -12.279  1.00  0.00    -0.776 OA
HETATM   12  H   UNL     1     -24.355  -4.516 -12.501  1.00  0.00     0.167 HD
ENDBRANCH   9  11
ENDBRANCH   8   9
ENDBRANCH   7   8
ENDBRANCH   6   7
ENDBRANCH   5   6
BRANCH   5  13
HETATM   13  O   UNL     1     -19.687  -6.037  -7.531  1.00  0.00    -0.234 OA
BRANCH  13  14
HETATM   14  O   UNL     1     -18.962  -4.829  -7.154  1.00  0.00    -0.250 OA
HETATM   15  H   UNL     1     -19.613  -4.520  -6.499  1.00  0.00     0.253 HD
ENDBRANCH  13  14
ENDBRANCH   5  13
ENDBRANCH   4   5
ENDBRANCH   2   3
BRANCH   1  16
HETATM   16  C   UNL     1     -21.993  -6.050  -1.571  1.00  0.00     0.054 C 
BRANCH  16  17
HETATM   17  C   UNL     1     -22.241  -7.467  -1.143  1.00  0.00    -0.027 C 
HETATM   18  C   UNL     1     -22.885  -7.806  -0.013  1.00  0.00    -0.027 C 
BRANCH  18  19
HETATM   19  C   UNL     1     -23.165  -9.220   0.403  1.00  0.00     0.053 C 
BRANCH  19  20
HETATM   20  C   UNL     1     -22.097 -10.152  -0.092  1.00  0.00    -0.027 C 
HETATM   21  C   UNL     1     -21.099 -10.621   0.671  1.00  0.00    -0.030 C 
BRANCH  21  22
HETATM   22  C   UNL     1     -20.046 -11.564   0.172  1.00  0.00     0.027 C 
BRANCH  22  23
HETATM   23  C   UNL     1     -19.821 -11.388  -1.331  1.00  0.00     0.004 C 
BRANCH  23  24
HETATM   24  C   UNL     1     -18.335 -11.213  -1.642  1.00  0.00    -0.000 C 
BRANCH  24  25
HETATM   25  C   UNL     1     -18.107 -10.079  -2.640  1.00  0.00    -0.005 C 
HETATM   26  C   UNL     1     -19.258  -9.087  -2.615  1.00  0.00     0.005 C 
ENDBRANCH  24  25
ENDBRANCH  23  24
ENDBRANCH  22  23
ENDBRANCH  21  22
ENDBRANCH  19  20
ENDBRANCH  18  19
ENDBRANCH  16  17
ENDBRANCH   1  16
TORSDOF 17
ENDMDL
MODEL 7
REMARK VINA RESULT:      -6.1      2.617      4.271
REMARK  17 active torsions:
REMARK  status: ('A' for Active; 'I' for Inactive)
REMARK    1  A    between atoms: C_2  and  C_3 
REMARK    2  A    between atoms: C_3  and  C_4 
REMARK    3  A    between atoms: C_4  and  C_5 
REMARK    4  A    between atoms: C_5  and  C_6 
REMARK    5  A    between atoms: C_7  and  C_8 
REMARK    6  A    between atoms: C_8  and  C_9 
REMARK    7  A    between atoms: C_10  and  C_11 
REMARK    8  A    between atoms: C_11  and  C_12 
REMARK    9  A    between atoms: C_13  and  C_14 
REMARK   10  A    between atoms: C_15  and  C_16 
REMARK   11  A    between atoms: C_16  and  C_17 
REMARK   12  A    between atoms: C_16  and  O_23 
REMARK   13  A    between atoms: C_17  and  C_18 
REMARK   14  A    between atoms: C_18  and  C_19 
REMARK   15  A    between atoms: C_19  and  C_20 
REMARK   16  A    between atoms: C_20  and  O_22 
REMARK   17  A    between atoms: O_23  and  O_24 
ROOT
HETATM    1  C   UNL     1     -22.406  -6.922  -1.310  1.00  0.00    -0.023 C 
HETATM    2  C   UNL     1     -21.247  -7.138  -1.956  1.00  0.00    -0.004 C 
ENDROOT
BRANCH   2   3
HETATM    3  C   UNL     1     -21.006  -6.643  -3.288  1.00  0.00    -0.002 C 
HETATM    4  C   UNL     1     -21.909  -6.732  -4.277  1.00  0.00     0.008 C 
BRANCH   4   5
HETATM    5  C   UNL     1     -21.658  -6.225  -5.674  1.00  0.00     0.183 C 
BRANCH   5   6
HETATM    6  C   UNL     1     -20.578  -5.134  -5.648  1.00  0.00     0.040 C 
BRANCH   6   7
HETATM    7  C   UNL     1     -20.791  -4.002  -6.659  1.00  0.00     0.013 C 
BRANCH   7   8
HETATM    8  C   UNL     1     -19.960  -4.135  -7.937  1.00  0.00     0.110 C 
BRANCH   8   9
HETATM    9  C   UNL     1     -20.821  -4.571  -9.104  1.00  0.00     0.139 C 
HETATM   10  O   UNL     1     -22.018  -4.798  -9.053  1.00  0.00    -0.650 OA
BRANCH   9  11
HETATM   11  O   UNL     1     -20.113  -4.692 -10.249  1.00  0.00    -0.776 OA
HETATM   12  H   UNL     1     -20.028  -5.610 -10.568  1.00  0.00     0.167 HD
ENDBRANCH   9  11
ENDBRANCH   8   9
ENDBRANCH   7   8
ENDBRANCH   6   7
ENDBRANCH   5   6
BRANCH   5  13
HETATM   13  O   UNL     1     -21.190  -7.307  -6.493  1.00  0.00    -0.234 OA
BRANCH  13  14
HETATM   14  O   UNL     1     -19.735  -7.300  -6.403  1.00  0.00    -0.250 OA
HETATM   15  H   UNL     1     -19.684  -7.708  -5.521  1.00  0.00     0.253 HD
ENDBRANCH  13  14
ENDBRANCH   5  13
ENDBRANCH   4   5
ENDBRANCH   2   3
BRANCH   1  16
HETATM   16  C   UNL     1     -22.697  -7.425   0.071  1.00  0.00     0.054 C 
BRANCH  16  17
HETATM   17  C   UNL     1     -22.378  -8.886   0.193  1.00  0.00    -0.027 C 
HETATM   18  C   UNL     1     -21.200  -9.362   0.631  1.00  0.00    -0.027 C 
BRANCH  18  19
HETATM   19  C   UNL     1     -20.887 -10.821   0.786  1.00  0.00     0.053 C 
BRANCH  19  20
HETATM   20  C   UNL     1     -19.869 -11.267  -0.222  1.00  0.00    -0.027 C 
HETATM   21  C   UNL     1     -19.784 -10.778  -1.468  1.00  0.00    -0.030 C 
BRANCH  21  22
HETATM   22  C   UNL     1     -18.754 -11.217  -2.464  1.00  0.00     0.027 C 
BRANCH  22  23
HETATM   23  C   UNL     1     -17.367 -10.696  -2.084  1.00  0.00     0.004 C 
BRANCH  23  24
HETATM   24  C   UNL     1     -16.999  -9.468  -2.917  1.00  0.00    -0.000 C 
BRANCH  24  25
HETATM   25  C   UNL     1     -16.007  -9.824  -4.023  1.00  0.00    -0.005 C 
HETATM   26  C   UNL     1     -16.705  -9.946  -5.367  1.00  0.00     0.005 C 
ENDBRANCH  24  25
ENDBRANCH  23  24
ENDBRANCH  22  23
ENDBRANCH  21  22
ENDBRANCH  19  20
ENDBRANCH  18  19
ENDBRANCH  16  17
ENDBRANCH   1  16
TORSDOF 17
ENDMDL
MODEL 8
REMARK VINA RESULT:      -6.1      3.936      9.110
REMARK  17 active torsions:
REMARK  status: ('A' for Active; 'I' for Inactive)
REMARK    1  A    between atoms: C_2  and  C_3 
REMARK    2  A    between atoms: C_3  and  C_4 
REMARK    3  A    between atoms: C_4  and  C_5 
REMARK    4  A    between atoms: C_5  and  C_6 
REMARK    5  A    between atoms: C_7  and  C_8 
REMARK    6  A    between atoms: C_8  and  C_9 
REMARK    7  A    between atoms: C_10  and  C_11 
REMARK    8  A    between atoms: C_11  and  C_12 
REMARK    9  A    between atoms: C_13  and  C_14 
REMARK   10  A    between atoms: C_15  and  C_16 
REMARK   11  A    between atoms: C_16  and  C_17 
REMARK   12  A    between atoms: C_16  and  O_23 
REMARK   13  A    between atoms: C_17  and  C_18 
REMARK   14  A    between atoms: C_18  and  C_19 
REMARK   15  A    between atoms: C_19  and  C_20 
REMARK   16  A    between atoms: C_20  and  O_22 
REMARK   17  A    between atoms: O_23  and  O_24 
ROOT
HETATM    1  C   UNL     1     -21.886  -7.400  -1.518  1.00  0.00    -0.023 C 
HETATM    2  C   UNL     1     -22.332  -7.645  -0.274  1.00  0.00    -0.004 C 
ENDROOT
BRANCH   2   3
HETATM    3  C   UNL     1     -22.295  -8.963   0.309  1.00  0.00    -0.002 C 
HETATM    4  C   UNL     1     -21.333  -9.859   0.034  1.00  0.00     0.008 C 
BRANCH   4   5
HETATM    5  C   UNL     1     -21.296 -11.242   0.633  1.00  0.00     0.183 C 
BRANCH   5   6
HETATM    6  C   UNL     1     -22.658 -11.926   0.453  1.00  0.00     0.040 C 
BRANCH   6   7
HETATM    7  C   UNL     1     -22.873 -12.563  -0.925  1.00  0.00     0.013 C 
BRANCH   7   8
HETATM    8  C   UNL     1     -23.490 -11.624  -1.963  1.00  0.00     0.110 C 
BRANCH   8   9
HETATM    9  C   UNL     1     -22.565 -11.437  -3.146  1.00  0.00     0.139 C 
HETATM   10  O   UNL     1     -21.825 -10.483  -3.322  1.00  0.00    -0.650 OA
BRANCH   9  11
HETATM   11  O   UNL     1     -22.639 -12.462  -4.026  1.00  0.00    -0.776 OA
HETATM   12  H   UNL     1     -23.270 -12.315  -4.754  1.00  0.00     0.167 HD
ENDBRANCH   9  11
ENDBRANCH   8   9
ENDBRANCH   7   8
ENDBRANCH   6   7
ENDBRANCH   5   6
BRANCH   5  13
HETATM   13  O   UNL     1     -20.301 -12.024  -0.043  1.00  0.00    -0.234 OA
BRANCH  13  14
HETATM   14  O   UNL     1     -19.732 -11.170  -1.079  1.00  0.00    -0.250 OA
HETATM   15  H   UNL     1     -20.558 -10.697  -1.287  1.00  0.00     0.253 HD
ENDBRANCH  13  14
ENDBRANCH   5  13
ENDBRANCH   4   5
ENDBRANCH   2   3
BRANCH   1  16
HETATM   16  C   UNL     1     -21.912  -6.046  -2.161  1.00  0.00     0.054 C 
BRANCH  16  17
HETATM   17  C   UNL     1     -21.470  -6.120  -3.594  1.00  0.00    -0.027 C 
HETATM   18  C   UNL     1     -20.828  -7.174  -4.126  1.00  0.00    -0.027 C 
BRANCH  18  19
HETATM   19  C   UNL     1     -20.414  -7.267  -5.565  1.00  0.00     0.053 C 
BRANCH  19  20
HETATM   20  C   UNL     1     -20.260  -5.905  -6.174  1.00  0.00    -0.027 C 
HETATM   21  C   UNL     1     -20.052  -5.686  -7.480  1.00  0.00    -0.030 C 
BRANCH  21  22
HETATM   22  C   UNL     1     -19.915  -4.321  -8.083  1.00  0.00     0.027 C 
BRANCH  22  23
HETATM   23  C   UNL     1     -21.065  -4.030  -9.049  1.00  0.00     0.004 C 
BRANCH  23  24
HETATM   24  C   UNL     1     -20.556  -3.919 -10.485  1.00  0.00    -0.000 C 
BRANCH  24  25
HETATM   25  C   UNL     1     -21.609  -4.391 -11.486  1.00  0.00    -0.005 C 
HETATM   26  C   UNL     1     -22.966  -4.549 -10.820  1.00  0.00     0.005 C 
ENDBRANCH  24  25
ENDBRANCH  23  24
ENDBRANCH  22  23
ENDBRANCH  21  22
ENDBRANCH  19  20
ENDBRANCH  18  19
ENDBRANCH  16  17
ENDBRANCH   1  16
TORSDOF 17
ENDMDL
MODEL 9
REMARK VINA RESULT:      -6.1      2.573      4.148
REMARK  17 active torsions:
REMARK  status: ('A' for Active; 'I' for Inactive)
REMARK    1  A    between atoms: C_2  and  C_3 
REMARK    2  A    between atoms: C_3  and  C_4 
REMARK    3  A    between atoms: C_4  and  C_5 
REMARK    4  A    between atoms: C_5  and  C_6 
REMARK    5  A    between atoms: C_7  and  C_8 
REMARK    6  A    between atoms: C_8  and  C_9 
REMARK    7  A    between atoms: C_10  and  C_11 
REMARK    8  A    between atoms: C_11  and  C_12 
REMARK    9  A    between atoms: C_13  and  C_14 
REMARK   10  A    between atoms: C_15  and  C_16 
REMARK   11  A    between atoms: C_16  and  C_17 
REMARK   12  A    between atoms: C_16  and  O_23 
REMARK   13  A    between atoms: C_17  and  C_18 
REMARK   14  A    between atoms: C_18  and  C_19 
REMARK   15  A    between atoms: C_19  and  C_20 
REMARK   16  A    between atoms: C_20  and  O_22 
REMARK   17  A    between atoms: O_23  and  O_24 
ROOT
HETATM    1  C   UNL     1     -21.674  -6.138  -2.514  1.00  0.00    -0.023 C 
HETATM    2  C   UNL     1     -21.537  -7.000  -3.536  1.00  0.00    -0.004 C 
ENDROOT
BRANCH   2   3
HETATM    3  C   UNL     1     -20.904  -6.627  -4.776  1.00  0.00    -0.002 C 
HETATM    4  C   UNL     1     -21.590  -6.380  -5.904  1.00  0.00     0.008 C 
BRANCH   4   5
HETATM    5  C   UNL     1     -20.932  -6.000  -7.205  1.00  0.00     0.183 C 
BRANCH   5   6
HETATM    6  C   UNL     1     -21.451  -4.634  -7.673  1.00  0.00     0.040 C 
BRANCH   6   7
HETATM    7  C   UNL     1     -21.648  -4.512  -9.189  1.00  0.00     0.013 C 
BRANCH   7   8
HETATM    8  C   UNL     1     -22.774  -3.562  -9.603  1.00  0.00     0.110 C 
BRANCH   8   9
HETATM    9  C   UNL     1     -23.870  -4.305 -10.337  1.00  0.00     0.139 C 
HETATM   10  O   UNL     1     -24.906  -4.710  -9.837  1.00  0.00    -0.650 OA
BRANCH   9  11
HETATM   11  O   UNL     1     -23.583  -4.487 -11.646  1.00  0.00    -0.776 OA
HETATM   12  H   UNL     1     -22.796  -5.041 -11.806  1.00  0.00     0.167 HD
ENDBRANCH   9  11
ENDBRANCH   8   9
ENDBRANCH   7   8
ENDBRANCH   6   7
ENDBRANCH   5   6
BRANCH   5  13
HETATM   13  O   UNL     1     -19.514  -5.905  -7.007  1.00  0.00    -0.234 OA
BRANCH  13  14
HETATM   14  O   UNL     1     -19.200  -4.484  -6.919  1.00  0.00    -0.250 OA
HETATM   15  H   UNL     1     -18.368  -4.594  -6.424  1.00  0.00     0.253 HD
ENDBRANCH  13  14
ENDBRANCH   5  13
ENDBRANCH   4   5
ENDBRANCH   2   3
BRANCH   1  16
HETATM   16  C   UNL     1     -22.331  -6.485  -1.212  1.00  0.00     0.054 C 
BRANCH  16  17
HETATM   17  C   UNL     1     -22.232  -7.956  -0.932  1.00  0.00    -0.027 C 
HETATM   18  C   UNL     1     -21.310  -8.504  -0.122  1.00  0.00    -0.027 C 
BRANCH  18  19
HETATM   19  C   UNL     1     -21.227  -9.970   0.188  1.00  0.00     0.053 C 
BRANCH  19  20
HETATM   20  C   UNL     1     -20.139 -10.630  -0.607  1.00  0.00    -0.027 C 
HETATM   21  C   UNL     1     -19.580 -10.095  -1.702  1.00  0.00    -0.030 C 
BRANCH  21  22
HETATM   22  C   UNL     1     -18.483 -10.755  -2.481  1.00  0.00     0.027 C 
BRANCH  22  23
HETATM   23  C   UNL     1     -17.509  -9.716  -3.042  1.00  0.00     0.004 C 
BRANCH  23  24
HETATM   24  C   UNL     1     -16.202 -10.376  -3.480  1.00  0.00    -0.000 C 
BRANCH  24  25
HETATM   25  C   UNL     1     -15.726  -9.827  -4.823  1.00  0.00    -0.005 C 
HETATM   26  C   UNL     1     -16.815  -9.936  -5.877  1.00  0.00     0.005 C 
ENDBRANCH  24  25
ENDBRANCH  23  24
ENDBRANCH  22  23
ENDBRANCH  21  22
ENDBRANCH  19  20
ENDBRANCH  18  19
ENDBRANCH  16  17
ENDBRANCH   1  16
TORSDOF 17
ENDMDL
