REMARK  17 active torsions:
REMARK  status: ('A' for Active; 'I' for Inactive)
REMARK    1  A    between atoms: C_2  and  C_3 
REMARK    2  A    between atoms: C_3  and  C_4 
REMARK    3  A    between atoms: C_4  and  C_5 
REMARK    4  A    between atoms: C_5  and  C_6 
REMARK    5  A    between atoms: C_7  and  C_8 
REMARK    6  A    between atoms: C_8  and  C_9 
REMARK    7  A    between atoms: C_9  and  C_10 
REMARK    8  A    between atoms: C_9  and  O_23 
REMARK    9  A    between atoms: C_11  and  C_12 
REMARK   10  A    between atoms: C_13  and  C_14 
REMARK   11  A    between atoms: C_14  and  C_15 
REMARK   12  A    between atoms: C_16  and  C_17 
REMARK   13  A    between atoms: C_17  and  C_18 
REMARK   14  A    between atoms: C_18  and  C_19 
REMARK   15  A    between atoms: C_19  and  C_20 
REMARK   16  A    between atoms: C_20  and  O_22 
REMARK   17  A    between atoms: O_23  and  O_24 
ROOT
HETATM    1  C   UNL     1       8.757   0.381  -6.259  1.00  0.00     0.008 C 
HETATM    2  C   UNL     1       8.480   0.231  -7.566  1.00  0.00    -0.002 C 
ENDROOT
BRANCH   1   3
HETATM    3  C   UNL     1       9.235  -0.744  -5.367  1.00  0.00     0.186 C 
BRANCH   3   4
HETATM    4  C   UNL     1       8.705  -0.661  -3.918  1.00  0.00     0.066 C 
BRANCH   4   5
HETATM    5  C   UNL     1       7.208  -0.697  -3.810  1.00  0.00    -0.028 C 
HETATM    6  C   UNL     1       6.490   0.243  -3.177  1.00  0.00    -0.031 C 
BRANCH   6   7
HETATM    7  C   UNL     1       4.990   0.277  -3.182  1.00  0.00     0.027 C 
BRANCH   7   8
HETATM    8  C   UNL     1       4.461   1.544  -3.863  1.00  0.00     0.004 C 
BRANCH   8   9
HETATM    9  C   UNL     1       4.923   1.678  -5.319  1.00  0.00    -0.000 C 
BRANCH   9  10
HETATM   10  C   UNL     1       4.358   2.939  -5.970  1.00  0.00    -0.005 C 
HETATM   11  C   UNL     1       4.834   3.079  -7.406  1.00  0.00     0.005 C 
ENDBRANCH   9  10
ENDBRANCH   8   9
ENDBRANCH   7   8
ENDBRANCH   6   7
ENDBRANCH   4   5
ENDBRANCH   3   4
BRANCH   3  12
HETATM   12  O   UNL     1      10.669  -0.650  -5.331  1.00  0.00    -0.234 OA
BRANCH  12  13
HETATM   13  O   UNL     1      11.147  -1.916  -4.789  1.00  0.00    -0.250 OA
HETATM   14  H   UNL     1      12.093  -1.738  -4.930  1.00  0.00     0.253 HD
ENDBRANCH  12  13
ENDBRANCH   3  12
ENDBRANCH   1   3
BRANCH   2  15
HETATM   15  C   UNL     1       8.027   1.310  -8.413  1.00  0.00    -0.004 C 
HETATM   16  C   UNL     1       7.767   1.157  -9.723  1.00  0.00    -0.023 C 
BRANCH  16  17
HETATM   17  C   UNL     1       7.280   2.258 -10.626  1.00  0.00     0.054 C 
BRANCH  17  18
HETATM   18  C   UNL     1       5.999   1.869 -11.310  1.00  0.00    -0.027 C 
HETATM   19  C   UNL     1       5.851   1.792 -12.644  1.00  0.00    -0.030 C 
BRANCH  19  20
HETATM   20  C   UNL     1       4.582   1.370 -13.330  1.00  0.00     0.027 C 
BRANCH  20  21
HETATM   21  C   UNL     1       4.772   0.105 -14.173  1.00  0.00     0.014 C 
BRANCH  21  22
HETATM   22  C   UNL     1       5.191  -1.107 -13.339  1.00  0.00     0.110 C 
BRANCH  22  23
HETATM   23  C   UNL     1       5.362  -2.346 -14.185  1.00  0.00     0.139 C 
HETATM   24  O   UNL     1       5.177  -2.415 -15.387  1.00  0.00    -0.650 OA
BRANCH  23  25
HETATM   25  O   UNL     1       5.760  -3.412 -13.446  1.00  0.00    -0.776 OA
HETATM   26  H   UNL     1       5.872  -3.213 -12.498  1.00  0.00     0.167 HD
ENDBRANCH  23  25
ENDBRANCH  22  23
ENDBRANCH  21  22
ENDBRANCH  20  21
ENDBRANCH  19  20
ENDBRANCH  17  18
ENDBRANCH  16  17
ENDBRANCH   2  15
TORSDOF 17
