MODEL 1
REMARK VINA RESULT:      -7.6      0.000      0.000
REMARK  17 active torsions:
REMARK  status: ('A' for Active; 'I' for Inactive)
REMARK    1  A    between atoms: C_2  and  C_3 
REMARK    2  A    between atoms: C_3  and  C_4 
REMARK    3  A    between atoms: C_4  and  C_5 
REMARK    4  A    between atoms: C_5  and  C_6 
REMARK    5  A    between atoms: C_7  and  C_8 
REMARK    6  A    between atoms: C_8  and  C_9 
REMARK    7  A    between atoms: C_9  and  C_10 
REMARK    8  A    between atoms: C_9  and  O_23 
REMARK    9  A    between atoms: C_11  and  C_12 
REMARK   10  A    between atoms: C_13  and  C_14 
REMARK   11  A    between atoms: C_14  and  C_15 
REMARK   12  A    between atoms: C_16  and  C_17 
REMARK   13  A    between atoms: C_17  and  C_18 
REMARK   14  A    between atoms: C_18  and  C_19 
REMARK   15  A    between atoms: C_19  and  C_20 
REMARK   16  A    between atoms: C_20  and  O_22 
REMARK   17  A    between atoms: O_23  and  O_24 
ROOT
HETATM    1  C   UNL     1     -21.257  -6.499  -5.432  1.00  0.00     0.008 C 
HETATM    2  C   UNL     1     -20.812  -5.237  -5.307  1.00  0.00    -0.002 C 
ENDROOT
BRANCH   1   3
HETATM    3  C   UNL     1     -21.713  -7.349  -4.265  1.00  0.00     0.186 C 
BRANCH   3   4
HETATM    4  C   UNL     1     -21.753  -6.591  -2.919  1.00  0.00     0.066 C 
BRANCH   4   5
HETATM    5  C   UNL     1     -21.616  -7.476  -1.713  1.00  0.00    -0.028 C 
HETATM    6  C   UNL     1     -22.419  -7.394  -0.642  1.00  0.00    -0.031 C 
BRANCH   6   7
HETATM    7  C   UNL     1     -22.366  -8.362   0.503  1.00  0.00     0.027 C 
BRANCH   7   8
HETATM    8  C   UNL     1     -22.334  -9.812   0.009  1.00  0.00     0.004 C 
BRANCH   8   9
HETATM    9  C   UNL     1     -23.733 -10.414  -0.170  1.00  0.00    -0.000 C 
BRANCH   9  10
HETATM   10  C   UNL     1     -23.744 -11.486  -1.258  1.00  0.00    -0.005 C 
HETATM   11  C   UNL     1     -22.976 -11.032  -2.488  1.00  0.00     0.005 C 
ENDBRANCH   9  10
ENDBRANCH   8   9
ENDBRANCH   7   8
ENDBRANCH   6   7
ENDBRANCH   4   5
ENDBRANCH   3   4
BRANCH   3  12
HETATM   12  O   UNL     1     -20.764  -8.423  -4.152  1.00  0.00    -0.234 OA
BRANCH  12  13
HETATM   13  O   UNL     1     -20.351  -8.747  -5.512  1.00  0.00    -0.250 OA
HETATM   14  H   UNL     1     -19.643  -8.082  -5.566  1.00  0.00     0.253 HD
ENDBRANCH  12  13
ENDBRANCH   3  12
ENDBRANCH   1   3
BRANCH   2  15
HETATM   15  C   UNL     1     -20.381  -4.431  -6.426  1.00  0.00    -0.004 C 
HETATM   16  C   UNL     1     -20.018  -4.951  -7.611  1.00  0.00    -0.023 C 
BRANCH  16  17
HETATM   17  C   UNL     1     -19.580  -4.135  -8.797  1.00  0.00     0.054 C 
BRANCH  17  18
HETATM   18  C   UNL     1     -20.467  -4.389  -9.984  1.00  0.00    -0.027 C 
HETATM   19  C   UNL     1     -21.808  -4.290  -9.957  1.00  0.00    -0.030 C 
BRANCH  19  20
HETATM   20  C   UNL     1     -22.695  -4.508 -11.150  1.00  0.00     0.027 C 
BRANCH  20  21
HETATM   21  C   UNL     1     -22.327  -3.593 -12.322  1.00  0.00     0.014 C 
BRANCH  21  22
HETATM   22  C   UNL     1     -23.349  -2.478 -12.549  1.00  0.00     0.110 C 
BRANCH  22  23
HETATM   23  C   UNL     1     -23.659  -2.282 -14.014  1.00  0.00     0.139 C 
HETATM   24  O   UNL     1     -23.427  -3.083 -14.901  1.00  0.00    -0.650 OA
BRANCH  23  25
HETATM   25  O   UNL     1     -24.246  -1.081 -14.250  1.00  0.00    -0.776 OA
HETATM   26  H   UNL     1     -23.998  -0.390 -13.608  1.00  0.00     0.167 HD
ENDBRANCH  23  25
ENDBRANCH  22  23
ENDBRANCH  21  22
ENDBRANCH  20  21
ENDBRANCH  19  20
ENDBRANCH  17  18
ENDBRANCH  16  17
ENDBRANCH   2  15
TORSDOF 17
ENDMDL
MODEL 2
REMARK VINA RESULT:      -7.5      1.956      2.363
REMARK  17 active torsions:
REMARK  status: ('A' for Active; 'I' for Inactive)
REMARK    1  A    between atoms: C_2  and  C_3 
REMARK    2  A    between atoms: C_3  and  C_4 
REMARK    3  A    between atoms: C_4  and  C_5 
REMARK    4  A    between atoms: C_5  and  C_6 
REMARK    5  A    between atoms: C_7  and  C_8 
REMARK    6  A    between atoms: C_8  and  C_9 
REMARK    7  A    between atoms: C_9  and  C_10 
REMARK    8  A    between atoms: C_9  and  O_23 
REMARK    9  A    between atoms: C_11  and  C_12 
REMARK   10  A    between atoms: C_13  and  C_14 
REMARK   11  A    between atoms: C_14  and  C_15 
REMARK   12  A    between atoms: C_16  and  C_17 
REMARK   13  A    between atoms: C_17  and  C_18 
REMARK   14  A    between atoms: C_18  and  C_19 
REMARK   15  A    between atoms: C_19  and  C_20 
REMARK   16  A    between atoms: C_20  and  O_22 
REMARK   17  A    between atoms: O_23  and  O_24 
ROOT
HETATM    1  C   UNL     1     -20.973  -5.854  -5.000  1.00  0.00     0.008 C 
HETATM    2  C   UNL     1     -21.067  -6.152  -6.308  1.00  0.00    -0.002 C 
ENDROOT
BRANCH   1   3
HETATM    3  C   UNL     1     -21.869  -6.451  -3.936  1.00  0.00     0.186 C 
BRANCH   3   4
HETATM    4  C   UNL     1     -21.520  -5.999  -2.500  1.00  0.00     0.066 C 
BRANCH   4   5
HETATM    5  C   UNL     1     -22.399  -6.596  -1.440  1.00  0.00    -0.028 C 
HETATM    6  C   UNL     1     -21.944  -7.407  -0.473  1.00  0.00    -0.031 C 
BRANCH   6   7
HETATM    7  C   UNL     1     -22.796  -7.897   0.661  1.00  0.00     0.027 C 
BRANCH   7   8
HETATM    8  C   UNL     1     -23.394  -9.275   0.358  1.00  0.00     0.004 C 
BRANCH   8   9
HETATM    9  C   UNL     1     -22.430 -10.190  -0.407  1.00  0.00    -0.000 C 
BRANCH   9  10
HETATM   10  C   UNL     1     -23.156 -10.978  -1.496  1.00  0.00    -0.005 C 
HETATM   11  C   UNL     1     -24.216 -11.890  -0.903  1.00  0.00     0.005 C 
ENDBRANCH   9  10
ENDBRANCH   8   9
ENDBRANCH   7   8
ENDBRANCH   6   7
ENDBRANCH   4   5
ENDBRANCH   3   4
BRANCH   3  12
HETATM   12  O   UNL     1     -21.698  -7.876  -4.017  1.00  0.00    -0.234 OA
BRANCH  12  13
HETATM   13  O   UNL     1     -20.335  -8.149  -3.580  1.00  0.00    -0.250 OA
HETATM   14  H   UNL     1     -19.898  -7.620  -4.270  1.00  0.00     0.253 HD
ENDBRANCH  12  13
ENDBRANCH   3  12
ENDBRANCH   1   3
BRANCH   2  15
HETATM   15  C   UNL     1     -20.206  -5.581  -7.318  1.00  0.00    -0.004 C 
HETATM   16  C   UNL     1     -20.641  -5.227  -8.540  1.00  0.00    -0.023 C 
BRANCH  16  17
HETATM   17  C   UNL     1     -19.772  -4.617  -9.606  1.00  0.00     0.054 C 
BRANCH  17  18
HETATM   18  C   UNL     1     -20.574  -3.723 -10.510  1.00  0.00    -0.027 C 
HETATM   19  C   UNL     1     -21.470  -4.168 -11.408  1.00  0.00    -0.030 C 
BRANCH  19  20
HETATM   20  C   UNL     1     -22.298  -3.276 -12.289  1.00  0.00     0.027 C 
BRANCH  20  21
HETATM   21  C   UNL     1     -23.794  -3.376 -11.974  1.00  0.00     0.014 C 
BRANCH  21  22
HETATM   22  C   UNL     1     -24.091  -4.306 -10.795  1.00  0.00     0.110 C 
BRANCH  22  23
HETATM   23  C   UNL     1     -24.790  -3.586  -9.667  1.00  0.00     0.139 C 
HETATM   24  O   UNL     1     -25.842  -2.977  -9.758  1.00  0.00    -0.650 OA
BRANCH  23  25
HETATM   25  O   UNL     1     -24.107  -3.691  -8.500  1.00  0.00    -0.776 OA
HETATM   26  H   UNL     1     -23.988  -2.841  -8.036  1.00  0.00     0.167 HD
ENDBRANCH  23  25
ENDBRANCH  22  23
ENDBRANCH  21  22
ENDBRANCH  20  21
ENDBRANCH  19  20
ENDBRANCH  17  18
ENDBRANCH  16  17
ENDBRANCH   2  15
TORSDOF 17
ENDMDL
MODEL 3
REMARK VINA RESULT:      -7.3      1.498      2.049
REMARK  17 active torsions:
REMARK  status: ('A' for Active; 'I' for Inactive)
REMARK    1  A    between atoms: C_2  and  C_3 
REMARK    2  A    between atoms: C_3  and  C_4 
REMARK    3  A    between atoms: C_4  and  C_5 
REMARK    4  A    between atoms: C_5  and  C_6 
REMARK    5  A    between atoms: C_7  and  C_8 
REMARK    6  A    between atoms: C_8  and  C_9 
REMARK    7  A    between atoms: C_9  and  C_10 
REMARK    8  A    between atoms: C_9  and  O_23 
REMARK    9  A    between atoms: C_11  and  C_12 
REMARK   10  A    between atoms: C_13  and  C_14 
REMARK   11  A    between atoms: C_14  and  C_15 
REMARK   12  A    between atoms: C_16  and  C_17 
REMARK   13  A    between atoms: C_17  and  C_18 
REMARK   14  A    between atoms: C_18  and  C_19 
REMARK   15  A    between atoms: C_19  and  C_20 
REMARK   16  A    between atoms: C_20  and  O_22 
REMARK   17  A    between atoms: O_23  and  O_24 
ROOT
HETATM    1  C   UNL     1     -21.154  -8.041  -5.752  1.00  0.00     0.008 C 
HETATM    2  C   UNL     1     -20.840  -6.745  -5.582  1.00  0.00    -0.002 C 
ENDROOT
BRANCH   1   3
HETATM    3  C   UNL     1     -20.808  -9.127  -4.757  1.00  0.00     0.186 C 
BRANCH   3   4
HETATM    4  C   UNL     1     -20.026  -8.620  -3.525  1.00  0.00     0.066 C 
BRANCH   4   5
HETATM    5  C   UNL     1     -20.881  -8.372  -2.316  1.00  0.00    -0.028 C 
HETATM    6  C   UNL     1     -21.431  -7.182  -2.032  1.00  0.00    -0.031 C 
BRANCH   6   7
HETATM    7  C   UNL     1     -22.390  -6.967  -0.898  1.00  0.00     0.027 C 
BRANCH   7   8
HETATM    8  C   UNL     1     -22.533  -8.228  -0.039  1.00  0.00     0.004 C 
BRANCH   8   9
HETATM    9  C   UNL     1     -21.695  -8.176   1.244  1.00  0.00    -0.000 C 
BRANCH   9  10
HETATM   10  C   UNL     1     -20.741  -9.365   1.336  1.00  0.00    -0.005 C 
HETATM   11  C   UNL     1     -21.265 -10.556   0.552  1.00  0.00     0.005 C 
ENDBRANCH   9  10
ENDBRANCH   8   9
ENDBRANCH   7   8
ENDBRANCH   6   7
ENDBRANCH   4   5
ENDBRANCH   3   4
BRANCH   3  12
HETATM   12  O   UNL     1     -19.983 -10.072  -5.460  1.00  0.00    -0.234 OA
BRANCH  12  13
HETATM   13  O   UNL     1     -18.776  -9.351  -5.845  1.00  0.00    -0.250 OA
HETATM   14  H   UNL     1     -19.160  -8.460  -5.774  1.00  0.00     0.253 HD
ENDBRANCH  12  13
ENDBRANCH   3  12
ENDBRANCH   1   3
BRANCH   2  15
HETATM   15  C   UNL     1     -21.176  -5.712  -6.535  1.00  0.00    -0.004 C 
HETATM   16  C   UNL     1     -20.253  -5.011  -7.215  1.00  0.00    -0.023 C 
BRANCH  16  17
HETATM   17  C   UNL     1     -20.574  -3.941  -8.224  1.00  0.00     0.054 C 
BRANCH  17  18
HETATM   18  C   UNL     1     -21.858  -4.244  -8.944  1.00  0.00    -0.027 C 
HETATM   19  C   UNL     1     -22.027  -4.112 -10.271  1.00  0.00    -0.030 C 
BRANCH  19  20
HETATM   20  C   UNL     1     -23.299  -4.448 -10.998  1.00  0.00     0.027 C 
BRANCH  20  21
HETATM   21  C   UNL     1     -23.740  -3.325 -11.943  1.00  0.00     0.014 C 
BRANCH  21  22
HETATM   22  C   UNL     1     -22.633  -2.889 -12.904  1.00  0.00     0.110 C 
BRANCH  22  23
HETATM   23  C   UNL     1     -23.170  -2.562 -14.277  1.00  0.00     0.139 C 
HETATM   24  O   UNL     1     -24.192  -1.941 -14.509  1.00  0.00    -0.650 OA
BRANCH  23  25
HETATM   25  O   UNL     1     -22.369  -3.042 -15.261  1.00  0.00    -0.776 OA
HETATM   26  H   UNL     1     -21.970  -3.908 -15.056  1.00  0.00     0.167 HD
ENDBRANCH  23  25
ENDBRANCH  22  23
ENDBRANCH  21  22
ENDBRANCH  20  21
ENDBRANCH  19  20
ENDBRANCH  17  18
ENDBRANCH  16  17
ENDBRANCH   2  15
TORSDOF 17
ENDMDL
MODEL 4
REMARK VINA RESULT:      -7.0      3.189     10.214
REMARK  17 active torsions:
REMARK  status: ('A' for Active; 'I' for Inactive)
REMARK    1  A    between atoms: C_2  and  C_3 
REMARK    2  A    between atoms: C_3  and  C_4 
REMARK    3  A    between atoms: C_4  and  C_5 
REMARK    4  A    between atoms: C_5  and  C_6 
REMARK    5  A    between atoms: C_7  and  C_8 
REMARK    6  A    between atoms: C_8  and  C_9 
REMARK    7  A    between atoms: C_9  and  C_10 
REMARK    8  A    between atoms: C_9  and  O_23 
REMARK    9  A    between atoms: C_11  and  C_12 
REMARK   10  A    between atoms: C_13  and  C_14 
REMARK   11  A    between atoms: C_14  and  C_15 
REMARK   12  A    between atoms: C_16  and  C_17 
REMARK   13  A    between atoms: C_17  and  C_18 
REMARK   14  A    between atoms: C_18  and  C_19 
REMARK   15  A    between atoms: C_19  and  C_20 
REMARK   16  A    between atoms: C_20  and  O_22 
REMARK   17  A    between atoms: O_23  and  O_24 
ROOT
HETATM    1  C   UNL     1     -21.395  -6.376  -4.526  1.00  0.00     0.008 C 
HETATM    2  C   UNL     1     -21.293  -6.025  -3.233  1.00  0.00    -0.002 C 
ENDROOT
BRANCH   1   3
HETATM    3  C   UNL     1     -20.455  -5.886  -5.606  1.00  0.00     0.186 C 
BRANCH   3   4
HETATM    4  C   UNL     1     -21.065  -4.799  -6.520  1.00  0.00     0.066 C 
BRANCH   4   5
HETATM    5  C   UNL     1     -20.935  -5.088  -7.987  1.00  0.00    -0.028 C 
HETATM    6  C   UNL     1     -20.398  -4.227  -8.865  1.00  0.00    -0.031 C 
BRANCH   6   7
HETATM    7  C   UNL     1     -20.148  -4.566 -10.305  1.00  0.00     0.027 C 
BRANCH   7   8
HETATM    8  C   UNL     1     -20.699  -3.484 -11.239  1.00  0.00     0.004 C 
BRANCH   8   9
HETATM    9  C   UNL     1     -22.193  -3.212 -11.025  1.00  0.00    -0.000 C 
BRANCH   9  10
HETATM   10  C   UNL     1     -23.052  -4.343 -11.587  1.00  0.00    -0.005 C 
HETATM   11  C   UNL     1     -23.849  -5.028 -10.490  1.00  0.00     0.005 C 
ENDBRANCH   9  10
ENDBRANCH   8   9
ENDBRANCH   7   8
ENDBRANCH   6   7
ENDBRANCH   4   5
ENDBRANCH   3   4
BRANCH   3  12
HETATM   12  O   UNL     1     -20.136  -7.031  -6.415  1.00  0.00    -0.234 OA
BRANCH  12  13
HETATM   13  O   UNL     1     -19.989  -8.151  -5.495  1.00  0.00    -0.250 OA
HETATM   14  H   UNL     1     -20.481  -8.794  -6.035  1.00  0.00     0.253 HD
ENDBRANCH  12  13
ENDBRANCH   3  12
ENDBRANCH   1   3
BRANCH   2  15
HETATM   15  C   UNL     1     -22.191  -6.500  -2.206  1.00  0.00    -0.004 C 
HETATM   16  C   UNL     1     -21.770  -7.106  -1.082  1.00  0.00    -0.023 C 
BRANCH  16  17
HETATM   17  C   UNL     1     -22.681  -7.596   0.011  1.00  0.00     0.054 C 
BRANCH  17  18
HETATM   18  C   UNL     1     -22.681  -9.098   0.080  1.00  0.00    -0.027 C 
HETATM   19  C   UNL     1     -23.782  -9.858  -0.056  1.00  0.00    -0.030 C 
BRANCH  19  20
HETATM   20  C   UNL     1     -23.781 -11.360  -0.022  1.00  0.00     0.027 C 
BRANCH  20  21
HETATM   21  C   UNL     1     -22.841 -11.963  -1.071  1.00  0.00     0.014 C 
BRANCH  21  22
HETATM   22  C   UNL     1     -23.105 -11.431  -2.480  1.00  0.00     0.110 C 
BRANCH  22  23
HETATM   23  C   UNL     1     -21.887 -10.763  -3.072  1.00  0.00     0.139 C 
HETATM   24  O   UNL     1     -21.891  -9.748  -3.746  1.00  0.00    -0.650 OA
BRANCH  23  25
HETATM   25  O   UNL     1     -20.746 -11.429  -2.764  1.00  0.00    -0.776 OA
HETATM   26  H   UNL     1     -20.074 -10.875  -2.325  1.00  0.00     0.167 HD
ENDBRANCH  23  25
ENDBRANCH  22  23
ENDBRANCH  21  22
ENDBRANCH  20  21
ENDBRANCH  19  20
ENDBRANCH  17  18
ENDBRANCH  16  17
ENDBRANCH   2  15
TORSDOF 17
ENDMDL
MODEL 5
REMARK VINA RESULT:      -7.0      1.879      2.714
REMARK  17 active torsions:
REMARK  status: ('A' for Active; 'I' for Inactive)
REMARK    1  A    between atoms: C_2  and  C_3 
REMARK    2  A    between atoms: C_3  and  C_4 
REMARK    3  A    between atoms: C_4  and  C_5 
REMARK    4  A    between atoms: C_5  and  C_6 
REMARK    5  A    between atoms: C_7  and  C_8 
REMARK    6  A    between atoms: C_8  and  C_9 
REMARK    7  A    between atoms: C_9  and  C_10 
REMARK    8  A    between atoms: C_9  and  O_23 
REMARK    9  A    between atoms: C_11  and  C_12 
REMARK   10  A    between atoms: C_13  and  C_14 
REMARK   11  A    between atoms: C_14  and  C_15 
REMARK   12  A    between atoms: C_16  and  C_17 
REMARK   13  A    between atoms: C_17  and  C_18 
REMARK   14  A    between atoms: C_18  and  C_19 
REMARK   15  A    between atoms: C_19  and  C_20 
REMARK   16  A    between atoms: C_20  and  O_22 
REMARK   17  A    between atoms: O_23  and  O_24 
ROOT
HETATM    1  C   UNL     1     -21.177  -6.735  -3.292  1.00  0.00     0.008 C 
HETATM    2  C   UNL     1     -21.267  -7.303  -4.507  1.00  0.00    -0.002 C 
ENDROOT
BRANCH   1   3
HETATM    3  C   UNL     1     -21.280  -7.506  -1.994  1.00  0.00     0.186 C 
BRANCH   3   4
HETATM    4  C   UNL     1     -21.581  -9.010  -2.183  1.00  0.00     0.066 C 
BRANCH   4   5
HETATM    5  C   UNL     1     -22.361  -9.625  -1.058  1.00  0.00    -0.028 C 
HETATM    6  C   UNL     1     -23.311 -10.555  -1.239  1.00  0.00    -0.031 C 
BRANCH   6   7
HETATM    7  C   UNL     1     -23.997 -11.264  -0.108  1.00  0.00     0.027 C 
BRANCH   7   8
HETATM    8  C   UNL     1     -23.609 -12.746  -0.059  1.00  0.00     0.004 C 
BRANCH   8   9
HETATM    9  C   UNL     1     -22.841 -13.122   1.213  1.00  0.00    -0.000 C 
BRANCH   9  10
HETATM   10  C   UNL     1     -21.448 -13.658   0.886  1.00  0.00    -0.005 C 
HETATM   11  C   UNL     1     -20.541 -12.555   0.367  1.00  0.00     0.005 C 
ENDBRANCH   9  10
ENDBRANCH   8   9
ENDBRANCH   7   8
ENDBRANCH   6   7
ENDBRANCH   4   5
ENDBRANCH   3   4
BRANCH   3  12
HETATM   12  O   UNL     1     -22.366  -6.916  -1.258  1.00  0.00    -0.234 OA
BRANCH  12  13
HETATM   13  O   UNL     1     -22.450  -5.529  -1.699  1.00  0.00    -0.250 OA
HETATM   14  H   UNL     1     -22.457  -5.724  -2.652  1.00  0.00     0.253 HD
ENDBRANCH  12  13
ENDBRANCH   3  12
ENDBRANCH   1   3
BRANCH   2  15
HETATM   15  C   UNL     1     -21.164  -6.561  -5.742  1.00  0.00    -0.004 C 
HETATM   16  C   UNL     1     -20.727  -5.291  -5.803  1.00  0.00    -0.023 C 
BRANCH  16  17
HETATM   17  C   UNL     1     -20.594  -4.499  -7.076  1.00  0.00     0.054 C 
BRANCH  17  18
HETATM   18  C   UNL     1     -21.749  -4.766  -8.001  1.00  0.00    -0.027 C 
HETATM   19  C   UNL     1     -21.870  -4.231  -9.228  1.00  0.00    -0.030 C 
BRANCH  19  20
HETATM   20  C   UNL     1     -23.005  -4.523 -10.169  1.00  0.00     0.027 C 
BRANCH  20  21
HETATM   21  C   UNL     1     -22.675  -4.138 -11.614  1.00  0.00     0.014 C 
BRANCH  21  22
HETATM   22  C   UNL     1     -23.247  -2.776 -12.011  1.00  0.00     0.110 C 
BRANCH  22  23
HETATM   23  C   UNL     1     -23.356  -2.621 -13.510  1.00  0.00     0.139 C 
HETATM   24  O   UNL     1     -24.270  -2.076 -14.102  1.00  0.00    -0.650 OA
BRANCH  23  25
HETATM   25  O   UNL     1     -22.293  -3.167 -14.153  1.00  0.00    -0.776 OA
HETATM   26  H   UNL     1     -22.174  -2.840 -15.063  1.00  0.00     0.167 HD
ENDBRANCH  23  25
ENDBRANCH  22  23
ENDBRANCH  21  22
ENDBRANCH  20  21
ENDBRANCH  19  20
ENDBRANCH  17  18
ENDBRANCH  16  17
ENDBRANCH   2  15
TORSDOF 17
ENDMDL
MODEL 6
REMARK VINA RESULT:      -6.8      3.234     11.244
REMARK  17 active torsions:
REMARK  status: ('A' for Active; 'I' for Inactive)
REMARK    1  A    between atoms: C_2  and  C_3 
REMARK    2  A    between atoms: C_3  and  C_4 
REMARK    3  A    between atoms: C_4  and  C_5 
REMARK    4  A    between atoms: C_5  and  C_6 
REMARK    5  A    between atoms: C_7  and  C_8 
REMARK    6  A    between atoms: C_8  and  C_9 
REMARK    7  A    between atoms: C_9  and  C_10 
REMARK    8  A    between atoms: C_9  and  O_23 
REMARK    9  A    between atoms: C_11  and  C_12 
REMARK   10  A    between atoms: C_13  and  C_14 
REMARK   11  A    between atoms: C_14  and  C_15 
REMARK   12  A    between atoms: C_16  and  C_17 
REMARK   13  A    between atoms: C_17  and  C_18 
REMARK   14  A    between atoms: C_18  and  C_19 
REMARK   15  A    between atoms: C_19  and  C_20 
REMARK   16  A    between atoms: C_20  and  O_22 
REMARK   17  A    between atoms: O_23  and  O_24 
ROOT
HETATM    1  C   UNL     1     -21.369  -7.048  -3.862  1.00  0.00     0.008 C 
HETATM    2  C   UNL     1     -21.514  -6.115  -2.905  1.00  0.00    -0.002 C 
ENDROOT
BRANCH   1   3
HETATM    3  C   UNL     1     -20.699  -6.789  -5.194  1.00  0.00     0.186 C 
BRANCH   3   4
HETATM    4  C   UNL     1     -21.026  -5.406  -5.799  1.00  0.00     0.066 C 
BRANCH   4   5
HETATM    5  C   UNL     1     -20.250  -5.082  -7.043  1.00  0.00    -0.028 C 
HETATM    6  C   UNL     1     -20.755  -5.200  -8.280  1.00  0.00    -0.031 C 
BRANCH   6   7
HETATM    7  C   UNL     1     -20.026  -4.752  -9.513  1.00  0.00     0.027 C 
BRANCH   7   8
HETATM    8  C   UNL     1     -20.832  -3.706 -10.291  1.00  0.00     0.004 C 
BRANCH   8   9
HETATM    9  C   UNL     1     -22.315  -3.681  -9.900  1.00  0.00    -0.000 C 
BRANCH   9  10
HETATM   10  C   UNL     1     -23.204  -3.371 -11.102  1.00  0.00    -0.005 C 
HETATM   11  C   UNL     1     -22.376  -3.121 -12.351  1.00  0.00     0.005 C 
ENDBRANCH   9  10
ENDBRANCH   8   9
ENDBRANCH   7   8
ENDBRANCH   6   7
ENDBRANCH   4   5
ENDBRANCH   3   4
BRANCH   3  12
HETATM   12  O   UNL     1     -21.180  -7.802  -6.093  1.00  0.00    -0.234 OA
BRANCH  12  13
HETATM   13  O   UNL     1     -20.522  -9.042  -5.699  1.00  0.00    -0.250 OA
HETATM   14  H   UNL     1     -20.330  -8.771  -4.785  1.00  0.00     0.253 HD
ENDBRANCH  12  13
ENDBRANCH   3  12
ENDBRANCH   1   3
BRANCH   2  15
HETATM   15  C   UNL     1     -22.152  -6.370  -1.634  1.00  0.00    -0.004 C 
HETATM   16  C   UNL     1     -21.968  -7.502  -0.933  1.00  0.00    -0.023 C 
BRANCH  16  17
HETATM   17  C   UNL     1     -22.607  -7.789   0.399  1.00  0.00     0.054 C 
BRANCH  17  18
HETATM   18  C   UNL     1     -23.438  -9.040   0.342  1.00  0.00    -0.027 C 
HETATM   19  C   UNL     1     -23.142 -10.107  -0.421  1.00  0.00    -0.030 C 
BRANCH  19  20
HETATM   20  C   UNL     1     -23.953 -11.372  -0.455  1.00  0.00     0.027 C 
BRANCH  20  21
HETATM   21  C   UNL     1     -23.483 -12.389   0.591  1.00  0.00     0.014 C 
BRANCH  21  22
HETATM   22  C   UNL     1     -21.965 -12.391   0.777  1.00  0.00     0.110 C 
BRANCH  22  23
HETATM   23  C   UNL     1     -21.297 -13.479  -0.030  1.00  0.00     0.139 C 
HETATM   24  O   UNL     1     -20.125 -13.498  -0.361  1.00  0.00    -0.650 OA
BRANCH  23  25
HETATM   25  O   UNL     1     -22.163 -14.471  -0.357  1.00  0.00    -0.776 OA
HETATM   26  H   UNL     1     -23.023 -14.148  -0.686  1.00  0.00     0.167 HD
ENDBRANCH  23  25
ENDBRANCH  22  23
ENDBRANCH  21  22
ENDBRANCH  20  21
ENDBRANCH  19  20
ENDBRANCH  17  18
ENDBRANCH  16  17
ENDBRANCH   2  15
TORSDOF 17
ENDMDL
MODEL 7
REMARK VINA RESULT:      -6.8      2.051      3.460
REMARK  17 active torsions:
REMARK  status: ('A' for Active; 'I' for Inactive)
REMARK    1  A    between atoms: C_2  and  C_3 
REMARK    2  A    between atoms: C_3  and  C_4 
REMARK    3  A    between atoms: C_4  and  C_5 
REMARK    4  A    between atoms: C_5  and  C_6 
REMARK    5  A    between atoms: C_7  and  C_8 
REMARK    6  A    between atoms: C_8  and  C_9 
REMARK    7  A    between atoms: C_9  and  C_10 
REMARK    8  A    between atoms: C_9  and  O_23 
REMARK    9  A    between atoms: C_11  and  C_12 
REMARK   10  A    between atoms: C_13  and  C_14 
REMARK   11  A    between atoms: C_14  and  C_15 
REMARK   12  A    between atoms: C_16  and  C_17 
REMARK   13  A    between atoms: C_17  and  C_18 
REMARK   14  A    between atoms: C_18  and  C_19 
REMARK   15  A    between atoms: C_19  and  C_20 
REMARK   16  A    between atoms: C_20  and  O_22 
REMARK   17  A    between atoms: O_23  and  O_24 
ROOT
HETATM    1  C   UNL     1     -20.721  -9.892  -5.158  1.00  0.00     0.008 C 
HETATM    2  C   UNL     1     -21.109  -8.619  -4.967  1.00  0.00    -0.002 C 
ENDROOT
BRANCH   1   3
HETATM    3  C   UNL     1     -21.473 -11.089  -4.619  1.00  0.00     0.186 C 
BRANCH   3   4
HETATM    4  C   UNL     1     -20.959 -11.586  -3.250  1.00  0.00     0.066 C 
BRANCH   4   5
HETATM    5  C   UNL     1     -21.504 -10.824  -2.077  1.00  0.00    -0.028 C 
HETATM    6  C   UNL     1     -22.805 -10.805  -1.748  1.00  0.00    -0.031 C 
BRANCH   6   7
HETATM    7  C   UNL     1     -23.331 -10.153  -0.504  1.00  0.00     0.027 C 
BRANCH   7   8
HETATM    8  C   UNL     1     -22.333  -9.137   0.062  1.00  0.00     0.004 C 
BRANCH   8   9
HETATM    9  C   UNL     1     -22.906  -7.717   0.144  1.00  0.00    -0.000 C 
BRANCH   9  10
HETATM   10  C   UNL     1     -22.377  -6.836  -0.986  1.00  0.00    -0.005 C 
HETATM   11  C   UNL     1     -21.003  -7.293  -1.446  1.00  0.00     0.005 C 
ENDBRANCH   9  10
ENDBRANCH   8   9
ENDBRANCH   7   8
ENDBRANCH   6   7
ENDBRANCH   4   5
ENDBRANCH   3   4
BRANCH   3  12
HETATM   12  O   UNL     1     -21.295 -12.144  -5.580  1.00  0.00    -0.234 OA
BRANCH  12  13
HETATM   13  O   UNL     1     -20.899 -11.499  -6.825  1.00  0.00    -0.250 OA
HETATM   14  H   UNL     1     -21.666 -10.904  -6.882  1.00  0.00     0.253 HD
ENDBRANCH  12  13
ENDBRANCH   3  12
ENDBRANCH   1   3
BRANCH   2  15
HETATM   15  C   UNL     1     -20.388  -7.480  -5.487  1.00  0.00    -0.004 C 
HETATM   16  C   UNL     1     -20.865  -6.224  -5.441  1.00  0.00    -0.023 C 
BRANCH  16  17
HETATM   17  C   UNL     1     -20.131  -5.018  -5.961  1.00  0.00     0.054 C 
BRANCH  17  18
HETATM   18  C   UNL     1     -20.040  -5.045  -7.461  1.00  0.00    -0.027 C 
HETATM   19  C   UNL     1     -20.792  -4.283  -8.275  1.00  0.00    -0.030 C 
BRANCH  19  20
HETATM   20  C   UNL     1     -20.680  -4.283  -9.773  1.00  0.00     0.027 C 
BRANCH  20  21
HETATM   21  C   UNL     1     -21.969  -3.807 -10.451  1.00  0.00     0.014 C 
BRANCH  21  22
HETATM   22  C   UNL     1     -23.186  -3.876  -9.527  1.00  0.00     0.110 C 
BRANCH  22  23
HETATM   23  C   UNL     1     -24.433  -3.343 -10.190  1.00  0.00     0.139 C 
HETATM   24  O   UNL     1     -25.522  -3.219  -9.658  1.00  0.00    -0.650 OA
BRANCH  23  25
HETATM   25  O   UNL     1     -24.211  -3.001 -11.484  1.00  0.00    -0.776 OA
HETATM   26  H   UNL     1     -23.863  -2.097 -11.597  1.00  0.00     0.167 HD
ENDBRANCH  23  25
ENDBRANCH  22  23
ENDBRANCH  21  22
ENDBRANCH  20  21
ENDBRANCH  19  20
ENDBRANCH  17  18
ENDBRANCH  16  17
ENDBRANCH   2  15
TORSDOF 17
ENDMDL
MODEL 8
REMARK VINA RESULT:      -6.5      3.076     11.055
REMARK  17 active torsions:
REMARK  status: ('A' for Active; 'I' for Inactive)
REMARK    1  A    between atoms: C_2  and  C_3 
REMARK    2  A    between atoms: C_3  and  C_4 
REMARK    3  A    between atoms: C_4  and  C_5 
REMARK    4  A    between atoms: C_5  and  C_6 
REMARK    5  A    between atoms: C_7  and  C_8 
REMARK    6  A    between atoms: C_8  and  C_9 
REMARK    7  A    between atoms: C_9  and  C_10 
REMARK    8  A    between atoms: C_9  and  O_23 
REMARK    9  A    between atoms: C_11  and  C_12 
REMARK   10  A    between atoms: C_13  and  C_14 
REMARK   11  A    between atoms: C_14  and  C_15 
REMARK   12  A    between atoms: C_16  and  C_17 
REMARK   13  A    between atoms: C_17  and  C_18 
REMARK   14  A    between atoms: C_18  and  C_19 
REMARK   15  A    between atoms: C_19  and  C_20 
REMARK   16  A    between atoms: C_20  and  O_22 
REMARK   17  A    between atoms: O_23  and  O_24 
ROOT
HETATM    1  C   UNL     1     -20.764  -5.368  -4.931  1.00  0.00     0.008 C 
HETATM    2  C   UNL     1     -21.579  -6.394  -4.631  1.00  0.00    -0.002 C 
ENDROOT
BRANCH   1   3
HETATM    3  C   UNL     1     -20.038  -5.230  -6.251  1.00  0.00     0.186 C 
BRANCH   3   4
HETATM    4  C   UNL     1     -20.534  -4.049  -7.116  1.00  0.00     0.066 C 
BRANCH   4   5
HETATM    5  C   UNL     1     -20.965  -4.440  -8.499  1.00  0.00    -0.028 C 
HETATM    6  C   UNL     1     -20.347  -4.019  -9.613  1.00  0.00    -0.031 C 
BRANCH   6   7
HETATM    7  C   UNL     1     -20.695  -4.513 -10.986  1.00  0.00     0.027 C 
BRANCH   7   8
HETATM    8  C   UNL     1     -21.563  -3.501 -11.742  1.00  0.00     0.004 C 
BRANCH   8   9
HETATM    9  C   UNL     1     -23.001  -3.989 -11.956  1.00  0.00    -0.000 C 
BRANCH   9  10
HETATM   10  C   UNL     1     -23.948  -3.413 -10.905  1.00  0.00    -0.005 C 
HETATM   11  C   UNL     1     -24.371  -4.474  -9.904  1.00  0.00     0.005 C 
ENDBRANCH   9  10
ENDBRANCH   8   9
ENDBRANCH   7   8
ENDBRANCH   6   7
ENDBRANCH   4   5
ENDBRANCH   3   4
BRANCH   3  12
HETATM   12  O   UNL     1     -20.276  -6.450  -6.973  1.00  0.00    -0.234 OA
BRANCH  12  13
HETATM   13  O   UNL     1     -19.145  -7.323  -6.683  1.00  0.00    -0.250 OA
HETATM   14  H   UNL     1     -18.456  -6.693  -6.959  1.00  0.00     0.253 HD
ENDBRANCH  12  13
ENDBRANCH   3  12
ENDBRANCH   1   3
BRANCH   2  15
HETATM   15  C   UNL     1     -22.271  -6.519  -3.369  1.00  0.00    -0.004 C 
HETATM   16  C   UNL     1     -21.636  -6.650  -2.191  1.00  0.00    -0.023 C 
BRANCH  16  17
HETATM   17  C   UNL     1     -22.329  -6.766  -0.861  1.00  0.00     0.054 C 
BRANCH  17  18
HETATM   18  C   UNL     1     -22.217  -8.162  -0.314  1.00  0.00    -0.027 C 
HETATM   19  C   UNL     1     -22.257  -9.273  -1.070  1.00  0.00    -0.030 C 
BRANCH  19  20
HETATM   20  C   UNL     1     -22.111 -10.668  -0.530  1.00  0.00     0.027 C 
BRANCH  20  21
HETATM   21  C   UNL     1     -23.464 -11.310  -0.208  1.00  0.00     0.014 C 
BRANCH  21  22
HETATM   22  C   UNL     1     -23.328 -12.697   0.423  1.00  0.00     0.110 C 
BRANCH  22  23
HETATM   23  C   UNL     1     -23.790 -13.792  -0.509  1.00  0.00     0.139 C 
HETATM   24  O   UNL     1     -24.378 -14.805  -0.176  1.00  0.00    -0.650 OA
BRANCH  23  25
HETATM   25  O   UNL     1     -23.476 -13.522  -1.801  1.00  0.00    -0.776 OA
HETATM   26  H   UNL     1     -22.636 -13.923  -2.094  1.00  0.00     0.167 HD
ENDBRANCH  23  25
ENDBRANCH  22  23
ENDBRANCH  21  22
ENDBRANCH  20  21
ENDBRANCH  19  20
ENDBRANCH  17  18
ENDBRANCH  16  17
ENDBRANCH   2  15
TORSDOF 17
ENDMDL
MODEL 9
REMARK VINA RESULT:      -6.3      1.626      2.071
REMARK  17 active torsions:
REMARK  status: ('A' for Active; 'I' for Inactive)
REMARK    1  A    between atoms: C_2  and  C_3 
REMARK    2  A    between atoms: C_3  and  C_4 
REMARK    3  A    between atoms: C_4  and  C_5 
REMARK    4  A    between atoms: C_5  and  C_6 
REMARK    5  A    between atoms: C_7  and  C_8 
REMARK    6  A    between atoms: C_8  and  C_9 
REMARK    7  A    between atoms: C_9  and  C_10 
REMARK    8  A    between atoms: C_9  and  O_23 
REMARK    9  A    between atoms: C_11  and  C_12 
REMARK   10  A    between atoms: C_13  and  C_14 
REMARK   11  A    between atoms: C_14  and  C_15 
REMARK   12  A    between atoms: C_16  and  C_17 
REMARK   13  A    between atoms: C_17  and  C_18 
REMARK   14  A    between atoms: C_18  and  C_19 
REMARK   15  A    between atoms: C_19  and  C_20 
REMARK   16  A    between atoms: C_20  and  O_22 
REMARK   17  A    between atoms: O_23  and  O_24 
ROOT
HETATM    1  C   UNL     1     -21.161  -8.128  -4.652  1.00  0.00     0.008 C 
HETATM    2  C   UNL     1     -20.736  -6.998  -5.243  1.00  0.00    -0.002 C 
ENDROOT
BRANCH   1   3
HETATM    3  C   UNL     1     -20.238  -9.123  -3.982  1.00  0.00     0.186 C 
BRANCH   3   4
HETATM    4  C   UNL     1     -19.897  -8.772  -2.517  1.00  0.00     0.066 C 
BRANCH   4   5
HETATM    5  C   UNL     1     -20.586  -9.639  -1.503  1.00  0.00    -0.028 C 
HETATM    6  C   UNL     1     -20.629  -9.352  -0.193  1.00  0.00    -0.031 C 
BRANCH   6   7
HETATM    7  C   UNL     1     -21.426 -10.146   0.799  1.00  0.00     0.027 C 
BRANCH   7   8
HETATM    8  C   UNL     1     -21.528 -11.618   0.386  1.00  0.00     0.004 C 
BRANCH   8   9
HETATM    9  C   UNL     1     -22.938 -12.193   0.562  1.00  0.00    -0.000 C 
BRANCH   9  10
HETATM   10  C   UNL     1     -23.991 -11.299  -0.091  1.00  0.00    -0.005 C 
HETATM   11  C   UNL     1     -23.889 -11.342  -1.606  1.00  0.00     0.005 C 
ENDBRANCH   9  10
ENDBRANCH   8   9
ENDBRANCH   7   8
ENDBRANCH   6   7
ENDBRANCH   4   5
ENDBRANCH   3   4
BRANCH   3  12
HETATM   12  O   UNL     1     -19.019  -9.121  -4.744  1.00  0.00    -0.234 OA
BRANCH  12  13
HETATM   13  O   UNL     1     -17.934  -9.227  -3.777  1.00  0.00    -0.250 OA
HETATM   14  H   UNL     1     -18.058  -8.345  -3.386  1.00  0.00     0.253 HD
ENDBRANCH  12  13
ENDBRANCH   3  12
ENDBRANCH   1   3
BRANCH   2  15
HETATM   15  C   UNL     1     -21.622  -6.050  -5.878  1.00  0.00    -0.004 C 
HETATM   16  C   UNL     1     -21.207  -5.146  -6.782  1.00  0.00    -0.023 C 
BRANCH  16  17
HETATM   17  C   UNL     1     -22.108  -4.157  -7.470  1.00  0.00     0.054 C 
BRANCH  17  18
HETATM   18  C   UNL     1     -21.531  -3.726  -8.790  1.00  0.00    -0.027 C 
HETATM   19  C   UNL     1     -21.716  -4.390  -9.944  1.00  0.00    -0.030 C 
BRANCH  19  20
HETATM   20  C   UNL     1     -21.169  -3.944 -11.272  1.00  0.00     0.027 C 
BRANCH  20  21
HETATM   21  C   UNL     1     -22.069  -2.906 -11.949  1.00  0.00     0.014 C 
BRANCH  21  22
HETATM   22  C   UNL     1     -23.553  -3.113 -11.640  1.00  0.00     0.110 C 
BRANCH  22  23
HETATM   23  C   UNL     1     -24.398  -3.112 -12.891  1.00  0.00     0.139 C 
HETATM   24  O   UNL     1     -25.403  -2.447 -13.067  1.00  0.00    -0.650 OA
BRANCH  23  25
HETATM   25  O   UNL     1     -23.907  -3.954 -13.835  1.00  0.00    -0.776 OA
HETATM   26  H   UNL     1     -23.394  -4.698 -13.468  1.00  0.00     0.167 HD
ENDBRANCH  23  25
ENDBRANCH  22  23
ENDBRANCH  21  22
ENDBRANCH  20  21
ENDBRANCH  19  20
ENDBRANCH  17  18
ENDBRANCH  16  17
ENDBRANCH   2  15
TORSDOF 17
ENDMDL
