MODEL 1
REMARK VINA RESULT:      -8.4      0.000      0.000
REMARK  6 active torsions:
REMARK  status: ('A' for Active; 'I' for Inactive)
REMARK    1  A    between atoms: C_2  and  N_3 
REMARK    2  A    between atoms: N_3  and  C_4 
REMARK    3  A    between atoms: N_3  and  C_17 
REMARK    4  A    between atoms: C_4  and  C_5 
REMARK    5  A    between atoms: C_5  and  N_6 
REMARK       I    between atoms: N_6  and  C_7 
REMARK       I    between atoms: C_7  and  N_9 
REMARK    6  A    between atoms: N_9  and  C_10 
ROOT
HETATM    1  N   UNL     1     -21.501  -5.235  -5.686  1.00  0.00    -0.341 N 
HETATM    2  C   UNL     1     -21.289  -5.329  -7.042  1.00  0.00     0.320 C 
HETATM    3  O   UNL     1     -20.624  -6.226  -7.544  1.00  0.00    -0.247 OA
HETATM    4  N   UNL     1     -21.846  -4.266  -7.722  1.00  0.00    -0.308 N 
HETATM    5  H   UNL     1     -22.433  -4.926  -5.442  1.00  0.00     0.164 HD
HETATM    6  H   UNL     1     -21.838  -3.398  -7.201  1.00  0.00     0.170 HD
ENDROOT
BRANCH   1   7
HETATM    7  C   UNL     1     -20.899  -6.237  -4.812  1.00  0.00     0.144 C 
BRANCH   7   8
HETATM    8  C   UNL     1     -21.819  -7.450  -4.549  1.00  0.00     0.142 C 
BRANCH   8   9
HETATM    9  N   UNL     1     -21.252  -8.365  -3.541  1.00  0.00    -0.380 N 
BRANCH   9  10
HETATM   10  C   UNL     1     -20.017  -9.125  -3.826  1.00  0.00     0.118 C 
HETATM   11  C   UNL     1     -18.908  -9.095  -2.787  1.00  0.00     0.026 C 
ENDBRANCH   9  10
BRANCH   9  12
HETATM   12  C   UNL     1     -21.819  -8.484  -2.266  1.00  0.00     0.030 A 
HETATM   13  C   UNL     1     -21.859  -7.397  -1.369  1.00  0.00     0.029 A 
HETATM   14  C   UNL     1     -22.396  -7.496  -0.082  1.00  0.00     0.003 A 
HETATM   15  C   UNL     1     -22.925  -8.698   0.357  1.00  0.00     0.007 A 
HETATM   16  C   UNL     1     -22.927  -9.802  -0.494  1.00  0.00    -0.060 A 
HETATM   17  C   UNL     1     -23.499 -11.113  -0.043  1.00  0.00     0.048 C 
HETATM   18  C   UNL     1     -22.376  -9.683  -1.785  1.00  0.00     0.036 A 
ENDBRANCH   9  12
ENDBRANCH   8   9
ENDBRANCH   7   8
ENDBRANCH   1   7
BRANCH   4  19
HETATM   19  C   UNL     1     -21.697  -4.141  -9.126  1.00  0.00     0.053 A 
HETATM   20  C   UNL     1     -20.421  -4.144  -9.704  1.00  0.00     0.031 A 
HETATM   21  C   UNL     1     -20.264  -3.970 -11.078  1.00  0.00     0.002 A 
HETATM   22  C   UNL     1     -21.379  -3.788 -11.890  1.00  0.00     0.002 A 
HETATM   23  C   UNL     1     -22.659  -3.803 -11.329  1.00  0.00     0.021 A 
HETATM   24  C   UNL     1     -22.819  -3.992  -9.954  1.00  0.00     0.037 A 
HETATM   25 BR   UNL     1     -24.579  -3.931  -9.239  1.00  0.00    -0.049 Br
ENDBRANCH   4  19
TORSDOF 6
ENDMDL
MODEL 2
REMARK VINA RESULT:      -8.1      1.438      1.782
REMARK  6 active torsions:
REMARK  status: ('A' for Active; 'I' for Inactive)
REMARK    1  A    between atoms: C_2  and  N_3 
REMARK    2  A    between atoms: N_3  and  C_4 
REMARK    3  A    between atoms: N_3  and  C_17 
REMARK    4  A    between atoms: C_4  and  C_5 
REMARK    5  A    between atoms: C_5  and  N_6 
REMARK       I    between atoms: N_6  and  C_7 
REMARK       I    between atoms: C_7  and  N_9 
REMARK    6  A    between atoms: N_9  and  C_10 
ROOT
HETATM    1  N   UNL     1     -22.255  -5.815  -5.232  1.00  0.00    -0.341 N 
HETATM    2  C   UNL     1     -21.920  -5.810  -6.566  1.00  0.00     0.320 C 
HETATM    3  O   UNL     1     -21.553  -6.817  -7.157  1.00  0.00    -0.247 OA
HETATM    4  N   UNL     1     -21.980  -4.542  -7.103  1.00  0.00    -0.308 N 
HETATM    5  H   UNL     1     -23.043  -5.221  -5.009  1.00  0.00     0.164 HD
HETATM    6  H   UNL     1     -21.735  -3.808  -6.449  1.00  0.00     0.170 HD
ENDROOT
BRANCH   1   7
HETATM    7  C   UNL     1     -22.155  -7.069  -4.490  1.00  0.00     0.144 C 
BRANCH   7   8
HETATM    8  C   UNL     1     -20.811  -7.232  -3.745  1.00  0.00     0.142 C 
BRANCH   8   9
HETATM    9  N   UNL     1     -20.781  -8.457  -2.924  1.00  0.00    -0.380 N 
BRANCH   9  10
HETATM   10  C   UNL     1     -19.808  -9.531  -3.213  1.00  0.00     0.118 C 
HETATM   11  C   UNL     1     -18.400  -9.383  -2.659  1.00  0.00     0.026 C 
ENDBRANCH   9  10
BRANCH   9  12
HETATM   12  C   UNL     1     -21.615  -8.606  -1.810  1.00  0.00     0.030 A 
HETATM   13  C   UNL     1     -21.812  -7.558  -0.886  1.00  0.00     0.029 A 
HETATM   14  C   UNL     1     -22.618  -7.688   0.248  1.00  0.00     0.003 A 
HETATM   15  C   UNL     1     -23.272  -8.883   0.499  1.00  0.00     0.007 A 
HETATM   16  C   UNL     1     -23.128  -9.948  -0.389  1.00  0.00    -0.060 A 
HETATM   17  C   UNL     1     -23.829 -11.250  -0.142  1.00  0.00     0.048 C 
HETATM   18  C   UNL     1     -22.305  -9.798  -1.523  1.00  0.00     0.036 A 
ENDBRANCH   9  12
ENDBRANCH   8   9
ENDBRANCH   7   8
ENDBRANCH   1   7
BRANCH   4  19
HETATM   19  C   UNL     1     -21.622  -4.304  -8.454  1.00  0.00     0.053 A 
HETATM   20  C   UNL     1     -22.611  -4.211  -9.441  1.00  0.00     0.031 A 
HETATM   21  C   UNL     1     -22.265  -4.028 -10.779  1.00  0.00     0.002 A 
HETATM   22  C   UNL     1     -20.926  -3.939 -11.146  1.00  0.00     0.002 A 
HETATM   23  C   UNL     1     -19.929  -4.011 -10.169  1.00  0.00     0.021 A 
HETATM   24  C   UNL     1     -20.275  -4.179  -8.826  1.00  0.00     0.037 A 
HETATM   25 BR   UNL     1     -18.875  -4.341  -7.551  1.00  0.00    -0.049 Br
ENDBRANCH   4  19
TORSDOF 6
ENDMDL
MODEL 3
REMARK VINA RESULT:      -7.7      2.338      9.030
REMARK  6 active torsions:
REMARK  status: ('A' for Active; 'I' for Inactive)
REMARK    1  A    between atoms: C_2  and  N_3 
REMARK    2  A    between atoms: N_3  and  C_4 
REMARK    3  A    between atoms: N_3  and  C_17 
REMARK    4  A    between atoms: C_4  and  C_5 
REMARK    5  A    between atoms: C_5  and  N_6 
REMARK       I    between atoms: N_6  and  C_7 
REMARK       I    between atoms: C_7  and  N_9 
REMARK    6  A    between atoms: N_9  and  C_10 
ROOT
HETATM    1  N   UNL     1     -20.456  -6.763  -5.462  1.00  0.00    -0.341 N 
HETATM    2  C   UNL     1     -21.087  -7.643  -4.613  1.00  0.00     0.320 C 
HETATM    3  O   UNL     1     -22.189  -8.118  -4.856  1.00  0.00    -0.247 OA
HETATM    4  N   UNL     1     -20.363  -7.846  -3.457  1.00  0.00    -0.308 N 
HETATM    5  H   UNL     1     -19.456  -6.905  -5.524  1.00  0.00     0.164 HD
HETATM    6  H   UNL     1     -19.841  -7.033  -3.153  1.00  0.00     0.170 HD
ENDROOT
BRANCH   1   7
HETATM    7  C   UNL     1     -21.135  -6.372  -6.695  1.00  0.00     0.144 C 
BRANCH   7   8
HETATM    8  C   UNL     1     -21.485  -4.868  -6.746  1.00  0.00     0.142 C 
BRANCH   8   9
HETATM    9  N   UNL     1     -21.154  -4.269  -8.053  1.00  0.00    -0.380 N 
BRANCH   9  10
HETATM   10  C   UNL     1     -19.746  -4.032  -8.436  1.00  0.00     0.118 C 
HETATM   11  C   UNL     1     -18.674  -4.276  -7.386  1.00  0.00     0.026 C 
ENDBRANCH   9  10
BRANCH   9  12
HETATM   12  C   UNL     1     -22.150  -3.977  -8.992  1.00  0.00     0.030 A 
HETATM   13  C   UNL     1     -23.517  -3.973  -8.645  1.00  0.00     0.029 A 
HETATM   14  C   UNL     1     -24.533  -3.710  -9.568  1.00  0.00     0.003 A 
HETATM   15  C   UNL     1     -24.215  -3.431 -10.887  1.00  0.00     0.007 A 
HETATM   16  C   UNL     1     -22.879  -3.405 -11.283  1.00  0.00    -0.060 A 
HETATM   17  C   UNL     1     -22.508  -3.100 -12.704  1.00  0.00     0.048 C 
HETATM   18  C   UNL     1     -21.870  -3.678 -10.338  1.00  0.00     0.036 A 
ENDBRANCH   9  12
ENDBRANCH   8   9
ENDBRANCH   7   8
ENDBRANCH   1   7
BRANCH   4  19
HETATM   19  C   UNL     1     -20.860  -8.678  -2.422  1.00  0.00     0.053 A 
HETATM   20  C   UNL     1     -20.536 -10.040  -2.395  1.00  0.00     0.031 A 
HETATM   21  C   UNL     1     -21.061 -10.875  -1.410  1.00  0.00     0.002 A 
HETATM   22  C   UNL     1     -21.917 -10.359  -0.443  1.00  0.00     0.002 A 
HETATM   23  C   UNL     1     -22.234  -8.998  -0.447  1.00  0.00     0.021 A 
HETATM   24  C   UNL     1     -21.696  -8.157  -1.425  1.00  0.00     0.037 A 
HETATM   25 BR   UNL     1     -22.219  -6.329  -1.423  1.00  0.00    -0.049 Br
ENDBRANCH   4  19
TORSDOF 6
ENDMDL
MODEL 4
REMARK VINA RESULT:      -7.7      1.510      2.324
REMARK  6 active torsions:
REMARK  status: ('A' for Active; 'I' for Inactive)
REMARK    1  A    between atoms: C_2  and  N_3 
REMARK    2  A    between atoms: N_3  and  C_4 
REMARK    3  A    between atoms: N_3  and  C_17 
REMARK    4  A    between atoms: C_4  and  C_5 
REMARK    5  A    between atoms: C_5  and  N_6 
REMARK       I    between atoms: N_6  and  C_7 
REMARK       I    between atoms: C_7  and  N_9 
REMARK    6  A    between atoms: N_9  and  C_10 
ROOT
HETATM    1  N   UNL     1     -21.029  -5.626  -5.896  1.00  0.00    -0.341 N 
HETATM    2  C   UNL     1     -22.007  -5.096  -6.704  1.00  0.00     0.320 C 
HETATM    3  O   UNL     1     -23.185  -5.054  -6.372  1.00  0.00    -0.247 OA
HETATM    4  N   UNL     1     -21.505  -4.704  -7.927  1.00  0.00    -0.308 N 
HETATM    5  H   UNL     1     -20.155  -5.118  -5.931  1.00  0.00     0.164 HD
HETATM    6  H   UNL     1     -20.739  -5.279  -8.258  1.00  0.00     0.170 HD
ENDROOT
BRANCH   1   7
HETATM    7  C   UNL     1     -21.413  -6.172  -4.597  1.00  0.00     0.144 C 
BRANCH   7   8
HETATM    8  C   UNL     1     -21.793  -7.669  -4.653  1.00  0.00     0.142 C 
BRANCH   8   9
HETATM    9  N   UNL     1     -21.031  -8.468  -3.675  1.00  0.00    -0.380 N 
BRANCH   9  10
HETATM   10  C   UNL     1     -19.580  -8.689  -3.853  1.00  0.00     0.118 C 
HETATM   11  C   UNL     1     -19.097  -9.171  -5.211  1.00  0.00     0.026 C 
ENDBRANCH   9  10
BRANCH   9  12
HETATM   12  C   UNL     1     -21.638  -8.975  -2.520  1.00  0.00     0.030 A 
HETATM   13  C   UNL     1     -22.198 -10.268  -2.484  1.00  0.00     0.029 A 
HETATM   14  C   UNL     1     -22.832 -10.790  -1.353  1.00  0.00     0.003 A 
HETATM   15  C   UNL     1     -22.924 -10.029  -0.199  1.00  0.00     0.007 A 
HETATM   16  C   UNL     1     -22.372  -8.750  -0.171  1.00  0.00    -0.060 A 
HETATM   17  C   UNL     1     -22.453  -7.909   1.068  1.00  0.00     0.048 C 
HETATM   18  C   UNL     1     -21.742  -8.241  -1.325  1.00  0.00     0.036 A 
ENDBRANCH   9  12
ENDBRANCH   8   9
ENDBRANCH   7   8
ENDBRANCH   1   7
BRANCH   4  19
HETATM   19  C   UNL     1     -22.356  -4.179  -8.931  1.00  0.00     0.053 A 
HETATM   20  C   UNL     1     -23.689  -3.869  -8.635  1.00  0.00     0.031 A 
HETATM   21  C   UNL     1     -24.547  -3.399  -9.629  1.00  0.00     0.002 A 
HETATM   22  C   UNL     1     -24.083  -3.237 -10.930  1.00  0.00     0.002 A 
HETATM   23  C   UNL     1     -22.750  -3.524 -11.236  1.00  0.00     0.021 A 
HETATM   24  C   UNL     1     -21.885  -3.980 -10.237  1.00  0.00     0.037 A 
HETATM   25 BR   UNL     1     -20.102  -4.423 -10.726  1.00  0.00    -0.049 Br
ENDBRANCH   4  19
TORSDOF 6
ENDMDL
MODEL 5
REMARK VINA RESULT:      -7.6      2.905      9.239
REMARK  6 active torsions:
REMARK  status: ('A' for Active; 'I' for Inactive)
REMARK    1  A    between atoms: C_2  and  N_3 
REMARK    2  A    between atoms: N_3  and  C_4 
REMARK    3  A    between atoms: N_3  and  C_17 
REMARK    4  A    between atoms: C_4  and  C_5 
REMARK    5  A    between atoms: C_5  and  N_6 
REMARK       I    between atoms: N_6  and  C_7 
REMARK       I    between atoms: C_7  and  N_9 
REMARK    6  A    between atoms: N_9  and  C_10 
ROOT
HETATM    1  N   UNL     1     -21.476  -7.392  -4.662  1.00  0.00    -0.341 N 
HETATM    2  C   UNL     1     -21.403  -7.825  -3.358  1.00  0.00     0.320 C 
HETATM    3  O   UNL     1     -21.152  -7.071  -2.427  1.00  0.00    -0.247 OA
HETATM    4  N   UNL     1     -21.571  -9.190  -3.263  1.00  0.00    -0.308 N 
HETATM    5  H   UNL     1     -22.209  -7.838  -5.197  1.00  0.00     0.164 HD
HETATM    6  H   UNL     1     -21.207  -9.703  -4.057  1.00  0.00     0.170 HD
ENDROOT
BRANCH   1   7
HETATM    7  C   UNL     1     -21.231  -5.980  -4.945  1.00  0.00     0.144 C 
BRANCH   7   8
HETATM    8  C   UNL     1     -22.016  -5.459  -6.170  1.00  0.00     0.142 C 
BRANCH   8   9
HETATM    9  N   UNL     1     -21.130  -5.184  -7.317  1.00  0.00    -0.380 N 
BRANCH   9  10
HETATM   10  C   UNL     1     -19.699  -5.550  -7.265  1.00  0.00     0.118 C 
HETATM   11  C   UNL     1     -18.687  -4.433  -7.064  1.00  0.00     0.026 C 
ENDBRANCH   9  10
BRANCH   9  12
HETATM   12  C   UNL     1     -21.629  -4.642  -8.507  1.00  0.00     0.030 A 
HETATM   13  C   UNL     1     -20.811  -4.472  -9.643  1.00  0.00     0.029 A 
HETATM   14  C   UNL     1     -21.277  -3.910 -10.835  1.00  0.00     0.003 A 
HETATM   15  C   UNL     1     -22.595  -3.498 -10.939  1.00  0.00     0.007 A 
HETATM   16  C   UNL     1     -23.454  -3.658  -9.852  1.00  0.00    -0.060 A 
HETATM   17  C   UNL     1     -24.887  -3.226  -9.940  1.00  0.00     0.048 C 
HETATM   18  C   UNL     1     -22.963  -4.222  -8.658  1.00  0.00     0.036 A 
ENDBRANCH   9  12
ENDBRANCH   8   9
ENDBRANCH   7   8
ENDBRANCH   1   7
BRANCH   4  19
HETATM   19  C   UNL     1     -21.479  -9.851  -2.012  1.00  0.00     0.053 A 
HETATM   20  C   UNL     1     -22.612  -9.986  -1.201  1.00  0.00     0.031 A 
HETATM   21  C   UNL     1     -22.520 -10.589   0.053  1.00  0.00     0.002 A 
HETATM   22  C   UNL     1     -21.294 -11.061   0.511  1.00  0.00     0.002 A 
HETATM   23  C   UNL     1     -20.158 -10.950  -0.297  1.00  0.00     0.021 A 
HETATM   24  C   UNL     1     -20.253 -10.359  -1.560  1.00  0.00     0.037 A 
HETATM   25 BR   UNL     1     -18.662 -10.171  -2.583  1.00  0.00    -0.049 Br
ENDBRANCH   4  19
TORSDOF 6
ENDMDL
MODEL 6
REMARK VINA RESULT:      -7.6      1.779      2.911
REMARK  6 active torsions:
REMARK  status: ('A' for Active; 'I' for Inactive)
REMARK    1  A    between atoms: C_2  and  N_3 
REMARK    2  A    between atoms: N_3  and  C_4 
REMARK    3  A    between atoms: N_3  and  C_17 
REMARK    4  A    between atoms: C_4  and  C_5 
REMARK    5  A    between atoms: C_5  and  N_6 
REMARK       I    between atoms: N_6  and  C_7 
REMARK       I    between atoms: C_7  and  N_9 
REMARK    6  A    between atoms: N_9  and  C_10 
ROOT
HETATM    1  N   UNL     1     -22.030  -5.656  -4.975  1.00  0.00    -0.341 N 
HETATM    2  C   UNL     1     -21.790  -5.792  -6.323  1.00  0.00     0.320 C 
HETATM    3  O   UNL     1     -21.338  -6.819  -6.811  1.00  0.00    -0.247 OA
HETATM    4  N   UNL     1     -22.048  -4.623  -7.008  1.00  0.00    -0.308 N 
HETATM    5  H   UNL     1     -22.870  -5.135  -4.763  1.00  0.00     0.164 HD
HETATM    6  H   UNL     1     -21.854  -3.784  -6.474  1.00  0.00     0.170 HD
ENDROOT
BRANCH   1   7
HETATM    7  C   UNL     1     -21.721  -6.778  -4.093  1.00  0.00     0.144 C 
BRANCH   7   8
HETATM    8  C   UNL     1     -21.557  -6.363  -2.613  1.00  0.00     0.142 C 
BRANCH   8   9
HETATM    9  N   UNL     1     -21.720  -7.508  -1.698  1.00  0.00    -0.380 N 
BRANCH   9  10
HETATM   10  C   UNL     1     -22.509  -7.372  -0.456  1.00  0.00     0.118 C 
HETATM   11  C   UNL     1     -21.953  -8.000   0.811  1.00  0.00     0.026 C 
ENDBRANCH   9  10
BRANCH   9  12
HETATM   12  C   UNL     1     -21.198  -8.769  -2.012  1.00  0.00     0.030 A 
HETATM   13  C   UNL     1     -19.809  -9.003  -2.067  1.00  0.00     0.029 A 
HETATM   14  C   UNL     1     -19.262 -10.245  -2.403  1.00  0.00     0.003 A 
HETATM   15  C   UNL     1     -20.095 -11.314  -2.691  1.00  0.00     0.007 A 
HETATM   16  C   UNL     1     -21.477 -11.145  -2.635  1.00  0.00    -0.060 A 
HETATM   17  C   UNL     1     -22.400 -12.287  -2.938  1.00  0.00     0.048 C 
HETATM   18  C   UNL     1     -22.008  -9.883  -2.300  1.00  0.00     0.036 A 
ENDBRANCH   9  12
ENDBRANCH   8   9
ENDBRANCH   7   8
ENDBRANCH   1   7
BRANCH   4  19
HETATM   19  C   UNL     1     -21.815  -4.530  -8.404  1.00  0.00     0.053 A 
HETATM   20  C   UNL     1     -22.884  -4.616  -9.304  1.00  0.00     0.031 A 
HETATM   21  C   UNL     1     -22.658  -4.576 -10.680  1.00  0.00     0.002 A 
HETATM   22  C   UNL     1     -21.362  -4.451 -11.170  1.00  0.00     0.002 A 
HETATM   23  C   UNL     1     -20.288  -4.345 -10.282  1.00  0.00     0.021 A 
HETATM   24  C   UNL     1     -20.514  -4.369  -8.903  1.00  0.00     0.037 A 
HETATM   25 BR   UNL     1     -19.009  -4.293  -7.745  1.00  0.00    -0.049 Br
ENDBRANCH   4  19
TORSDOF 6
ENDMDL
MODEL 7
REMARK VINA RESULT:      -7.5      1.375      3.578
REMARK  6 active torsions:
REMARK  status: ('A' for Active; 'I' for Inactive)
REMARK    1  A    between atoms: C_2  and  N_3 
REMARK    2  A    between atoms: N_3  and  C_4 
REMARK    3  A    between atoms: N_3  and  C_17 
REMARK    4  A    between atoms: C_4  and  C_5 
REMARK    5  A    between atoms: C_5  and  N_6 
REMARK       I    between atoms: N_6  and  C_7 
REMARK       I    between atoms: C_7  and  N_9 
REMARK    6  A    between atoms: N_9  and  C_10 
ROOT
HETATM    1  N   UNL     1     -21.911  -5.359  -5.603  1.00  0.00    -0.341 N 
HETATM    2  C   UNL     1     -21.390  -5.260  -6.873  1.00  0.00     0.320 C 
HETATM    3  O   UNL     1     -20.269  -5.663  -7.158  1.00  0.00    -0.247 OA
HETATM    4  N   UNL     1     -22.246  -4.599  -7.727  1.00  0.00    -0.308 N 
HETATM    5  H   UNL     1     -22.897  -5.584  -5.586  1.00  0.00     0.164 HD
HETATM    6  H   UNL     1     -22.797  -3.877  -7.277  1.00  0.00     0.170 HD
ENDROOT
BRANCH   1   7
HETATM    7  C   UNL     1     -21.089  -5.955  -4.554  1.00  0.00     0.144 C 
BRANCH   7   8
HETATM    8  C   UNL     1     -21.485  -7.412  -4.223  1.00  0.00     0.142 C 
BRANCH   8   9
HETATM    9  N   UNL     1     -20.519  -8.052  -3.310  1.00  0.00    -0.380 N 
BRANCH   9  10
HETATM   10  C   UNL     1     -20.775  -8.094  -1.855  1.00  0.00     0.118 C 
HETATM   11  C   UNL     1     -21.993  -7.353  -1.326  1.00  0.00     0.026 C 
ENDBRANCH   9  10
BRANCH   9  12
HETATM   12  C   UNL     1     -19.377  -8.699  -3.797  1.00  0.00     0.030 A 
HETATM   13  C   UNL     1     -19.215  -8.982  -5.169  1.00  0.00     0.029 A 
HETATM   14  C   UNL     1     -18.097  -9.649  -5.679  1.00  0.00     0.003 A 
HETATM   15  C   UNL     1     -17.085 -10.056  -4.825  1.00  0.00     0.007 A 
HETATM   16  C   UNL     1     -17.184  -9.788  -3.461  1.00  0.00    -0.060 A 
HETATM   17  C   UNL     1     -16.099 -10.214  -2.517  1.00  0.00     0.048 C 
HETATM   18  C   UNL     1     -18.322  -9.119  -2.967  1.00  0.00     0.036 A 
ENDBRANCH   9  12
ENDBRANCH   8   9
ENDBRANCH   7   8
ENDBRANCH   1   7
BRANCH   4  19
HETATM   19  C   UNL     1     -21.880  -4.342  -9.073  1.00  0.00     0.053 A 
HETATM   20  C   UNL     1     -20.562  -4.546  -9.496  1.00  0.00     0.031 A 
HETATM   21  C   UNL     1     -20.181  -4.248 -10.804  1.00  0.00     0.002 A 
HETATM   22  C   UNL     1     -21.115  -3.740 -11.702  1.00  0.00     0.002 A 
HETATM   23  C   UNL     1     -22.439  -3.549 -11.298  1.00  0.00     0.021 A 
HETATM   24  C   UNL     1     -22.825  -3.862  -9.992  1.00  0.00     0.037 A 
HETATM   25 BR   UNL     1     -24.622  -3.515  -9.479  1.00  0.00    -0.049 Br
ENDBRANCH   4  19
TORSDOF 6
ENDMDL
MODEL 8
REMARK VINA RESULT:      -7.4      1.678      3.027
REMARK  6 active torsions:
REMARK  status: ('A' for Active; 'I' for Inactive)
REMARK    1  A    between atoms: C_2  and  N_3 
REMARK    2  A    between atoms: N_3  and  C_4 
REMARK    3  A    between atoms: N_3  and  C_17 
REMARK    4  A    between atoms: C_4  and  C_5 
REMARK    5  A    between atoms: C_5  and  N_6 
REMARK       I    between atoms: N_6  and  C_7 
REMARK       I    between atoms: C_7  and  N_9 
REMARK    6  A    between atoms: N_9  and  C_10 
ROOT
HETATM    1  N   UNL     1     -21.680  -5.062  -5.732  1.00  0.00    -0.341 N 
HETATM    2  C   UNL     1     -21.449  -5.204  -7.081  1.00  0.00     0.320 C 
HETATM    3  O   UNL     1     -20.822  -6.147  -7.546  1.00  0.00    -0.247 OA
HETATM    4  N   UNL     1     -21.938  -4.133  -7.799  1.00  0.00    -0.308 N 
HETATM    5  H   UNL     1     -22.598  -4.700  -5.514  1.00  0.00     0.164 HD
HETATM    6  H   UNL     1     -21.895  -3.252  -7.301  1.00  0.00     0.170 HD
ENDROOT
BRANCH   1   7
HETATM    7  C   UNL     1     -21.144  -6.070  -4.820  1.00  0.00     0.144 C 
BRANCH   7   8
HETATM    8  C   UNL     1     -22.138  -7.216  -4.527  1.00  0.00     0.142 C 
BRANCH   8   9
HETATM    9  N   UNL     1     -21.517  -8.295  -3.737  1.00  0.00    -0.380 N 
BRANCH   9  10
HETATM   10  C   UNL     1     -20.790  -7.989  -2.487  1.00  0.00     0.118 C 
HETATM   11  C   UNL     1     -21.602  -7.525  -1.289  1.00  0.00     0.026 C 
ENDBRANCH   9  10
BRANCH   9  12
HETATM   12  C   UNL     1     -21.660  -9.639  -4.104  1.00  0.00     0.030 A 
HETATM   13  C   UNL     1     -22.412 -10.543  -3.326  1.00  0.00     0.029 A 
HETATM   14  C   UNL     1     -22.549 -11.895  -3.656  1.00  0.00     0.003 A 
HETATM   15  C   UNL     1     -21.938 -12.396  -4.793  1.00  0.00     0.007 A 
HETATM   16  C   UNL     1     -21.196 -11.543  -5.609  1.00  0.00    -0.060 A 
HETATM   17  C   UNL     1     -20.529 -12.060  -6.849  1.00  0.00     0.048 C 
HETATM   18  C   UNL     1     -21.065 -10.185  -5.256  1.00  0.00     0.036 A 
ENDBRANCH   9  12
ENDBRANCH   8   9
ENDBRANCH   7   8
ENDBRANCH   1   7
BRANCH   4  19
HETATM   19  C   UNL     1     -21.759  -4.053  -9.203  1.00  0.00     0.053 A 
HETATM   20  C   UNL     1     -20.478  -4.161  -9.758  1.00  0.00     0.031 A 
HETATM   21  C   UNL     1     -20.287  -4.033 -11.133  1.00  0.00     0.002 A 
HETATM   22  C   UNL     1     -21.373  -3.794 -11.968  1.00  0.00     0.002 A 
HETATM   23  C   UNL     1     -22.660  -3.704 -11.430  1.00  0.00     0.021 A 
HETATM   24  C   UNL     1     -22.855  -3.847 -10.053  1.00  0.00     0.037 A 
HETATM   25 BR   UNL     1     -24.617  -3.643  -9.370  1.00  0.00    -0.049 Br
ENDBRANCH   4  19
TORSDOF 6
ENDMDL
MODEL 9
REMARK VINA RESULT:      -7.2      2.030      3.213
REMARK  6 active torsions:
REMARK  status: ('A' for Active; 'I' for Inactive)
REMARK    1  A    between atoms: C_2  and  N_3 
REMARK    2  A    between atoms: N_3  and  C_4 
REMARK    3  A    between atoms: N_3  and  C_17 
REMARK    4  A    between atoms: C_4  and  C_5 
REMARK    5  A    between atoms: C_5  and  N_6 
REMARK       I    between atoms: N_6  and  C_7 
REMARK       I    between atoms: C_7  and  N_9 
REMARK    6  A    between atoms: N_9  and  C_10 
ROOT
HETATM    1  N   UNL     1     -21.311  -5.896  -3.832  1.00  0.00    -0.341 N 
HETATM    2  C   UNL     1     -21.563  -5.934  -5.184  1.00  0.00     0.320 C 
HETATM    3  O   UNL     1     -21.680  -6.983  -5.804  1.00  0.00    -0.247 OA
HETATM    4  N   UNL     1     -21.588  -4.670  -5.735  1.00  0.00    -0.308 N 
HETATM    5  H   UNL     1     -21.802  -5.156  -3.348  1.00  0.00     0.164 HD
HETATM    6  H   UNL     1     -20.955  -4.016  -5.289  1.00  0.00     0.170 HD
ENDROOT
BRANCH   1   7
HETATM    7  C   UNL     1     -21.163  -7.158  -3.112  1.00  0.00     0.144 C 
BRANCH   7   8
HETATM    8  C   UNL     1     -22.169  -7.318  -1.950  1.00  0.00     0.142 C 
BRANCH   8   9
HETATM    9  N   UNL     1     -21.844  -8.475  -1.095  1.00  0.00    -0.380 N 
BRANCH   9  10
HETATM   10  C   UNL     1     -20.903  -8.334   0.035  1.00  0.00     0.118 C 
HETATM   11  C   UNL     1     -21.481  -8.022   1.406  1.00  0.00     0.026 C 
ENDBRANCH   9  10
BRANCH   9  12
HETATM   12  C   UNL     1     -22.469  -9.715  -1.281  1.00  0.00     0.030 A 
HETATM   13  C   UNL     1     -23.417 -10.211  -0.363  1.00  0.00     0.029 A 
HETATM   14  C   UNL     1     -24.037 -11.455  -0.511  1.00  0.00     0.003 A 
HETATM   15  C   UNL     1     -23.732 -12.256  -1.600  1.00  0.00     0.007 A 
HETATM   16  C   UNL     1     -22.814 -11.808  -2.549  1.00  0.00    -0.060 A 
HETATM   17  C   UNL     1     -22.472 -12.653  -3.739  1.00  0.00     0.048 C 
HETATM   18  C   UNL     1     -22.197 -10.553  -2.377  1.00  0.00     0.036 A 
ENDBRANCH   9  12
ENDBRANCH   8   9
ENDBRANCH   7   8
ENDBRANCH   1   7
BRANCH   4  19
HETATM   19  C   UNL     1     -21.781  -4.485  -7.127  1.00  0.00     0.053 A 
HETATM   20  C   UNL     1     -23.074  -4.371  -7.652  1.00  0.00     0.031 A 
HETATM   21  C   UNL     1     -23.275  -4.239  -9.025  1.00  0.00     0.002 A 
HETATM   22  C   UNL     1     -22.185  -4.223  -9.890  1.00  0.00     0.002 A 
HETATM   23  C   UNL     1     -20.887  -4.317  -9.378  1.00  0.00     0.021 A 
HETATM   24  C   UNL     1     -20.685  -4.433  -8.001  1.00  0.00     0.037 A 
HETATM   25 BR   UNL     1     -18.903  -4.629  -7.369  1.00  0.00    -0.049 Br
ENDBRANCH   4  19
TORSDOF 6
ENDMDL
