REMARK  6 active torsions:
REMARK  status: ('A' for Active; 'I' for Inactive)
REMARK    1  A    between atoms: C_2  and  N_3 
REMARK    2  A    between atoms: N_3  and  C_4 
REMARK    3  A    between atoms: N_3  and  C_17 
REMARK    4  A    between atoms: C_4  and  C_5 
REMARK    5  A    between atoms: C_5  and  N_6 
REMARK       I    between atoms: N_6  and  C_7 
REMARK       I    between atoms: C_7  and  N_9 
REMARK    6  A    between atoms: N_9  and  C_10 
ROOT
HETATM    1  N   UNL     1      -0.346   0.860   3.336  1.00  0.00    -0.341 N 
HETATM    2  C   UNL     1      -0.361   2.127   3.871  1.00  0.00     0.320 C 
HETATM    3  O   UNL     1       0.290   3.050   3.398  1.00  0.00    -0.247 OA
HETATM    4  N   UNL     1      -1.124   2.189   5.018  1.00  0.00    -0.308 N 
HETATM    5  H   UNL     1      -1.247   0.401   3.355  1.00  0.00     0.164 HD
HETATM    6  H   UNL     1      -1.109   1.337   5.566  1.00  0.00     0.170 HD
ENDROOT
BRANCH   1   7
HETATM    7  C   UNL     1       0.490   0.604   2.166  1.00  0.00     0.144 C 
BRANCH   7   8
HETATM    8  C   UNL     1       2.003   0.655   2.475  1.00  0.00     0.142 C 
BRANCH   8   9
HETATM    9  N   UNL     1       2.818   0.290   1.301  1.00  0.00    -0.380 N 
BRANCH   9  10
HETATM   10  C   UNL     1       3.450   1.336   0.470  1.00  0.00     0.118 C 
HETATM   11  C   UNL     1       3.110   2.786   0.774  1.00  0.00     0.026 C 
ENDBRANCH   9  10
BRANCH   9  12
HETATM   12  C   UNL     1       3.077  -1.049   0.984  1.00  0.00     0.030 A 
HETATM   13  C   UNL     1       3.886  -1.407  -0.114  1.00  0.00     0.029 A 
HETATM   14  C   UNL     1       4.140  -2.735  -0.468  1.00  0.00     0.003 A 
HETATM   15  C   UNL     1       3.593  -3.767   0.277  1.00  0.00     0.007 A 
HETATM   16  C   UNL     1       2.799  -3.472   1.384  1.00  0.00    -0.060 A 
HETATM   17  C   UNL     1       2.200  -4.571   2.210  1.00  0.00     0.048 C 
HETATM   18  C   UNL     1       2.551  -2.126   1.720  1.00  0.00     0.036 A 
ENDBRANCH   9  12
ENDBRANCH   8   9
ENDBRANCH   7   8
ENDBRANCH   1   7
BRANCH   4  19
HETATM   19  C   UNL     1      -1.231   3.393   5.759  1.00  0.00     0.053 A 
HETATM   20  C   UNL     1      -1.452   4.609   5.101  1.00  0.00     0.031 A 
HETATM   21  C   UNL     1      -1.508   5.804   5.817  1.00  0.00     0.002 A 
HETATM   22  C   UNL     1      -1.341   5.797   7.198  1.00  0.00     0.002 A 
HETATM   23  C   UNL     1      -1.139   4.588   7.870  1.00  0.00     0.021 A 
HETATM   24  C   UNL     1      -1.098   3.388   7.155  1.00  0.00     0.037 A 
HETATM   25 BR   UNL     1      -0.749   1.784   8.113  1.00  0.00    -0.049 Br
ENDBRANCH   4  19
TORSDOF 6
