REMARK  5 active torsions:
REMARK  status: ('A' for Active; 'I' for Inactive)
REMARK       I    between atoms: C_2  and  N_4 
REMARK    1  A    between atoms: N_4  and  C_5 
REMARK    2  A    between atoms: C_9  and  O_10 
REMARK    3  A    between atoms: O_10  and  C_11 
REMARK    4  A    between atoms: C_13  and  C_14 
REMARK    5  A    between atoms: C_17  and  C_18 
ROOT
HETATM    1  C   UNL     1       8.546   3.308   3.893  1.00  0.00     0.151 A 
HETATM    2  C   UNL     1       9.402   4.210   3.298  1.00  0.00     0.086 A 
HETATM    3  C   UNL     1      10.435   4.689   4.085  1.00  0.00     0.047 A 
HETATM    4  N   UNL     1      10.580   4.299   5.370  1.00  0.00    -0.352 N 
ATOM      5  HN  UNL     1      11.325   4.673   5.959  1.00  0.00     0.166 HD
HETATM    6  C   UNL     1       9.703   3.399   5.839  1.00  0.00     0.182 A 
HETATM    7  N   UNL     1       8.689   2.864   5.154  1.00  0.00    -0.333 N 
ATOM      8  HN  UNL     1       8.066   2.166   5.560  1.00  0.00     0.168 HD
ENDROOT
BRANCH   1   9
HETATM    9  O   UNL     1       7.499   2.840   3.105  1.00  0.00    -0.291 OA
BRANCH   9  10
HETATM   10  C   UNL     1       6.346   2.402   3.735  1.00  0.00     0.105 A 
HETATM   11  C   UNL     1       5.609   1.335   3.157  1.00  0.00     0.085 A 
HETATM   12  N   UNL     1       5.910   0.628   1.987  1.00  0.00    -0.333 N 
HETATM   13  C   UNL     1       4.430   0.928   3.789  1.00  0.00     0.038 A 
HETATM   14  C   UNL     1       4.932  -0.206   1.715  1.00  0.00     0.152 C 
ATOM     15  HN  UNL     1       6.758   0.743   1.431  1.00  0.00     0.168 HD
HETATM   16  S   UNL     1       3.723  -0.355   2.900  1.00  0.00    -0.052 SA
HETATM   17  C   UNL     1       3.950   1.531   4.962  1.00  0.00     0.021 A 
HETATM   18  C   UNL     1       4.650   2.617   5.477  1.00  0.00     0.004 A 
HETATM   19  C   UNL     1       5.816   3.061   4.863  1.00  0.00     0.040 A 
BRANCH  14  20
HETATM   20  N   UNL     1       4.917  -0.970   0.571  1.00  0.00    -0.307 N 
HETATM   21  C   UNL     1       3.797  -1.574   0.037  1.00  0.00     0.219 C 
HETATM   22  C   UNL     1       4.104  -2.374  -1.203  1.00  0.00     0.117 C 
HETATM   23  O   UNL     1       2.646  -1.509   0.454  1.00  0.00    -0.274 OA
HETATM   24  H   UNL     1       5.754  -0.888   0.013  1.00  0.00     0.171 HD
ENDBRANCH  14  20
ENDBRANCH   9  10
ENDBRANCH   1   9
BRANCH   3  25
HETATM   25  C   UNL     1      11.437   5.664   3.595  1.00  0.00    -0.009 A 
HETATM   26  C   UNL     1      12.081   6.545   4.485  1.00  0.00     0.014 A 
HETATM   27  C   UNL     1      13.022   7.483   4.041  1.00  0.00     0.017 A 
HETATM   28  C   UNL     1      13.355   7.567   2.685  1.00  0.00     0.048 A 
HETATM   29  C   UNL     1      12.740   6.684   1.790  1.00  0.00     0.017 A 
HETATM   30  C   UNL     1      11.800   5.747   2.239  1.00  0.00     0.014 A 
BRANCH  28  31
HETATM   31  C   UNL     1      14.353   8.580   2.181  1.00  0.00     0.417 C 
HETATM   32  F   UNL     1      14.863   9.380   3.158  1.00  0.00    -0.166 F 
HETATM   33  F   UNL     1      15.426   7.999   1.576  1.00  0.00    -0.166 F 
HETATM   34  F   UNL     1      13.814   9.421   1.255  1.00  0.00    -0.166 F 
ENDBRANCH  28  31
ENDBRANCH   3  25
TORSDOF 5
