MODEL 1
REMARK VINA RESULT:      -9.3      0.000      0.000
REMARK  5 active torsions:
REMARK  status: ('A' for Active; 'I' for Inactive)
REMARK       I    between atoms: C_2  and  N_4 
REMARK    1  A    between atoms: N_4  and  C_5 
REMARK    2  A    between atoms: C_9  and  O_10 
REMARK    3  A    between atoms: O_10  and  C_11 
REMARK    4  A    between atoms: C_13  and  C_14 
REMARK    5  A    between atoms: C_17  and  C_18 
ROOT
HETATM    1  C   UNL     1     -20.614  -8.179  -4.367  1.00  0.00     0.151 A 
HETATM    2  C   UNL     1     -20.555  -7.625  -5.628  1.00  0.00     0.086 A 
HETATM    3  C   UNL     1     -21.069  -6.347  -5.763  1.00  0.00     0.047 A 
HETATM    4  N   UNL     1     -21.610  -5.691  -4.714  1.00  0.00    -0.352 N 
ATOM      5  HN  UNL     1     -22.015  -4.760  -4.819  1.00  0.00     0.166 HD
HETATM    6  C   UNL     1     -21.594  -6.317  -3.527  1.00  0.00     0.182 A 
HETATM    7  N   UNL     1     -21.104  -7.536  -3.292  1.00  0.00    -0.333 N 
ATOM      8  HN  UNL     1     -21.101  -7.952  -2.361  1.00  0.00     0.168 HD
ENDROOT
BRANCH   1   9
HETATM    9  O   UNL     1     -20.111  -9.470  -4.237  1.00  0.00    -0.291 OA
BRANCH   9  10
HETATM   10  C   UNL     1     -18.751  -9.629  -4.032  1.00  0.00     0.105 A 
HETATM   11  C   UNL     1     -18.003 -10.409  -4.952  1.00  0.00     0.085 A 
HETATM   12  N   UNL     1     -18.475 -11.061  -6.096  1.00  0.00    -0.333 N 
HETATM   13  C   UNL     1     -16.637 -10.586  -4.710  1.00  0.00     0.038 A 
HETATM   14  C   UNL     1     -17.507 -11.775  -6.625  1.00  0.00     0.152 C 
ATOM     15  HN  UNL     1     -19.425 -10.994  -6.463  1.00  0.00     0.168 HD
HETATM   16  S   UNL     1     -15.964 -11.566  -5.944  1.00  0.00    -0.052 SA
HETATM   17  C   UNL     1     -15.983 -10.028  -3.600  1.00  0.00     0.021 A 
HETATM   18  C   UNL     1     -16.745  -9.322  -2.675  1.00  0.00     0.004 A 
HETATM   19  C   UNL     1     -18.110  -9.143  -2.874  1.00  0.00     0.040 A 
BRANCH  14  20
HETATM   20  N   UNL     1     -17.710 -12.594  -7.712  1.00  0.00    -0.307 N 
HETATM   21  C   UNL     1     -18.925 -13.135  -8.080  1.00  0.00     0.219 C 
HETATM   22  C   UNL     1     -18.822 -14.019  -9.296  1.00  0.00     0.117 C 
HETATM   23  O   UNL     1     -20.012 -12.958  -7.542  1.00  0.00    -0.274 OA
HETATM   24  H   UNL     1     -16.939 -12.607  -8.364  1.00  0.00     0.171 HD
ENDBRANCH  14  20
ENDBRANCH   9  10
ENDBRANCH   1   9
BRANCH   3  25
HETATM   25  C   UNL     1     -21.082  -5.614  -7.051  1.00  0.00    -0.009 A 
HETATM   26  C   UNL     1     -22.236  -4.933  -7.481  1.00  0.00     0.014 A 
HETATM   27  C   UNL     1     -22.274  -4.245  -8.701  1.00  0.00     0.017 A 
HETATM   28  C   UNL     1     -21.149  -4.212  -9.533  1.00  0.00     0.048 A 
HETATM   29  C   UNL     1     -19.987  -4.867  -9.110  1.00  0.00     0.017 A 
HETATM   30  C   UNL     1     -19.954  -5.553  -7.888  1.00  0.00     0.014 A 
BRANCH  28  31
HETATM   31  C   UNL     1     -21.171  -3.492 -10.858  1.00  0.00     0.417 C 
HETATM   32  F   UNL     1     -20.060  -2.741 -11.092  1.00  0.00    -0.166 F 
HETATM   33  F   UNL     1     -21.274  -4.346 -11.914  1.00  0.00    -0.166 F 
HETATM   34  F   UNL     1     -22.227  -2.638 -10.966  1.00  0.00    -0.166 F 
ENDBRANCH  28  31
ENDBRANCH   3  25
TORSDOF 5
ENDMDL
MODEL 2
REMARK VINA RESULT:      -9.2      3.430      4.176
REMARK  5 active torsions:
REMARK  status: ('A' for Active; 'I' for Inactive)
REMARK       I    between atoms: C_2  and  N_4 
REMARK    1  A    between atoms: N_4  and  C_5 
REMARK    2  A    between atoms: C_9  and  O_10 
REMARK    3  A    between atoms: O_10  and  C_11 
REMARK    4  A    between atoms: C_13  and  C_14 
REMARK    5  A    between atoms: C_17  and  C_18 
ROOT
HETATM    1  C   UNL     1     -21.293  -8.370  -1.665  1.00  0.00     0.151 A 
HETATM    2  C   UNL     1     -20.958  -7.994  -2.948  1.00  0.00     0.086 A 
HETATM    3  C   UNL     1     -21.371  -6.735  -3.348  1.00  0.00     0.047 A 
HETATM    4  N   UNL     1     -22.075  -5.930  -2.523  1.00  0.00    -0.352 N 
ATOM      5  HN  UNL     1     -22.404  -5.013  -2.826  1.00  0.00     0.166 HD
HETATM    6  C   UNL     1     -22.325  -6.389  -1.287  1.00  0.00     0.182 A 
HETATM    7  N   UNL     1     -21.952  -7.577  -0.803  1.00  0.00    -0.333 N 
ATOM      8  HN  UNL     1     -22.154  -7.862   0.155  1.00  0.00     0.168 HD
ENDROOT
BRANCH   1   9
HETATM    9  O   UNL     1     -20.891  -9.643  -1.271  1.00  0.00    -0.291 OA
BRANCH   9  10
HETATM   10  C   UNL     1     -21.845 -10.645  -1.211  1.00  0.00     0.105 A 
HETATM   11  C   UNL     1     -21.875 -11.629  -2.233  1.00  0.00     0.085 A 
HETATM   12  N   UNL     1     -21.025 -11.732  -3.341  1.00  0.00    -0.333 N 
HETATM   13  C   UNL     1     -22.865 -12.614  -2.173  1.00  0.00     0.038 A 
HETATM   14  C   UNL     1     -21.439 -12.704  -4.122  1.00  0.00     0.152 C 
ATOM     15  HN  UNL     1     -20.210 -11.143  -3.515  1.00  0.00     0.168 HD
HETATM   16  S   UNL     1     -22.700 -13.668  -3.515  1.00  0.00    -0.052 SA
HETATM   17  C   UNL     1     -23.825 -12.665  -1.150  1.00  0.00     0.021 A 
HETATM   18  C   UNL     1     -23.820 -11.655  -0.194  1.00  0.00     0.004 A 
HETATM   19  C   UNL     1     -22.862 -10.649  -0.234  1.00  0.00     0.040 A 
BRANCH  14  20
HETATM   20  N   UNL     1     -20.843 -12.976  -5.332  1.00  0.00    -0.307 N 
HETATM   21  C   UNL     1     -20.728 -12.082  -6.376  1.00  0.00     0.219 C 
HETATM   22  C   UNL     1     -20.058 -12.684  -7.585  1.00  0.00     0.117 C 
HETATM   23  O   UNL     1     -21.092 -10.911  -6.397  1.00  0.00    -0.274 OA
HETATM   24  H   UNL     1     -20.294 -13.823  -5.337  1.00  0.00     0.171 HD
ENDBRANCH  14  20
ENDBRANCH   9  10
ENDBRANCH   1   9
BRANCH   3  25
HETATM   25  C   UNL     1     -21.092  -6.184  -4.695  1.00  0.00    -0.009 A 
HETATM   26  C   UNL     1     -20.405  -4.964  -4.847  1.00  0.00     0.014 A 
HETATM   27  C   UNL     1     -20.143  -4.419  -6.111  1.00  0.00     0.017 A 
HETATM   28  C   UNL     1     -20.557  -5.084  -7.270  1.00  0.00     0.048 A 
HETATM   29  C   UNL     1     -21.222  -6.308  -7.137  1.00  0.00     0.017 A 
HETATM   30  C   UNL     1     -21.482  -6.849  -5.871  1.00  0.00     0.014 A 
BRANCH  28  31
HETATM   31  C   UNL     1     -20.301  -4.509  -8.641  1.00  0.00     0.417 C 
HETATM   32  F   UNL     1     -19.700  -5.381  -9.497  1.00  0.00    -0.166 F 
HETATM   33  F   UNL     1     -21.445  -4.106  -9.260  1.00  0.00    -0.166 F 
HETATM   34  F   UNL     1     -19.494  -3.412  -8.599  1.00  0.00    -0.166 F 
ENDBRANCH  28  31
ENDBRANCH   3  25
TORSDOF 5
ENDMDL
MODEL 3
REMARK VINA RESULT:      -9.2      2.844      4.032
REMARK  5 active torsions:
REMARK  status: ('A' for Active; 'I' for Inactive)
REMARK       I    between atoms: C_2  and  N_4 
REMARK    1  A    between atoms: N_4  and  C_5 
REMARK    2  A    between atoms: C_9  and  O_10 
REMARK    3  A    between atoms: O_10  and  C_11 
REMARK    4  A    between atoms: C_13  and  C_14 
REMARK    5  A    between atoms: C_17  and  C_18 
ROOT
HETATM    1  C   UNL     1     -20.793  -8.200  -4.336  1.00  0.00     0.151 A 
HETATM    2  C   UNL     1     -20.772  -7.669  -5.608  1.00  0.00     0.086 A 
HETATM    3  C   UNL     1     -21.093  -6.327  -5.719  1.00  0.00     0.047 A 
HETATM    4  N   UNL     1     -21.422  -5.590  -4.636  1.00  0.00    -0.352 N 
ATOM      5  HN  UNL     1     -21.686  -4.608  -4.721  1.00  0.00     0.166 HD
HETATM    6  C   UNL     1     -21.387  -6.204  -3.444  1.00  0.00     0.182 A 
HETATM    7  N   UNL     1     -21.070  -7.484  -3.232  1.00  0.00    -0.333 N 
ATOM      8  HN  UNL     1     -21.040  -7.890  -2.297  1.00  0.00     0.168 HD
ENDROOT
BRANCH   1   9
HETATM    9  O   UNL     1     -20.485  -9.553  -4.228  1.00  0.00    -0.291 OA
BRANCH   9  10
HETATM   10  C   UNL     1     -19.317  -9.913  -3.577  1.00  0.00     0.105 A 
HETATM   11  C   UNL     1     -19.390 -10.801  -2.472  1.00  0.00     0.085 A 
HETATM   12  N   UNL     1     -20.537 -11.397  -1.933  1.00  0.00    -0.333 N 
HETATM   13  C   UNL     1     -18.205 -11.127  -1.806  1.00  0.00     0.038 A 
HETATM   14  C   UNL     1     -20.216 -12.062  -0.846  1.00  0.00     0.152 C 
ATOM     15  HN  UNL     1     -21.477 -11.326  -2.324  1.00  0.00     0.168 HD
HETATM   16  S   UNL     1     -18.555 -12.195  -0.513  1.00  0.00    -0.052 SA
HETATM   17  C   UNL     1     -16.955 -10.611  -2.184  1.00  0.00     0.021 A 
HETATM   18  C   UNL     1     -16.911  -9.692  -3.227  1.00  0.00     0.004 A 
HETATM   19  C   UNL     1     -18.074  -9.330  -3.899  1.00  0.00     0.040 A 
BRANCH  14  20
HETATM   20  N   UNL     1     -21.160 -12.676  -0.057  1.00  0.00    -0.307 N 
HETATM   21  C   UNL     1     -22.395 -12.146   0.258  1.00  0.00     0.219 C 
HETATM   22  C   UNL     1     -23.194 -13.040   1.171  1.00  0.00     0.117 C 
HETATM   23  O   UNL     1     -22.868 -11.083  -0.126  1.00  0.00    -0.274 OA
HETATM   24  H   UNL     1     -20.980 -13.655   0.110  1.00  0.00     0.171 HD
ENDBRANCH  14  20
ENDBRANCH   9  10
ENDBRANCH   1   9
BRANCH   3  25
HETATM   25  C   UNL     1     -21.118  -5.609  -7.014  1.00  0.00    -0.009 A 
HETATM   26  C   UNL     1     -22.281  -4.942  -7.447  1.00  0.00     0.014 A 
HETATM   27  C   UNL     1     -22.331  -4.268  -8.673  1.00  0.00     0.017 A 
HETATM   28  C   UNL     1     -21.210  -4.234  -9.510  1.00  0.00     0.048 A 
HETATM   29  C   UNL     1     -20.039  -4.873  -9.086  1.00  0.00     0.017 A 
HETATM   30  C   UNL     1     -19.995  -5.545  -7.857  1.00  0.00     0.014 A 
BRANCH  28  31
HETATM   31  C   UNL     1     -21.244  -3.528 -10.843  1.00  0.00     0.417 C 
HETATM   32  F   UNL     1     -22.275  -2.646 -10.970  1.00  0.00    -0.166 F 
HETATM   33  F   UNL     1     -20.110  -2.814 -11.085  1.00  0.00    -0.166 F 
HETATM   34  F   UNL     1     -21.367  -4.396 -11.885  1.00  0.00    -0.166 F 
ENDBRANCH  28  31
ENDBRANCH   3  25
TORSDOF 5
ENDMDL
MODEL 4
REMARK VINA RESULT:      -9.1      3.010      3.809
REMARK  5 active torsions:
REMARK  status: ('A' for Active; 'I' for Inactive)
REMARK       I    between atoms: C_2  and  N_4 
REMARK    1  A    between atoms: N_4  and  C_5 
REMARK    2  A    between atoms: C_9  and  O_10 
REMARK    3  A    between atoms: O_10  and  C_11 
REMARK    4  A    between atoms: C_13  and  C_14 
REMARK    5  A    between atoms: C_17  and  C_18 
ROOT
HETATM    1  C   UNL     1     -21.505  -8.157  -3.767  1.00  0.00     0.151 A 
HETATM    2  C   UNL     1     -21.485  -7.699  -5.067  1.00  0.00     0.086 A 
HETATM    3  C   UNL     1     -21.338  -6.333  -5.236  1.00  0.00     0.047 A 
HETATM    4  N   UNL     1     -21.236  -5.500  -4.178  1.00  0.00    -0.352 N 
ATOM      5  HN  UNL     1     -21.155  -4.490  -4.301  1.00  0.00     0.166 HD
HETATM    6  C   UNL     1     -21.244  -6.057  -2.958  1.00  0.00     0.182 A 
HETATM    7  N   UNL     1     -21.360  -7.361  -2.693  1.00  0.00    -0.333 N 
ATOM      8  HN  UNL     1     -21.338  -7.728  -1.742  1.00  0.00     0.168 HD
ENDROOT
BRANCH   1   9
HETATM    9  O   UNL     1     -21.669  -9.529  -3.599  1.00  0.00    -0.291 OA
BRANCH   9  10
HETATM   10  C   UNL     1     -21.615 -10.046  -2.316  1.00  0.00     0.105 A 
HETATM   11  C   UNL     1     -20.415 -10.660  -1.871  1.00  0.00     0.085 A 
HETATM   12  N   UNL     1     -19.221 -10.813  -2.586  1.00  0.00    -0.333 N 
HETATM   13  C   UNL     1     -20.389 -11.206  -0.584  1.00  0.00     0.038 A 
HETATM   14  C   UNL     1     -18.378 -11.534  -1.882  1.00  0.00     0.152 C 
ATOM     15  HN  UNL     1     -19.035 -10.424  -3.511  1.00  0.00     0.168 HD
HETATM   16  S   UNL     1     -18.848 -11.895  -0.290  1.00  0.00    -0.052 SA
HETATM   17  C   UNL     1     -21.497 -11.172   0.277  1.00  0.00     0.021 A 
HETATM   18  C   UNL     1     -22.684 -10.624  -0.199  1.00  0.00     0.004 A 
HETATM   19  C   UNL     1     -22.751 -10.090  -1.481  1.00  0.00     0.040 A 
BRANCH  14  20
HETATM   20  N   UNL     1     -17.153 -11.918  -2.376  1.00  0.00    -0.307 N 
HETATM   21  C   UNL     1     -16.126 -11.057  -2.704  1.00  0.00     0.219 C 
HETATM   22  C   UNL     1     -14.919 -11.775  -3.253  1.00  0.00     0.117 C 
HETATM   23  O   UNL     1     -16.110  -9.837  -2.582  1.00  0.00    -0.274 OA
HETATM   24  H   UNL     1     -16.966 -12.906  -2.285  1.00  0.00     0.171 HD
ENDBRANCH  14  20
ENDBRANCH   9  10
ENDBRANCH   1   9
BRANCH   3  25
HETATM   25  C   UNL     1     -21.299  -5.685  -6.567  1.00  0.00    -0.009 A 
HETATM   26  C   UNL     1     -22.393  -4.930  -7.034  1.00  0.00     0.014 A 
HETATM   27  C   UNL     1     -22.382  -4.319  -8.295  1.00  0.00     0.017 A 
HETATM   28  C   UNL     1     -21.268  -4.440  -9.132  1.00  0.00     0.048 A 
HETATM   29  C   UNL     1     -20.164  -5.168  -8.675  1.00  0.00     0.017 A 
HETATM   30  C   UNL     1     -20.179  -5.777  -7.413  1.00  0.00     0.014 A 
BRANCH  28  31
HETATM   31  C   UNL     1     -21.240  -3.805 -10.500  1.00  0.00     0.417 C 
HETATM   32  F   UNL     1     -20.122  -3.064 -10.738  1.00  0.00    -0.166 F 
HETATM   33  F   UNL     1     -21.299  -4.724 -11.504  1.00  0.00    -0.166 F 
HETATM   34  F   UNL     1     -22.293  -2.965 -10.703  1.00  0.00    -0.166 F 
ENDBRANCH  28  31
ENDBRANCH   3  25
TORSDOF 5
ENDMDL
MODEL 5
REMARK VINA RESULT:      -8.8      1.851      2.976
REMARK  5 active torsions:
REMARK  status: ('A' for Active; 'I' for Inactive)
REMARK       I    between atoms: C_2  and  N_4 
REMARK    1  A    between atoms: N_4  and  C_5 
REMARK    2  A    between atoms: C_9  and  O_10 
REMARK    3  A    between atoms: O_10  and  C_11 
REMARK    4  A    between atoms: C_13  and  C_14 
REMARK    5  A    between atoms: C_17  and  C_18 
ROOT
HETATM    1  C   UNL     1     -20.292  -8.009  -4.503  1.00  0.00     0.151 A 
HETATM    2  C   UNL     1     -20.248  -7.438  -5.756  1.00  0.00     0.086 A 
HETATM    3  C   UNL     1     -20.946  -6.254  -5.918  1.00  0.00     0.047 A 
HETATM    4  N   UNL     1     -21.642  -5.703  -4.900  1.00  0.00    -0.352 N 
ATOM      5  HN  UNL     1     -22.180  -4.845  -5.025  1.00  0.00     0.166 HD
HETATM    6  C   UNL     1     -21.597  -6.333  -3.716  1.00  0.00     0.182 A 
HETATM    7  N   UNL     1     -20.937  -7.464  -3.457  1.00  0.00    -0.333 N 
ATOM      8  HN  UNL     1     -20.922  -7.885  -2.528  1.00  0.00     0.168 HD
ENDROOT
BRANCH   1   9
HETATM    9  O   UNL     1     -19.602  -9.208  -4.347  1.00  0.00    -0.291 OA
BRANCH   9  10
HETATM   10  C   UNL     1     -19.966 -10.284  -5.140  1.00  0.00     0.105 A 
HETATM   11  C   UNL     1     -18.954 -11.156  -5.622  1.00  0.00     0.085 A 
HETATM   12  N   UNL     1     -17.577 -11.075  -5.386  1.00  0.00    -0.333 N 
HETATM   13  C   UNL     1     -19.336 -12.217  -6.449  1.00  0.00     0.038 A 
HETATM   14  C   UNL     1     -16.956 -11.991  -6.095  1.00  0.00     0.152 C 
ATOM     15  HN  UNL     1     -17.125 -10.408  -4.759  1.00  0.00     0.168 HD
HETATM   16  S   UNL     1     -17.946 -13.109  -6.905  1.00  0.00    -0.052 SA
HETATM   17  C   UNL     1     -20.670 -12.450  -6.818  1.00  0.00     0.021 A 
HETATM   18  C   UNL     1     -21.638 -11.548  -6.390  1.00  0.00     0.004 A 
HETATM   19  C   UNL     1     -21.291 -10.470  -5.584  1.00  0.00     0.040 A 
BRANCH  14  20
HETATM   20  N   UNL     1     -15.584 -12.087  -6.127  1.00  0.00    -0.307 N 
HETATM   21  C   UNL     1     -14.763 -12.066  -5.018  1.00  0.00     0.219 C 
HETATM   22  C   UNL     1     -13.301 -12.156  -5.377  1.00  0.00     0.117 C 
HETATM   23  O   UNL     1     -15.101 -11.997  -3.842  1.00  0.00    -0.274 OA
HETATM   24  H   UNL     1     -15.216 -12.394  -7.015  1.00  0.00     0.171 HD
ENDBRANCH  14  20
ENDBRANCH   9  10
ENDBRANCH   1   9
BRANCH   3  25
HETATM   25  C   UNL     1     -20.999  -5.517  -7.202  1.00  0.00    -0.009 A 
HETATM   26  C   UNL     1     -22.157  -4.810  -7.580  1.00  0.00     0.014 A 
HETATM   27  C   UNL     1     -22.232  -4.117  -8.795  1.00  0.00     0.017 A 
HETATM   28  C   UNL     1     -21.144  -4.105  -9.674  1.00  0.00     0.048 A 
HETATM   29  C   UNL     1     -19.978  -4.784  -9.304  1.00  0.00     0.017 A 
HETATM   30  C   UNL     1     -19.907  -5.475  -8.087  1.00  0.00     0.014 A 
BRANCH  28  31
HETATM   31  C   UNL     1     -21.208  -3.380 -10.996  1.00  0.00     0.417 C 
HETATM   32  F   UNL     1     -21.295  -4.209 -12.072  1.00  0.00    -0.166 F 
HETATM   33  F   UNL     1     -22.280  -2.544 -11.081  1.00  0.00    -0.166 F 
HETATM   34  F   UNL     1     -20.111  -2.602 -11.213  1.00  0.00    -0.166 F 
ENDBRANCH  28  31
ENDBRANCH   3  25
TORSDOF 5
ENDMDL
MODEL 6
REMARK VINA RESULT:      -8.8     14.338     17.549
REMARK  5 active torsions:
REMARK  status: ('A' for Active; 'I' for Inactive)
REMARK       I    between atoms: C_2  and  N_4 
REMARK    1  A    between atoms: N_4  and  C_5 
REMARK    2  A    between atoms: C_9  and  O_10 
REMARK    3  A    between atoms: O_10  and  C_11 
REMARK    4  A    between atoms: C_13  and  C_14 
REMARK    5  A    between atoms: C_17  and  C_18 
ROOT
HETATM    1  C   UNL     1     -33.774  -4.079 -15.541  1.00  0.00     0.151 A 
HETATM    2  C   UNL     1     -32.518  -4.641 -15.464  1.00  0.00     0.086 A 
HETATM    3  C   UNL     1     -31.658  -4.373 -16.514  1.00  0.00     0.047 A 
HETATM    4  N   UNL     1     -32.042  -3.611 -17.562  1.00  0.00    -0.352 N 
ATOM      5  HN  UNL     1     -31.418  -3.436 -18.350  1.00  0.00     0.166 HD
HETATM    6  C   UNL     1     -33.280  -3.095 -17.521  1.00  0.00     0.182 A 
HETATM    7  N   UNL     1     -34.173  -3.279 -16.545  1.00  0.00    -0.333 N 
ATOM      8  HN  UNL     1     -35.094  -2.841 -16.561  1.00  0.00     0.168 HD
ENDROOT
BRANCH   1   9
HETATM    9  O   UNL     1     -34.642  -4.363 -14.492  1.00  0.00    -0.291 OA
BRANCH   9  10
HETATM   10  C   UNL     1     -34.406  -3.770 -13.263  1.00  0.00     0.105 A 
HETATM   11  C   UNL     1     -34.728  -2.398 -13.088  1.00  0.00     0.085 A 
HETATM   12  N   UNL     1     -35.286  -1.527 -14.031  1.00  0.00    -0.333 N 
HETATM   13  C   UNL     1     -34.452  -1.807 -11.851  1.00  0.00     0.038 A 
HETATM   14  C   UNL     1     -35.328  -0.312 -13.535  1.00  0.00     0.152 C 
ATOM     15  HN  UNL     1     -35.610  -1.796 -14.961  1.00  0.00     0.168 HD
HETATM   16  S   UNL     1     -34.915  -0.158 -11.894  1.00  0.00    -0.052 SA
HETATM   17  C   UNL     1     -33.872  -2.512 -10.785  1.00  0.00     0.021 A 
HETATM   18  C   UNL     1     -33.503  -3.837 -10.996  1.00  0.00     0.004 A 
HETATM   19  C   UNL     1     -33.745  -4.451 -12.220  1.00  0.00     0.040 A 
BRANCH  14  20
HETATM   20  N   UNL     1     -35.749   0.768 -14.276  1.00  0.00    -0.307 N 
HETATM   21  C   UNL     1     -36.027   0.741 -15.627  1.00  0.00     0.219 C 
HETATM   22  C   UNL     1     -36.432   2.090 -16.164  1.00  0.00     0.117 C 
HETATM   23  O   UNL     1     -35.985  -0.228 -16.377  1.00  0.00    -0.274 OA
HETATM   24  H   UNL     1     -36.053   1.553 -13.719  1.00  0.00     0.171 HD
ENDBRANCH  14  20
ENDBRANCH   9  10
ENDBRANCH   1   9
BRANCH   3  25
HETATM   25  C   UNL     1     -30.276  -4.904 -16.582  1.00  0.00    -0.009 A 
HETATM   26  C   UNL     1     -29.687  -5.525 -15.464  1.00  0.00     0.014 A 
HETATM   27  C   UNL     1     -28.378  -6.023 -15.502  1.00  0.00     0.017 A 
HETATM   28  C   UNL     1     -27.614  -5.919 -16.669  1.00  0.00     0.048 A 
HETATM   29  C   UNL     1     -28.192  -5.324 -17.796  1.00  0.00     0.017 A 
HETATM   30  C   UNL     1     -29.502  -4.828 -17.753  1.00  0.00     0.014 A 
BRANCH  28  31
HETATM   31  C   UNL     1     -26.196  -6.433 -16.729  1.00  0.00     0.417 C 
HETATM   32  F   UNL     1     -25.711  -6.556 -17.996  1.00  0.00    -0.166 F 
HETATM   33  F   UNL     1     -25.320  -5.624 -16.071  1.00  0.00    -0.166 F 
HETATM   34  F   UNL     1     -26.067  -7.663 -16.160  1.00  0.00    -0.166 F 
ENDBRANCH  28  31
ENDBRANCH   3  25
TORSDOF 5
ENDMDL
MODEL 7
REMARK VINA RESULT:      -8.4      3.850      4.963
REMARK  5 active torsions:
REMARK  status: ('A' for Active; 'I' for Inactive)
REMARK       I    between atoms: C_2  and  N_4 
REMARK    1  A    between atoms: N_4  and  C_5 
REMARK    2  A    between atoms: C_9  and  O_10 
REMARK    3  A    between atoms: O_10  and  C_11 
REMARK    4  A    between atoms: C_13  and  C_14 
REMARK    5  A    between atoms: C_17  and  C_18 
ROOT
HETATM    1  C   UNL     1     -19.480  -9.600  -2.866  1.00  0.00     0.151 A 
HETATM    2  C   UNL     1     -19.987  -8.458  -3.448  1.00  0.00     0.086 A 
HETATM    3  C   UNL     1     -19.882  -8.372  -4.826  1.00  0.00     0.047 A 
HETATM    4  N   UNL     1     -19.300  -9.352  -5.550  1.00  0.00    -0.352 N 
ATOM      5  HN  UNL     1     -19.197  -9.276  -6.563  1.00  0.00     0.166 HD
HETATM    6  C   UNL     1     -18.862 -10.429  -4.882  1.00  0.00     0.182 A 
HETATM    7  N   UNL     1     -18.937 -10.614  -3.561  1.00  0.00    -0.333 N 
ATOM      8  HN  UNL     1     -18.604 -11.467  -3.111  1.00  0.00     0.168 HD
ENDROOT
BRANCH   1   9
HETATM    9  O   UNL     1     -19.573  -9.678  -1.479  1.00  0.00    -0.291 OA
BRANCH   9  10
HETATM   10  C   UNL     1     -20.806  -9.458  -0.889  1.00  0.00     0.105 A 
HETATM   11  C   UNL     1     -21.805 -10.463  -0.988  1.00  0.00     0.085 A 
HETATM   12  N   UNL     1     -21.702 -11.706  -1.624  1.00  0.00    -0.333 N 
HETATM   13  C   UNL     1     -23.055 -10.211  -0.414  1.00  0.00     0.038 A 
HETATM   14  C   UNL     1     -22.870 -12.307  -1.602  1.00  0.00     0.152 C 
ATOM     15  HN  UNL     1     -20.852 -12.086  -2.040  1.00  0.00     0.168 HD
HETATM   16  S   UNL     1     -24.082 -11.557  -0.676  1.00  0.00    -0.052 SA
HETATM   17  C   UNL     1     -23.358  -9.011   0.248  1.00  0.00     0.021 A 
HETATM   18  C   UNL     1     -22.389  -8.013   0.278  1.00  0.00     0.004 A 
HETATM   19  C   UNL     1     -21.142  -8.222  -0.299  1.00  0.00     0.040 A 
BRANCH  14  20
HETATM   20  N   UNL     1     -23.087 -13.509  -2.234  1.00  0.00    -0.307 N 
HETATM   21  C   UNL     1     -22.733 -13.795  -3.536  1.00  0.00     0.219 C 
HETATM   22  C   UNL     1     -23.134 -15.186  -3.956  1.00  0.00     0.117 C 
HETATM   23  O   UNL     1     -22.148 -13.063  -4.326  1.00  0.00    -0.274 OA
HETATM   24  H   UNL     1     -23.337 -14.261  -1.608  1.00  0.00     0.171 HD
ENDBRANCH  14  20
ENDBRANCH   9  10
ENDBRANCH   1   9
BRANCH   3  25
HETATM   25  C   UNL     1     -20.376  -7.210  -5.601  1.00  0.00    -0.009 A 
HETATM   26  C   UNL     1     -21.668  -6.695  -5.384  1.00  0.00     0.014 A 
HETATM   27  C   UNL     1     -22.159  -5.605  -6.115  1.00  0.00     0.017 A 
HETATM   28  C   UNL     1     -21.367  -4.989  -7.089  1.00  0.00     0.048 A 
HETATM   29  C   UNL     1     -20.072  -5.475  -7.302  1.00  0.00     0.017 A 
HETATM   30  C   UNL     1     -19.585  -6.564  -6.568  1.00  0.00     0.014 A 
BRANCH  28  31
HETATM   31  C   UNL     1     -21.880  -3.825  -7.900  1.00  0.00     0.417 C 
HETATM   32  F   UNL     1     -21.283  -3.700  -9.118  1.00  0.00    -0.166 F 
HETATM   33  F   UNL     1     -23.217  -3.909  -8.146  1.00  0.00    -0.166 F 
HETATM   34  F   UNL     1     -21.692  -2.632  -7.269  1.00  0.00    -0.166 F 
ENDBRANCH  28  31
ENDBRANCH   3  25
TORSDOF 5
ENDMDL
MODEL 8
REMARK VINA RESULT:      -8.3      4.368      5.681
REMARK  5 active torsions:
REMARK  status: ('A' for Active; 'I' for Inactive)
REMARK       I    between atoms: C_2  and  N_4 
REMARK    1  A    between atoms: N_4  and  C_5 
REMARK    2  A    between atoms: C_9  and  O_10 
REMARK    3  A    between atoms: O_10  and  C_11 
REMARK    4  A    between atoms: C_13  and  C_14 
REMARK    5  A    between atoms: C_17  and  C_18 
ROOT
HETATM    1  C   UNL     1     -20.161  -9.130  -1.869  1.00  0.00     0.151 A 
HETATM    2  C   UNL     1     -20.734  -8.185  -2.694  1.00  0.00     0.086 A 
HETATM    3  C   UNL     1     -20.228  -8.102  -3.979  1.00  0.00     0.047 A 
HETATM    4  N   UNL     1     -19.216  -8.897  -4.390  1.00  0.00    -0.352 N 
ATOM      5  HN  UNL     1     -18.824  -8.817  -5.329  1.00  0.00     0.166 HD
HETATM    6  C   UNL     1     -18.749  -9.797  -3.512  1.00  0.00     0.182 A 
HETATM    7  N   UNL     1     -19.185  -9.968  -2.261  1.00  0.00    -0.333 N 
ATOM      8  HN  UNL     1     -18.803 -10.685  -1.645  1.00  0.00     0.168 HD
ENDROOT
BRANCH   1   9
HETATM    9  O   UNL     1     -20.661  -9.201  -0.573  1.00  0.00    -0.291 OA
BRANCH   9  10
HETATM   10  C   UNL     1     -21.652 -10.129  -0.300  1.00  0.00     0.105 A 
HETATM   11  C   UNL     1     -21.277 -11.460   0.022  1.00  0.00     0.085 A 
HETATM   12  N   UNL     1     -19.982 -11.982   0.113  1.00  0.00    -0.333 N 
HETATM   13  C   UNL     1     -22.292 -12.392   0.263  1.00  0.00     0.038 A 
HETATM   14  C   UNL     1     -20.045 -13.278   0.318  1.00  0.00     0.152 C 
ATOM     15  HN  UNL     1     -19.121 -11.440   0.033  1.00  0.00     0.168 HD
HETATM   16  S   UNL     1     -21.592 -13.916   0.614  1.00  0.00    -0.052 SA
HETATM   17  C   UNL     1     -23.655 -12.064   0.196  1.00  0.00     0.021 A 
HETATM   18  C   UNL     1     -24.003 -10.773  -0.184  1.00  0.00     0.004 A 
HETATM   19  C   UNL     1     -23.020  -9.826  -0.450  1.00  0.00     0.040 A 
BRANCH  14  20
HETATM   20  N   UNL     1     -18.920 -14.069   0.361  1.00  0.00    -0.307 N 
HETATM   21  C   UNL     1     -17.638 -13.611   0.589  1.00  0.00     0.219 C 
HETATM   22  C   UNL     1     -16.611 -14.713   0.542  1.00  0.00     0.117 C 
HETATM   23  O   UNL     1     -17.290 -12.459   0.821  1.00  0.00    -0.274 OA
HETATM   24  H   UNL     1     -19.116 -15.057   0.428  1.00  0.00     0.171 HD
ENDBRANCH  14  20
ENDBRANCH   9  10
ENDBRANCH   1   9
BRANCH   3  25
HETATM   25  C   UNL     1     -20.734  -7.139  -4.985  1.00  0.00    -0.009 A 
HETATM   26  C   UNL     1     -22.017  -6.573  -4.859  1.00  0.00     0.014 A 
HETATM   27  C   UNL     1     -22.520  -5.670  -5.805  1.00  0.00     0.017 A 
HETATM   28  C   UNL     1     -21.748  -5.298  -6.911  1.00  0.00     0.048 A 
HETATM   29  C   UNL     1     -20.462  -5.834  -7.039  1.00  0.00     0.017 A 
HETATM   30  C   UNL     1     -19.963  -6.736  -6.090  1.00  0.00     0.014 A 
BRANCH  28  31
HETATM   31  C   UNL     1     -22.275  -4.340  -7.951  1.00  0.00     0.417 C 
HETATM   32  F   UNL     1     -21.873  -3.052  -7.764  1.00  0.00    -0.166 F 
HETATM   33  F   UNL     1     -21.884  -4.674  -9.212  1.00  0.00    -0.166 F 
HETATM   34  F   UNL     1     -23.636  -4.305  -7.980  1.00  0.00    -0.166 F 
ENDBRANCH  28  31
ENDBRANCH   3  25
TORSDOF 5
ENDMDL
MODEL 9
REMARK VINA RESULT:      -8.2      3.156      4.441
REMARK  5 active torsions:
REMARK  status: ('A' for Active; 'I' for Inactive)
REMARK       I    between atoms: C_2  and  N_4 
REMARK    1  A    between atoms: N_4  and  C_5 
REMARK    2  A    between atoms: C_9  and  O_10 
REMARK    3  A    between atoms: O_10  and  C_11 
REMARK    4  A    between atoms: C_13  and  C_14 
REMARK    5  A    between atoms: C_17  and  C_18 
ROOT
HETATM    1  C   UNL     1     -20.409  -8.159  -3.725  1.00  0.00     0.151 A 
HETATM    2  C   UNL     1     -20.367  -7.643  -5.002  1.00  0.00     0.086 A 
HETATM    3  C   UNL     1     -21.049  -6.456  -5.210  1.00  0.00     0.047 A 
HETATM    4  N   UNL     1     -21.727  -5.850  -4.211  1.00  0.00    -0.352 N 
ATOM      5  HN  UNL     1     -22.252  -4.990  -4.370  1.00  0.00     0.166 HD
HETATM    6  C   UNL     1     -21.681  -6.428  -3.001  1.00  0.00     0.182 A 
HETATM    7  N   UNL     1     -21.036  -7.558  -2.698  1.00  0.00    -0.333 N 
ATOM      8  HN  UNL     1     -21.020  -7.938  -1.752  1.00  0.00     0.168 HD
ENDROOT
BRANCH   1   9
HETATM    9  O   UNL     1     -19.737  -9.360  -3.522  1.00  0.00    -0.291 OA
BRANCH   9  10
HETATM   10  C   UNL     1     -20.079 -10.446  -4.311  1.00  0.00     0.105 A 
HETATM   11  C   UNL     1     -20.969 -11.422  -3.790  1.00  0.00     0.085 A 
HETATM   12  N   UNL     1     -21.582 -11.430  -2.531  1.00  0.00    -0.333 N 
HETATM   13  C   UNL     1     -21.276 -12.528  -4.587  1.00  0.00     0.038 A 
HETATM   14  C   UNL     1     -22.242 -12.554  -2.372  1.00  0.00     0.152 C 
ATOM     15  HN  UNL     1     -21.525 -10.678  -1.844  1.00  0.00     0.168 HD
HETATM   16  S   UNL     1     -22.350 -13.559  -3.738  1.00  0.00    -0.052 SA
HETATM   17  C   UNL     1     -20.742 -12.711  -5.872  1.00  0.00     0.021 A 
HETATM   18  C   UNL     1     -19.821 -11.778  -6.340  1.00  0.00     0.004 A 
HETATM   19  C   UNL     1     -19.477 -10.676  -5.565  1.00  0.00     0.040 A 
BRANCH  14  20
HETATM   20  N   UNL     1     -22.871 -12.874  -1.191  1.00  0.00    -0.307 N 
HETATM   21  C   UNL     1     -22.427 -12.516   0.065  1.00  0.00     0.219 C 
HETATM   22  C   UNL     1     -23.311 -13.043   1.166  1.00  0.00     0.117 C 
HETATM   23  O   UNL     1     -21.443 -11.839   0.341  1.00  0.00    -0.274 OA
HETATM   24  H   UNL     1     -23.814 -13.215  -1.309  1.00  0.00     0.171 HD
ENDBRANCH  14  20
ENDBRANCH   9  10
ENDBRANCH   1   9
BRANCH   3  25
HETATM   25  C   UNL     1     -21.102  -5.776  -6.525  1.00  0.00    -0.009 A 
HETATM   26  C   UNL     1     -22.237  -5.037  -6.908  1.00  0.00     0.014 A 
HETATM   27  C   UNL     1     -22.313  -4.396  -8.152  1.00  0.00     0.017 A 
HETATM   28  C   UNL     1     -21.248  -4.471  -9.055  1.00  0.00     0.048 A 
HETATM   29  C   UNL     1     -20.103  -5.184  -8.680  1.00  0.00     0.017 A 
HETATM   30  C   UNL     1     -20.031  -5.822  -7.435  1.00  0.00     0.014 A 
BRANCH  28  31
HETATM   31  C   UNL     1     -21.313  -3.803 -10.406  1.00  0.00     0.417 C 
HETATM   32  F   UNL     1     -22.355  -2.937 -10.540  1.00  0.00    -0.166 F 
HETATM   33  F   UNL     1     -20.191  -3.084 -10.688  1.00  0.00    -0.166 F 
HETATM   34  F   UNL     1     -21.444  -4.702 -11.422  1.00  0.00    -0.166 F 
ENDBRANCH  28  31
ENDBRANCH   3  25
TORSDOF 5
ENDMDL
