MODEL 1
REMARK VINA RESULT:      -8.0      0.000      0.000
REMARK  17 active torsions:
REMARK  status: ('A' for Active; 'I' for Inactive)
REMARK    1  A    between atoms: C_2  and  C_3 
REMARK    2  A    between atoms: C_3  and  C_4 
REMARK    3  A    between atoms: C_4  and  C_5 
REMARK    4  A    between atoms: C_5  and  C_6 
REMARK    5  A    between atoms: C_7  and  C_8 
REMARK    6  A    between atoms: C_8  and  C_9 
REMARK    7  A    between atoms: C_10  and  C_11 
REMARK    8  A    between atoms: C_11  and  C_12 
REMARK    9  A    between atoms: C_13  and  C_14 
REMARK   10  A    between atoms: C_15  and  C_16 
REMARK   11  A    between atoms: C_16  and  C_17 
REMARK   12  A    between atoms: C_16  and  O_23 
REMARK   13  A    between atoms: C_17  and  C_18 
REMARK   14  A    between atoms: C_18  and  C_19 
REMARK   15  A    between atoms: C_19  and  C_20 
REMARK   16  A    between atoms: C_20  and  O_22 
REMARK   17  A    between atoms: O_23  and  O_24 
ROOT
HETATM    1  C   UNL     1     -20.842  -6.303  -6.852  1.00  0.00    -0.023 C 
HETATM    2  C   UNL     1     -20.957  -4.993  -7.136  1.00  0.00    -0.004 C 
ENDROOT
BRANCH   2   3
HETATM    3  C   UNL     1     -21.585  -4.530  -8.347  1.00  0.00    -0.002 C 
HETATM    4  C   UNL     1     -22.904  -4.340  -8.469  1.00  0.00     0.008 C 
BRANCH   4   5
HETATM    5  C   UNL     1     -23.561  -3.931  -9.761  1.00  0.00     0.183 C 
BRANCH   5   6
HETATM    6  C   UNL     1     -22.841  -4.563 -10.963  1.00  0.00     0.040 C 
BRANCH   6   7
HETATM    7  C   UNL     1     -22.083  -3.555 -11.835  1.00  0.00     0.013 C 
BRANCH   7   8
HETATM    8  C   UNL     1     -22.950  -2.448 -12.438  1.00  0.00     0.110 C 
BRANCH   8   9
HETATM    9  C   UNL     1     -24.102  -3.056 -13.222  1.00  0.00     0.139 C 
HETATM   10  O   UNL     1     -25.259  -3.097 -12.844  1.00  0.00    -0.650 OA
BRANCH   9  11
HETATM   11  O   UNL     1     -23.714  -3.560 -14.405  1.00  0.00    -0.776 OA
HETATM   12  H   UNL     1     -23.731  -4.529 -14.438  1.00  0.00     0.167 HD
ENDBRANCH   9  11
ENDBRANCH   8   9
ENDBRANCH   7   8
ENDBRANCH   6   7
ENDBRANCH   5   6
BRANCH   5  13
HETATM   13  O   UNL     1     -24.925  -4.376  -9.756  1.00  0.00    -0.234 OA
BRANCH  13  14
HETATM   14  O   UNL     1     -25.753  -3.183  -9.851  1.00  0.00    -0.250 OA
HETATM   15  H   UNL     1     -25.029  -2.542  -9.757  1.00  0.00     0.253 HD
ENDBRANCH  13  14
ENDBRANCH   5  13
ENDBRANCH   4   5
ENDBRANCH   2   3
BRANCH   1  16
HETATM   16  C   UNL     1     -20.223  -6.828  -5.598  1.00  0.00     0.054 C 
BRANCH  16  17
HETATM   17  C   UNL     1     -21.223  -6.917  -4.481  1.00  0.00    -0.027 C 
HETATM   18  C   UNL     1     -21.222  -6.086  -3.426  1.00  0.00    -0.027 C 
BRANCH  18  19
HETATM   19  C   UNL     1     -22.236  -6.140  -2.323  1.00  0.00     0.053 C 
BRANCH  19  20
HETATM   20  C   UNL     1     -21.993  -7.303  -1.411  1.00  0.00    -0.027 C 
HETATM   21  C   UNL     1     -22.573  -7.437  -0.207  1.00  0.00    -0.030 C 
BRANCH  21  22
HETATM   22  C   UNL     1     -22.335  -8.615   0.686  1.00  0.00     0.027 C 
BRANCH  22  23
HETATM   23  C   UNL     1     -22.180  -9.904  -0.119  1.00  0.00     0.004 C 
BRANCH  23  24
HETATM   24  C   UNL     1     -23.471 -10.722  -0.088  1.00  0.00    -0.000 C 
BRANCH  24  25
HETATM   25  C   UNL     1     -23.869 -11.177  -1.489  1.00  0.00    -0.005 C 
HETATM   26  C   UNL     1     -22.736 -10.969  -2.480  1.00  0.00     0.005 C 
ENDBRANCH  24  25
ENDBRANCH  23  24
ENDBRANCH  22  23
ENDBRANCH  21  22
ENDBRANCH  19  20
ENDBRANCH  18  19
ENDBRANCH  16  17
ENDBRANCH   1  16
TORSDOF 17
ENDMDL
MODEL 2
REMARK VINA RESULT:      -7.7      1.160      1.623
REMARK  17 active torsions:
REMARK  status: ('A' for Active; 'I' for Inactive)
REMARK    1  A    between atoms: C_2  and  C_3 
REMARK    2  A    between atoms: C_3  and  C_4 
REMARK    3  A    between atoms: C_4  and  C_5 
REMARK    4  A    between atoms: C_5  and  C_6 
REMARK    5  A    between atoms: C_7  and  C_8 
REMARK    6  A    between atoms: C_8  and  C_9 
REMARK    7  A    between atoms: C_10  and  C_11 
REMARK    8  A    between atoms: C_11  and  C_12 
REMARK    9  A    between atoms: C_13  and  C_14 
REMARK   10  A    between atoms: C_15  and  C_16 
REMARK   11  A    between atoms: C_16  and  C_17 
REMARK   12  A    between atoms: C_16  and  O_23 
REMARK   13  A    between atoms: C_17  and  C_18 
REMARK   14  A    between atoms: C_18  and  C_19 
REMARK   15  A    between atoms: C_19  and  C_20 
REMARK   16  A    between atoms: C_20  and  O_22 
REMARK   17  A    between atoms: O_23  and  O_24 
ROOT
HETATM    1  C   UNL     1     -20.874  -4.349  -6.864  1.00  0.00    -0.023 C 
HETATM    2  C   UNL     1     -21.085  -5.142  -7.930  1.00  0.00    -0.004 C 
ENDROOT
BRANCH   2   3
HETATM    3  C   UNL     1     -21.769  -4.667  -9.106  1.00  0.00    -0.002 C 
HETATM    4  C   UNL     1     -22.736  -3.742  -9.074  1.00  0.00     0.008 C 
BRANCH   4   5
HETATM    5  C   UNL     1     -23.500  -3.308 -10.297  1.00  0.00     0.183 C 
BRANCH   5   6
HETATM    6  C   UNL     1     -23.442  -4.389 -11.389  1.00  0.00     0.040 C 
BRANCH   6   7
HETATM    7  C   UNL     1     -23.735  -3.866 -12.800  1.00  0.00     0.013 C 
BRANCH   7   8
HETATM    8  C   UNL     1     -22.981  -2.590 -13.180  1.00  0.00     0.110 C 
BRANCH   8   9
HETATM    9  C   UNL     1     -23.135  -2.318 -14.669  1.00  0.00     0.139 C 
HETATM   10  O   UNL     1     -23.926  -1.530 -15.156  1.00  0.00    -0.650 OA
BRANCH   9  11
HETATM   11  O   UNL     1     -22.295  -3.050 -15.418  1.00  0.00    -0.776 OA
HETATM   12  H   UNL     1     -21.375  -3.020 -15.112  1.00  0.00     0.167 HD
ENDBRANCH   9  11
ENDBRANCH   8   9
ENDBRANCH   7   8
ENDBRANCH   6   7
ENDBRANCH   5   6
BRANCH   5  13
HETATM   13  O   UNL     1     -24.872  -3.089  -9.941  1.00  0.00    -0.234 OA
BRANCH  13  14
HETATM   14  O   UNL     1     -25.417  -4.386  -9.566  1.00  0.00    -0.250 OA
HETATM   15  H   UNL     1     -24.927  -4.903 -10.227  1.00  0.00     0.253 HD
ENDBRANCH  13  14
ENDBRANCH   5  13
ENDBRANCH   4   5
ENDBRANCH   2   3
BRANCH   1  16
HETATM   16  C   UNL     1     -20.147  -4.791  -5.634  1.00  0.00     0.054 C 
BRANCH  16  17
HETATM   17  C   UNL     1     -20.935  -5.807  -4.860  1.00  0.00    -0.027 C 
HETATM   18  C   UNL     1     -20.613  -7.110  -4.818  1.00  0.00    -0.027 C 
BRANCH  18  19
HETATM   19  C   UNL     1     -21.369  -8.130  -4.021  1.00  0.00     0.053 C 
BRANCH  19  20
HETATM   20  C   UNL     1     -21.236  -7.884  -2.550  1.00  0.00    -0.027 C 
HETATM   21  C   UNL     1     -22.243  -7.450  -1.774  1.00  0.00    -0.030 C 
BRANCH  21  22
HETATM   22  C   UNL     1     -22.101  -7.227  -0.301  1.00  0.00     0.027 C 
BRANCH  22  23
HETATM   23  C   UNL     1     -22.169  -8.542   0.473  1.00  0.00     0.004 C 
BRANCH  23  24
HETATM   24  C   UNL     1     -23.388  -9.359   0.046  1.00  0.00    -0.000 C 
BRANCH  24  25
HETATM   25  C   UNL     1     -22.997 -10.794  -0.297  1.00  0.00    -0.005 C 
HETATM   26  C   UNL     1     -23.482 -11.181  -1.685  1.00  0.00     0.005 C 
ENDBRANCH  24  25
ENDBRANCH  23  24
ENDBRANCH  22  23
ENDBRANCH  21  22
ENDBRANCH  19  20
ENDBRANCH  18  19
ENDBRANCH  16  17
ENDBRANCH   1  16
TORSDOF 17
ENDMDL
MODEL 3
REMARK VINA RESULT:      -7.5      1.094      2.315
REMARK  17 active torsions:
REMARK  status: ('A' for Active; 'I' for Inactive)
REMARK    1  A    between atoms: C_2  and  C_3 
REMARK    2  A    between atoms: C_3  and  C_4 
REMARK    3  A    between atoms: C_4  and  C_5 
REMARK    4  A    between atoms: C_5  and  C_6 
REMARK    5  A    between atoms: C_7  and  C_8 
REMARK    6  A    between atoms: C_8  and  C_9 
REMARK    7  A    between atoms: C_10  and  C_11 
REMARK    8  A    between atoms: C_11  and  C_12 
REMARK    9  A    between atoms: C_13  and  C_14 
REMARK   10  A    between atoms: C_15  and  C_16 
REMARK   11  A    between atoms: C_16  and  C_17 
REMARK   12  A    between atoms: C_16  and  O_23 
REMARK   13  A    between atoms: C_17  and  C_18 
REMARK   14  A    between atoms: C_18  and  C_19 
REMARK   15  A    between atoms: C_19  and  C_20 
REMARK   16  A    between atoms: C_20  and  O_22 
REMARK   17  A    between atoms: O_23  and  O_24 
ROOT
HETATM    1  C   UNL     1     -21.411  -5.785  -6.408  1.00  0.00    -0.023 C 
HETATM    2  C   UNL     1     -21.234  -4.519  -6.825  1.00  0.00    -0.004 C 
ENDROOT
BRANCH   2   3
HETATM    3  C   UNL     1     -21.749  -4.056  -8.088  1.00  0.00    -0.002 C 
HETATM    4  C   UNL     1     -23.047  -4.088  -8.412  1.00  0.00     0.008 C 
BRANCH   4   5
HETATM    5  C   UNL     1     -23.569  -3.675  -9.763  1.00  0.00     0.183 C 
BRANCH   5   6
HETATM    6  C   UNL     1     -22.599  -4.103 -10.877  1.00  0.00     0.040 C 
BRANCH   6   7
HETATM    7  C   UNL     1     -22.538  -3.129 -12.058  1.00  0.00     0.013 C 
BRANCH   7   8
HETATM    8  C   UNL     1     -23.674  -3.277 -13.073  1.00  0.00     0.110 C 
BRANCH   8   9
HETATM    9  C   UNL     1     -23.341  -2.510 -14.344  1.00  0.00     0.139 C 
HETATM   10  O   UNL     1     -23.882  -1.479 -14.699  1.00  0.00    -0.650 OA
BRANCH   9  11
HETATM   11  O   UNL     1     -22.366  -3.095 -15.060  1.00  0.00    -0.776 OA
HETATM   12  H   UNL     1     -22.696  -3.702 -15.741  1.00  0.00     0.167 HD
ENDBRANCH   9  11
ENDBRANCH   8   9
ENDBRANCH   7   8
ENDBRANCH   6   7
ENDBRANCH   5   6
BRANCH   5  13
HETATM   13  O   UNL     1     -24.837  -4.307  -9.991  1.00  0.00    -0.234 OA
BRANCH  13  14
HETATM   14  O   UNL     1     -25.853  -3.284  -9.791  1.00  0.00    -0.250 OA
HETATM   15  H   UNL     1     -25.591  -2.725 -10.541  1.00  0.00     0.253 HD
ENDBRANCH  13  14
ENDBRANCH   5  13
ENDBRANCH   4   5
ENDBRANCH   2   3
BRANCH   1  16
HETATM   16  C   UNL     1     -20.918  -6.302  -5.095  1.00  0.00     0.054 C 
BRANCH  16  17
HETATM   17  C   UNL     1     -21.412  -7.694  -4.827  1.00  0.00    -0.027 C 
HETATM   18  C   UNL     1     -20.594  -8.748  -4.676  1.00  0.00    -0.027 C 
BRANCH  18  19
HETATM   19  C   UNL     1     -21.071 -10.136  -4.372  1.00  0.00     0.053 C 
BRANCH  19  20
HETATM   20  C   UNL     1     -21.620 -10.235  -2.982  1.00  0.00    -0.027 C 
HETATM   21  C   UNL     1     -22.839 -10.721  -2.696  1.00  0.00    -0.030 C 
BRANCH  21  22
HETATM   22  C   UNL     1     -23.367 -10.832  -1.300  1.00  0.00     0.027 C 
BRANCH  22  23
HETATM   23  C   UNL     1     -22.416 -10.191  -0.291  1.00  0.00     0.004 C 
BRANCH  23  24
HETATM   24  C   UNL     1     -22.910  -8.801   0.112  1.00  0.00    -0.000 C 
BRANCH  24  25
HETATM   25  C   UNL     1     -21.847  -7.739  -0.156  1.00  0.00    -0.005 C 
HETATM   26  C   UNL     1     -22.308  -6.752  -1.216  1.00  0.00     0.005 C 
ENDBRANCH  24  25
ENDBRANCH  23  24
ENDBRANCH  22  23
ENDBRANCH  21  22
ENDBRANCH  19  20
ENDBRANCH  18  19
ENDBRANCH  16  17
ENDBRANCH   1  16
TORSDOF 17
ENDMDL
MODEL 4
REMARK VINA RESULT:      -6.9      1.567      2.411
REMARK  17 active torsions:
REMARK  status: ('A' for Active; 'I' for Inactive)
REMARK    1  A    between atoms: C_2  and  C_3 
REMARK    2  A    between atoms: C_3  and  C_4 
REMARK    3  A    between atoms: C_4  and  C_5 
REMARK    4  A    between atoms: C_5  and  C_6 
REMARK    5  A    between atoms: C_7  and  C_8 
REMARK    6  A    between atoms: C_8  and  C_9 
REMARK    7  A    between atoms: C_10  and  C_11 
REMARK    8  A    between atoms: C_11  and  C_12 
REMARK    9  A    between atoms: C_13  and  C_14 
REMARK   10  A    between atoms: C_15  and  C_16 
REMARK   11  A    between atoms: C_16  and  C_17 
REMARK   12  A    between atoms: C_16  and  O_23 
REMARK   13  A    between atoms: C_17  and  C_18 
REMARK   14  A    between atoms: C_18  and  C_19 
REMARK   15  A    between atoms: C_19  and  C_20 
REMARK   16  A    between atoms: C_20  and  O_22 
REMARK   17  A    between atoms: O_23  and  O_24 
ROOT
HETATM    1  C   UNL     1     -21.685  -5.848  -6.081  1.00  0.00    -0.023 C 
HETATM    2  C   UNL     1     -21.278  -4.790  -6.805  1.00  0.00    -0.004 C 
ENDROOT
BRANCH   2   3
HETATM    3  C   UNL     1     -21.870  -4.467  -8.078  1.00  0.00    -0.002 C 
HETATM    4  C   UNL     1     -23.072  -3.893  -8.208  1.00  0.00     0.008 C 
BRANCH   4   5
HETATM    5  C   UNL     1     -23.718  -3.629  -9.543  1.00  0.00     0.183 C 
BRANCH   5   6
HETATM    6  C   UNL     1     -22.806  -4.092 -10.691  1.00  0.00     0.040 C 
BRANCH   6   7
HETATM    7  C   UNL     1     -23.540  -4.313 -12.019  1.00  0.00     0.013 C 
BRANCH   7   8
HETATM    8  C   UNL     1     -24.032  -3.035 -12.701  1.00  0.00     0.110 C 
BRANCH   8   9
HETATM    9  C   UNL     1     -23.256  -2.800 -13.988  1.00  0.00     0.139 C 
HETATM   10  O   UNL     1     -23.685  -2.211 -14.964  1.00  0.00    -0.650 OA
BRANCH   9  11
HETATM   11  O   UNL     1     -22.018  -3.318 -13.948  1.00  0.00    -0.776 OA
HETATM   12  H   UNL     1     -21.999  -4.261 -13.725  1.00  0.00     0.167 HD
ENDBRANCH   9  11
ENDBRANCH   8   9
ENDBRANCH   7   8
ENDBRANCH   6   7
ENDBRANCH   5   6
BRANCH   5  13
HETATM   13  O   UNL     1     -24.954  -4.355  -9.618  1.00  0.00    -0.234 OA
BRANCH  13  14
HETATM   14  O   UNL     1     -26.014  -3.362  -9.710  1.00  0.00    -0.250 OA
HETATM   15  H   UNL     1     -25.608  -2.715  -9.110  1.00  0.00     0.253 HD
ENDBRANCH  13  14
ENDBRANCH   5  13
ENDBRANCH   4   5
ENDBRANCH   2   3
BRANCH   1  16
HETATM   16  C   UNL     1     -21.118  -6.206  -4.745  1.00  0.00     0.054 C 
BRANCH  16  17
HETATM   17  C   UNL     1     -21.686  -7.496  -4.229  1.00  0.00    -0.027 C 
HETATM   18  C   UNL     1     -21.215  -8.701  -4.587  1.00  0.00    -0.027 C 
BRANCH  18  19
HETATM   19  C   UNL     1     -21.749  -9.996  -4.052  1.00  0.00     0.053 C 
BRANCH  19  20
HETATM   20  C   UNL     1     -22.158  -9.869  -2.617  1.00  0.00    -0.027 C 
HETATM   21  C   UNL     1     -22.844 -10.814  -1.953  1.00  0.00    -0.030 C 
BRANCH  21  22
HETATM   22  C   UNL     1     -23.230 -10.682  -0.512  1.00  0.00     0.027 C 
BRANCH  22  23
HETATM   23  C   UNL     1     -23.346 -12.047   0.162  1.00  0.00     0.004 C 
BRANCH  23  24
HETATM   24  C   UNL     1     -22.051 -12.404   0.891  1.00  0.00    -0.000 C 
BRANCH  24  25
HETATM   25  C   UNL     1     -22.189 -13.724   1.646  1.00  0.00    -0.005 C 
HETATM   26  C   UNL     1     -23.589 -13.894   2.209  1.00  0.00     0.005 C 
ENDBRANCH  24  25
ENDBRANCH  23  24
ENDBRANCH  22  23
ENDBRANCH  21  22
ENDBRANCH  19  20
ENDBRANCH  18  19
ENDBRANCH  16  17
ENDBRANCH   1  16
TORSDOF 17
ENDMDL
MODEL 5
REMARK VINA RESULT:      -6.8      3.278      4.599
REMARK  17 active torsions:
REMARK  status: ('A' for Active; 'I' for Inactive)
REMARK    1  A    between atoms: C_2  and  C_3 
REMARK    2  A    between atoms: C_3  and  C_4 
REMARK    3  A    between atoms: C_4  and  C_5 
REMARK    4  A    between atoms: C_5  and  C_6 
REMARK    5  A    between atoms: C_7  and  C_8 
REMARK    6  A    between atoms: C_8  and  C_9 
REMARK    7  A    between atoms: C_10  and  C_11 
REMARK    8  A    between atoms: C_11  and  C_12 
REMARK    9  A    between atoms: C_13  and  C_14 
REMARK   10  A    between atoms: C_15  and  C_16 
REMARK   11  A    between atoms: C_16  and  C_17 
REMARK   12  A    between atoms: C_16  and  O_23 
REMARK   13  A    between atoms: C_17  and  C_18 
REMARK   14  A    between atoms: C_18  and  C_19 
REMARK   15  A    between atoms: C_19  and  C_20 
REMARK   16  A    between atoms: C_20  and  O_22 
REMARK   17  A    between atoms: O_23  and  O_24 
ROOT
HETATM    1  C   UNL     1     -21.370  -5.301  -6.484  1.00  0.00    -0.023 C 
HETATM    2  C   UNL     1     -21.326  -4.137  -7.158  1.00  0.00    -0.004 C 
ENDROOT
BRANCH   2   3
HETATM    3  C   UNL     1     -21.823  -4.019  -8.505  1.00  0.00    -0.002 C 
HETATM    4  C   UNL     1     -23.090  -3.703  -8.799  1.00  0.00     0.008 C 
BRANCH   4   5
HETATM    5  C   UNL     1     -23.621  -3.658 -10.207  1.00  0.00     0.183 C 
BRANCH   5   6
HETATM    6  C   UNL     1     -22.679  -4.399 -11.170  1.00  0.00     0.040 C 
BRANCH   6   7
HETATM    7  C   UNL     1     -22.361  -3.621 -12.451  1.00  0.00     0.013 C 
BRANCH   7   8
HETATM    8  C   UNL     1     -23.409  -2.581 -12.849  1.00  0.00     0.110 C 
BRANCH   8   9
HETATM    9  C   UNL     1     -23.320  -2.295 -14.340  1.00  0.00     0.139 C 
HETATM   10  O   UNL     1     -24.020  -1.499 -14.941  1.00  0.00    -0.650 OA
BRANCH   9  11
HETATM   11  O   UNL     1     -22.371  -3.023 -14.951  1.00  0.00    -0.776 OA
HETATM   12  H   UNL     1     -21.480  -2.649 -14.865  1.00  0.00     0.167 HD
ENDBRANCH   9  11
ENDBRANCH   8   9
ENDBRANCH   7   8
ENDBRANCH   6   7
ENDBRANCH   5   6
BRANCH   5  13
HETATM   13  O   UNL     1     -24.908  -4.293 -10.244  1.00  0.00    -0.234 OA
BRANCH  13  14
HETATM   14  O   UNL     1     -25.853  -3.351  -9.662  1.00  0.00    -0.250 OA
HETATM   15  H   UNL     1     -25.764  -2.671 -10.350  1.00  0.00     0.253 HD
ENDBRANCH  13  14
ENDBRANCH   5  13
ENDBRANCH   4   5
ENDBRANCH   2   3
BRANCH   1  16
HETATM   16  C   UNL     1     -20.890  -5.463  -5.078  1.00  0.00     0.054 C 
BRANCH  16  17
HETATM   17  C   UNL     1     -21.130  -6.855  -4.568  1.00  0.00    -0.027 C 
HETATM   18  C   UNL     1     -20.947  -7.953  -5.318  1.00  0.00    -0.027 C 
BRANCH  18  19
HETATM   19  C   UNL     1     -21.148  -9.350  -4.812  1.00  0.00     0.053 C 
BRANCH  19  20
HETATM   20  C   UNL     1     -19.845  -9.995  -4.451  1.00  0.00    -0.027 C 
HETATM   21  C   UNL     1     -18.655  -9.380  -4.560  1.00  0.00    -0.030 C 
BRANCH  21  22
HETATM   22  C   UNL     1     -17.362 -10.031  -4.177  1.00  0.00     0.027 C 
BRANCH  22  23
HETATM   23  C   UNL     1     -16.308  -9.864  -5.269  1.00  0.00     0.004 C 
BRANCH  23  24
HETATM   24  C   UNL     1     -15.210 -10.918  -5.129  1.00  0.00    -0.000 C 
BRANCH  24  25
HETATM   25  C   UNL     1     -15.169 -11.837  -6.346  1.00  0.00    -0.005 C 
HETATM   26  C   UNL     1     -13.809 -12.498  -6.493  1.00  0.00     0.005 C 
ENDBRANCH  24  25
ENDBRANCH  23  24
ENDBRANCH  22  23
ENDBRANCH  21  22
ENDBRANCH  19  20
ENDBRANCH  18  19
ENDBRANCH  16  17
ENDBRANCH   1  16
TORSDOF 17
ENDMDL
MODEL 6
REMARK VINA RESULT:      -6.8      2.648      3.683
REMARK  17 active torsions:
REMARK  status: ('A' for Active; 'I' for Inactive)
REMARK    1  A    between atoms: C_2  and  C_3 
REMARK    2  A    between atoms: C_3  and  C_4 
REMARK    3  A    between atoms: C_4  and  C_5 
REMARK    4  A    between atoms: C_5  and  C_6 
REMARK    5  A    between atoms: C_7  and  C_8 
REMARK    6  A    between atoms: C_8  and  C_9 
REMARK    7  A    between atoms: C_10  and  C_11 
REMARK    8  A    between atoms: C_11  and  C_12 
REMARK    9  A    between atoms: C_13  and  C_14 
REMARK   10  A    between atoms: C_15  and  C_16 
REMARK   11  A    between atoms: C_16  and  C_17 
REMARK   12  A    between atoms: C_16  and  O_23 
REMARK   13  A    between atoms: C_17  and  C_18 
REMARK   14  A    between atoms: C_18  and  C_19 
REMARK   15  A    between atoms: C_19  and  C_20 
REMARK   16  A    between atoms: C_20  and  O_22 
REMARK   17  A    between atoms: O_23  and  O_24 
ROOT
HETATM    1  C   UNL     1     -20.055  -4.284  -7.752  1.00  0.00    -0.023 C 
HETATM    2  C   UNL     1     -21.385  -4.270  -7.955  1.00  0.00    -0.004 C 
ENDROOT
BRANCH   2   3
HETATM    3  C   UNL     1     -21.964  -3.750  -9.167  1.00  0.00    -0.002 C 
HETATM    4  C   UNL     1     -23.283  -3.661  -9.376  1.00  0.00     0.008 C 
BRANCH   4   5
HETATM    5  C   UNL     1     -23.881  -3.188 -10.675  1.00  0.00     0.183 C 
BRANCH   5   6
HETATM    6  C   UNL     1     -23.134  -3.797 -11.872  1.00  0.00     0.040 C 
BRANCH   6   7
HETATM    7  C   UNL     1     -22.767  -2.781 -12.960  1.00  0.00     0.013 C 
BRANCH   7   8
HETATM    8  C   UNL     1     -23.660  -2.818 -14.201  1.00  0.00     0.110 C 
BRANCH   8   9
HETATM    9  C   UNL     1     -23.585  -1.488 -14.937  1.00  0.00     0.139 C 
HETATM   10  O   UNL     1     -22.699  -1.166 -15.708  1.00  0.00    -0.650 OA
BRANCH   9  11
HETATM   11  O   UNL     1     -24.617  -0.678 -14.648  1.00  0.00    -0.776 OA
HETATM   12  H   UNL     1     -24.431  -0.054 -13.929  1.00  0.00     0.167 HD
ENDBRANCH   9  11
ENDBRANCH   8   9
ENDBRANCH   7   8
ENDBRANCH   6   7
ENDBRANCH   5   6
BRANCH   5  13
HETATM   13  O   UNL     1     -25.255  -3.596 -10.736  1.00  0.00    -0.234 OA
BRANCH  13  14
HETATM   14  O   UNL     1     -25.903  -3.055  -9.549  1.00  0.00    -0.250 OA
HETATM   15  H   UNL     1     -25.342  -2.265  -9.473  1.00  0.00     0.253 HD
ENDBRANCH  13  14
ENDBRANCH   5  13
ENDBRANCH   4   5
ENDBRANCH   2   3
BRANCH   1  16
HETATM   16  C   UNL     1     -19.410  -4.837  -6.523  1.00  0.00     0.054 C 
BRANCH  16  17
HETATM   17  C   UNL     1     -20.405  -5.535  -5.641  1.00  0.00    -0.027 C 
HETATM   18  C   UNL     1     -20.838  -6.786  -5.868  1.00  0.00    -0.027 C 
BRANCH  18  19
HETATM   19  C   UNL     1     -21.803  -7.507  -4.977  1.00  0.00     0.053 C 
BRANCH  19  20
HETATM   20  C   UNL     1     -21.100  -8.188  -3.844  1.00  0.00    -0.027 C 
HETATM   21  C   UNL     1     -20.337  -9.284  -3.993  1.00  0.00    -0.030 C 
BRANCH  21  22
HETATM   22  C   UNL     1     -19.624  -9.943  -2.853  1.00  0.00     0.027 C 
BRANCH  22  23
HETATM   23  C   UNL     1     -18.179  -9.462  -2.745  1.00  0.00     0.004 C 
BRANCH  23  24
HETATM   24  C   UNL     1     -17.458  -9.604  -4.086  1.00  0.00    -0.000 C 
BRANCH  24  25
HETATM   25  C   UNL     1     -16.023 -10.087  -3.892  1.00  0.00    -0.005 C 
HETATM   26  C   UNL     1     -15.722 -10.347  -2.426  1.00  0.00     0.005 C 
ENDBRANCH  24  25
ENDBRANCH  23  24
ENDBRANCH  22  23
ENDBRANCH  21  22
ENDBRANCH  19  20
ENDBRANCH  18  19
ENDBRANCH  16  17
ENDBRANCH   1  16
TORSDOF 17
ENDMDL
MODEL 7
REMARK VINA RESULT:      -6.4      1.603      3.285
REMARK  17 active torsions:
REMARK  status: ('A' for Active; 'I' for Inactive)
REMARK    1  A    between atoms: C_2  and  C_3 
REMARK    2  A    between atoms: C_3  and  C_4 
REMARK    3  A    between atoms: C_4  and  C_5 
REMARK    4  A    between atoms: C_5  and  C_6 
REMARK    5  A    between atoms: C_7  and  C_8 
REMARK    6  A    between atoms: C_8  and  C_9 
REMARK    7  A    between atoms: C_10  and  C_11 
REMARK    8  A    between atoms: C_11  and  C_12 
REMARK    9  A    between atoms: C_13  and  C_14 
REMARK   10  A    between atoms: C_15  and  C_16 
REMARK   11  A    between atoms: C_16  and  C_17 
REMARK   12  A    between atoms: C_16  and  O_23 
REMARK   13  A    between atoms: C_17  and  C_18 
REMARK   14  A    between atoms: C_18  and  C_19 
REMARK   15  A    between atoms: C_19  and  C_20 
REMARK   16  A    between atoms: C_20  and  O_22 
REMARK   17  A    between atoms: O_23  and  O_24 
ROOT
HETATM    1  C   UNL     1     -20.381  -7.553  -5.247  1.00  0.00    -0.023 C 
HETATM    2  C   UNL     1     -21.361  -6.675  -4.968  1.00  0.00    -0.004 C 
ENDROOT
BRANCH   2   3
HETATM    3  C   UNL     1     -21.798  -5.693  -5.928  1.00  0.00    -0.002 C 
HETATM    4  C   UNL     1     -21.086  -5.350  -7.008  1.00  0.00     0.008 C 
BRANCH   4   5
HETATM    5  C   UNL     1     -21.512  -4.268  -7.965  1.00  0.00     0.183 C 
BRANCH   5   6
HETATM    6  C   UNL     1     -20.394  -3.961  -8.974  1.00  0.00     0.040 C 
BRANCH   6   7
HETATM    7  C   UNL     1     -20.740  -4.334 -10.420  1.00  0.00     0.013 C 
BRANCH   7   8
HETATM    8  C   UNL     1     -20.887  -3.146 -11.373  1.00  0.00     0.110 C 
BRANCH   8   9
HETATM    9  C   UNL     1     -22.294  -3.113 -11.952  1.00  0.00     0.139 C 
HETATM   10  O   UNL     1     -22.559  -2.995 -13.134  1.00  0.00    -0.650 OA
BRANCH   9  11
HETATM   11  O   UNL     1     -23.244  -3.228 -11.009  1.00  0.00    -0.776 OA
HETATM   12  H   UNL     1     -23.273  -2.479 -10.393  1.00  0.00     0.167 HD
ENDBRANCH   9  11
ENDBRANCH   8   9
ENDBRANCH   7   8
ENDBRANCH   6   7
ENDBRANCH   5   6
BRANCH   5  13
HETATM   13  O   UNL     1     -22.672  -4.708  -8.686  1.00  0.00    -0.234 OA
BRANCH  13  14
HETATM   14  O   UNL     1     -23.789  -3.907  -8.205  1.00  0.00    -0.250 OA
HETATM   15  H   UNL     1     -23.774  -4.239  -7.293  1.00  0.00     0.253 HD
ENDBRANCH  13  14
ENDBRANCH   5  13
ENDBRANCH   4   5
ENDBRANCH   2   3
BRANCH   1  16
HETATM   16  C   UNL     1     -19.914  -8.604  -4.292  1.00  0.00     0.054 C 
BRANCH  16  17
HETATM   17  C   UNL     1     -20.878  -9.753  -4.219  1.00  0.00    -0.027 C 
HETATM   18  C   UNL     1     -20.494 -11.039  -4.275  1.00  0.00    -0.027 C 
BRANCH  18  19
HETATM   19  C   UNL     1     -21.441 -12.196  -4.168  1.00  0.00     0.053 C 
BRANCH  19  20
HETATM   20  C   UNL     1     -22.684 -11.819  -3.422  1.00  0.00    -0.027 C 
HETATM   21  C   UNL     1     -22.723 -11.618  -2.094  1.00  0.00    -0.030 C 
BRANCH  21  22
HETATM   22  C   UNL     1     -23.969 -11.223  -1.365  1.00  0.00     0.027 C 
BRANCH  22  23
HETATM   23  C   UNL     1     -23.656 -10.710   0.039  1.00  0.00     0.004 C 
BRANCH  23  24
HETATM   24  C   UNL     1     -22.331  -9.947   0.055  1.00  0.00    -0.000 C 
BRANCH  24  25
HETATM   25  C   UNL     1     -22.558  -8.446  -0.099  1.00  0.00    -0.005 C 
HETATM   26  C   UNL     1     -21.691  -7.867  -1.205  1.00  0.00     0.005 C 
ENDBRANCH  24  25
ENDBRANCH  23  24
ENDBRANCH  22  23
ENDBRANCH  21  22
ENDBRANCH  19  20
ENDBRANCH  18  19
ENDBRANCH  16  17
ENDBRANCH   1  16
TORSDOF 17
ENDMDL
MODEL 8
REMARK VINA RESULT:      -6.2      5.079     10.600
REMARK  17 active torsions:
REMARK  status: ('A' for Active; 'I' for Inactive)
REMARK    1  A    between atoms: C_2  and  C_3 
REMARK    2  A    between atoms: C_3  and  C_4 
REMARK    3  A    between atoms: C_4  and  C_5 
REMARK    4  A    between atoms: C_5  and  C_6 
REMARK    5  A    between atoms: C_7  and  C_8 
REMARK    6  A    between atoms: C_8  and  C_9 
REMARK    7  A    between atoms: C_10  and  C_11 
REMARK    8  A    between atoms: C_11  and  C_12 
REMARK    9  A    between atoms: C_13  and  C_14 
REMARK   10  A    between atoms: C_15  and  C_16 
REMARK   11  A    between atoms: C_16  and  C_17 
REMARK   12  A    between atoms: C_16  and  O_23 
REMARK   13  A    between atoms: C_17  and  C_18 
REMARK   14  A    between atoms: C_18  and  C_19 
REMARK   15  A    between atoms: C_19  and  C_20 
REMARK   16  A    between atoms: C_20  and  O_22 
REMARK   17  A    between atoms: O_23  and  O_24 
ROOT
HETATM    1  C   UNL     1     -21.475  -6.493  -4.925  1.00  0.00    -0.023 C 
HETATM    2  C   UNL     1     -20.703  -7.538  -5.275  1.00  0.00    -0.004 C 
ENDROOT
BRANCH   2   3
HETATM    3  C   UNL     1     -19.999  -8.324  -4.295  1.00  0.00    -0.002 C 
HETATM    4  C   UNL     1     -20.524  -8.675  -3.115  1.00  0.00     0.008 C 
BRANCH   4   5
HETATM    5  C   UNL     1     -19.754  -9.431  -2.063  1.00  0.00     0.183 C 
BRANCH   5   6
HETATM    6  C   UNL     1     -20.708 -10.076  -1.046  1.00  0.00     0.040 C 
BRANCH   6   7
HETATM    7  C   UNL     1     -22.192  -9.835  -1.346  1.00  0.00     0.013 C 
BRANCH   7   8
HETATM    8  C   UNL     1     -23.044  -9.477  -0.126  1.00  0.00     0.110 C 
BRANCH   8   9
HETATM    9  C   UNL     1     -22.904  -7.996   0.192  1.00  0.00     0.139 C 
HETATM   10  O   UNL     1     -22.822  -7.109  -0.638  1.00  0.00    -0.650 OA
BRANCH   9  11
HETATM   11  O   UNL     1     -22.875  -7.751   1.512  1.00  0.00    -0.776 OA
HETATM   12  H   UNL     1     -23.640  -7.245   1.829  1.00  0.00     0.167 HD
ENDBRANCH   9  11
ENDBRANCH   8   9
ENDBRANCH   7   8
ENDBRANCH   6   7
ENDBRANCH   5   6
BRANCH   5  13
HETATM   13  O   UNL     1     -18.989 -10.467  -2.696  1.00  0.00    -0.234 OA
BRANCH  13  14
HETATM   14  O   UNL     1     -17.588 -10.170  -2.433  1.00  0.00    -0.250 OA
HETATM   15  H   UNL     1     -17.415 -10.950  -1.881  1.00  0.00     0.253 HD
ENDBRANCH  13  14
ENDBRANCH   5  13
ENDBRANCH   4   5
ENDBRANCH   2   3
BRANCH   1  16
HETATM   16  C   UNL     1     -22.244  -5.667  -5.905  1.00  0.00     0.054 C 
BRANCH  16  17
HETATM   17  C   UNL     1     -21.479  -5.466  -7.181  1.00  0.00    -0.027 C 
HETATM   18  C   UNL     1     -20.524  -4.534  -7.326  1.00  0.00    -0.027 C 
BRANCH  18  19
HETATM   19  C   UNL     1     -19.728  -4.346  -8.582  1.00  0.00     0.053 C 
BRANCH  19  20
HETATM   20  C   UNL     1     -20.571  -3.792  -9.688  1.00  0.00    -0.027 C 
HETATM   21  C   UNL     1     -20.621  -4.321 -10.922  1.00  0.00    -0.030 C 
BRANCH  21  22
HETATM   22  C   UNL     1     -21.484  -3.767 -12.013  1.00  0.00     0.027 C 
BRANCH  22  23
HETATM   23  C   UNL     1     -22.933  -4.225 -11.866  1.00  0.00     0.004 C 
BRANCH  23  24
HETATM   24  C   UNL     1     -23.834  -3.054 -11.473  1.00  0.00    -0.000 C 
BRANCH  24  25
HETATM   25  C   UNL     1     -24.574  -3.341 -10.170  1.00  0.00    -0.005 C 
HETATM   26  C   UNL     1     -24.193  -4.700  -9.606  1.00  0.00     0.005 C 
ENDBRANCH  24  25
ENDBRANCH  23  24
ENDBRANCH  22  23
ENDBRANCH  21  22
ENDBRANCH  19  20
ENDBRANCH  18  19
ENDBRANCH  16  17
ENDBRANCH   1  16
TORSDOF 17
ENDMDL
MODEL 9
REMARK VINA RESULT:      -6.2      2.818      4.761
REMARK  17 active torsions:
REMARK  status: ('A' for Active; 'I' for Inactive)
REMARK    1  A    between atoms: C_2  and  C_3 
REMARK    2  A    between atoms: C_3  and  C_4 
REMARK    3  A    between atoms: C_4  and  C_5 
REMARK    4  A    between atoms: C_5  and  C_6 
REMARK    5  A    between atoms: C_7  and  C_8 
REMARK    6  A    between atoms: C_8  and  C_9 
REMARK    7  A    between atoms: C_10  and  C_11 
REMARK    8  A    between atoms: C_11  and  C_12 
REMARK    9  A    between atoms: C_13  and  C_14 
REMARK   10  A    between atoms: C_15  and  C_16 
REMARK   11  A    between atoms: C_16  and  C_17 
REMARK   12  A    between atoms: C_16  and  O_23 
REMARK   13  A    between atoms: C_17  and  C_18 
REMARK   14  A    between atoms: C_18  and  C_19 
REMARK   15  A    between atoms: C_19  and  C_20 
REMARK   16  A    between atoms: C_20  and  O_22 
REMARK   17  A    between atoms: O_23  and  O_24 
ROOT
HETATM    1  C   UNL     1     -21.954  -6.337  -2.606  1.00  0.00    -0.023 C 
HETATM    2  C   UNL     1     -21.569  -7.307  -3.454  1.00  0.00    -0.004 C 
ENDROOT
BRANCH   2   3
HETATM    3  C   UNL     1     -21.211  -7.023  -4.821  1.00  0.00    -0.002 C 
HETATM    4  C   UNL     1     -20.562  -5.916  -5.199  1.00  0.00     0.008 C 
BRANCH   4   5
HETATM    5  C   UNL     1     -20.260  -5.589  -6.638  1.00  0.00     0.183 C 
BRANCH   5   6
HETATM    6  C   UNL     1     -21.547  -5.593  -7.479  1.00  0.00     0.040 C 
BRANCH   6   7
HETATM    7  C   UNL     1     -22.130  -4.198  -7.730  1.00  0.00     0.013 C 
BRANCH   7   8
HETATM    8  C   UNL     1     -22.302  -3.829  -9.205  1.00  0.00     0.110 C 
BRANCH   8   9
HETATM    9  C   UNL     1     -23.747  -4.041  -9.631  1.00  0.00     0.139 C 
HETATM   10  O   UNL     1     -24.108  -4.772 -10.535  1.00  0.00    -0.650 OA
BRANCH   9  11
HETATM   11  O   UNL     1     -24.613  -3.324  -8.896  1.00  0.00    -0.776 OA
HETATM   12  H   UNL     1     -25.096  -3.852  -8.241  1.00  0.00     0.167 HD
ENDBRANCH   9  11
ENDBRANCH   8   9
ENDBRANCH   7   8
ENDBRANCH   6   7
ENDBRANCH   5   6
BRANCH   5  13
HETATM   13  O   UNL     1     -19.669  -4.284  -6.709  1.00  0.00    -0.234 OA
BRANCH  13  14
HETATM   14  O   UNL     1     -18.458  -4.418  -7.506  1.00  0.00    -0.250 OA
HETATM   15  H   UNL     1     -18.803  -3.978  -8.300  1.00  0.00     0.253 HD
ENDBRANCH  13  14
ENDBRANCH   5  13
ENDBRANCH   4   5
ENDBRANCH   2   3
BRANCH   1  16
HETATM   16  C   UNL     1     -22.308  -6.581  -1.174  1.00  0.00     0.054 C 
BRANCH  16  17
HETATM   17  C   UNL     1     -21.515  -7.716  -0.593  1.00  0.00    -0.027 C 
HETATM   18  C   UNL     1     -21.803  -8.284   0.589  1.00  0.00    -0.027 C 
BRANCH  18  19
HETATM   19  C   UNL     1     -21.043  -9.441   1.164  1.00  0.00     0.053 C 
BRANCH  19  20
HETATM   20  C   UNL     1     -20.669 -10.432   0.105  1.00  0.00    -0.027 C 
HETATM   21  C   UNL     1     -19.807 -11.442   0.303  1.00  0.00    -0.030 C 
BRANCH  21  22
HETATM   22  C   UNL     1     -19.457 -12.437  -0.760  1.00  0.00     0.027 C 
BRANCH  22  23
HETATM   23  C   UNL     1     -18.252 -11.980  -1.579  1.00  0.00     0.004 C 
BRANCH  23  24
HETATM   24  C   UNL     1     -18.632 -11.801  -3.049  1.00  0.00    -0.000 C 
BRANCH  24  25
HETATM   25  C   UNL     1     -19.391 -10.496  -3.268  1.00  0.00    -0.005 C 
HETATM   26  C   UNL     1     -18.547  -9.294  -2.876  1.00  0.00     0.005 C 
ENDBRANCH  24  25
ENDBRANCH  23  24
ENDBRANCH  22  23
ENDBRANCH  21  22
ENDBRANCH  19  20
ENDBRANCH  18  19
ENDBRANCH  16  17
ENDBRANCH   1  16
TORSDOF 17
ENDMDL
