MODEL 1
REMARK VINA RESULT:      -9.7      0.000      0.000
REMARK  4 active torsions:
REMARK  status: ('A' for Active; 'I' for Inactive)
REMARK    1  A    between atoms: O_2  and  C_3 
REMARK    2  A    between atoms: C_7  and  N_8 
REMARK       I    between atoms: N_8  and  C_9 
REMARK    3  A    between atoms: C_9  and  C_11 
REMARK    4  A    between atoms: C_12  and  C_13 
ROOT
HETATM    1  N   UNL     1     -21.508  -4.381  -7.321  1.00  0.00    -0.324 N 
HETATM    2  C   UNL     1     -20.833  -5.450  -6.761  1.00  0.00     0.245 C 
HETATM    3  O   UNL     1     -20.224  -6.326  -7.366  1.00  0.00    -0.268 OA
HETATM    4  H   UNL     1     -21.955  -3.717  -6.710  1.00  0.00     0.169 HD
ENDROOT
BRANCH   2   5
HETATM    5  C   UNL     1     -20.885  -5.493  -5.273  1.00  0.00     0.075 C 
HETATM    6  C   UNL     1     -21.157  -6.684  -4.709  1.00  0.00     0.017 C 
BRANCH   6   7
HETATM    7  C   UNL     1     -21.278  -6.983  -3.278  1.00  0.00    -0.036 A 
HETATM    8  C   UNL     1     -22.127  -6.267  -2.428  1.00  0.00     0.013 A 
HETATM    9  C   UNL     1     -22.268  -6.643  -1.088  1.00  0.00     0.024 A 
HETATM   10  C   UNL     1     -21.572  -7.745  -0.596  1.00  0.00     0.034 A 
HETATM   11 CL   UNL     1     -21.760  -8.212   1.049  1.00  0.00    -0.084 Cl
HETATM   12  C   UNL     1     -20.732  -8.475  -1.431  1.00  0.00     0.024 A 
HETATM   13  C   UNL     1     -20.588  -8.097  -2.768  1.00  0.00     0.013 A 
ENDBRANCH   6   7
ENDBRANCH   2   5
BRANCH   1  14
HETATM   14  C   UNL     1     -21.589  -4.104  -8.715  1.00  0.00     0.037 A 
HETATM   15  C   UNL     1     -20.483  -4.158  -9.566  1.00  0.00     0.029 A 
HETATM   16  C   UNL     1     -20.589  -3.824 -10.915  1.00  0.00     0.005 A 
HETATM   17  C   UNL     1     -21.817  -3.439 -11.442  1.00  0.00     0.037 A 
HETATM   18  C   UNL     1     -22.945  -3.402 -10.622  1.00  0.00     0.070 A 
HETATM   19  C   UNL     1     -22.829  -3.740  -9.263  1.00  0.00     0.066 A 
BRANCH  18  20
HETATM   20  O   UNL     1     -24.202  -3.044 -11.040  1.00  0.00    -0.356 OA
HETATM   21  C   UNL     1     -24.401  -2.983 -12.451  1.00  0.00     0.210 C 
ENDBRANCH  18  20
ENDBRANCH   1  14
TORSDOF 4
ENDMDL
MODEL 2
REMARK VINA RESULT:      -9.0      4.017      8.888
REMARK  4 active torsions:
REMARK  status: ('A' for Active; 'I' for Inactive)
REMARK    1  A    between atoms: O_2  and  C_3 
REMARK    2  A    between atoms: C_7  and  N_8 
REMARK       I    between atoms: N_8  and  C_9 
REMARK    3  A    between atoms: C_9  and  C_11 
REMARK    4  A    between atoms: C_12  and  C_13 
ROOT
HETATM    1  N   UNL     1     -21.749  -5.646  -5.330  1.00  0.00    -0.324 N 
HETATM    2  C   UNL     1     -20.858  -4.785  -5.942  1.00  0.00     0.245 C 
HETATM    3  O   UNL     1     -19.675  -4.635  -5.657  1.00  0.00    -0.268 OA
HETATM    4  H   UNL     1     -22.696  -5.688  -5.673  1.00  0.00     0.169 HD
ENDROOT
BRANCH   2   5
HETATM    5  C   UNL     1     -21.448  -3.982  -7.051  1.00  0.00     0.075 C 
HETATM    6  C   UNL     1     -21.540  -4.581  -8.252  1.00  0.00     0.017 C 
BRANCH   6   7
HETATM    7  C   UNL     1     -22.063  -4.004  -9.495  1.00  0.00    -0.036 A 
HETATM    8  C   UNL     1     -21.258  -3.768 -10.614  1.00  0.00     0.013 A 
HETATM    9  C   UNL     1     -21.820  -3.292 -11.803  1.00  0.00     0.024 A 
HETATM   10  C   UNL     1     -23.192  -3.063 -11.882  1.00  0.00     0.034 A 
HETATM   11 CL   UNL     1     -23.881  -2.491 -13.351  1.00  0.00    -0.084 Cl
HETATM   12  C   UNL     1     -24.009  -3.302 -10.781  1.00  0.00     0.024 A 
HETATM   13  C   UNL     1     -23.446  -3.775  -9.594  1.00  0.00     0.013 A 
ENDBRANCH   6   7
ENDBRANCH   2   5
BRANCH   1  14
HETATM   14  C   UNL     1     -21.429  -6.533  -4.264  1.00  0.00     0.037 A 
HETATM   15  C   UNL     1     -20.643  -7.676  -4.436  1.00  0.00     0.029 A 
HETATM   16  C   UNL     1     -20.398  -8.553  -3.381  1.00  0.00     0.005 A 
HETATM   17  C   UNL     1     -20.927  -8.292  -2.123  1.00  0.00     0.037 A 
HETATM   18  C   UNL     1     -21.692  -7.145  -1.913  1.00  0.00     0.070 A 
HETATM   19  C   UNL     1     -21.935  -6.266  -2.983  1.00  0.00     0.066 A 
BRANCH  18  20
HETATM   20  O   UNL     1     -22.255  -6.790  -0.713  1.00  0.00    -0.356 OA
HETATM   21  C   UNL     1     -22.764  -7.859   0.083  1.00  0.00     0.210 C 
ENDBRANCH  18  20
ENDBRANCH   1  14
TORSDOF 4
ENDMDL
MODEL 3
REMARK VINA RESULT:      -8.7      4.001      8.946
REMARK  4 active torsions:
REMARK  status: ('A' for Active; 'I' for Inactive)
REMARK    1  A    between atoms: O_2  and  C_3 
REMARK    2  A    between atoms: C_7  and  N_8 
REMARK       I    between atoms: N_8  and  C_9 
REMARK    3  A    between atoms: C_9  and  C_11 
REMARK    4  A    between atoms: C_12  and  C_13 
ROOT
HETATM    1  N   UNL     1     -21.350  -6.530  -5.329  1.00  0.00    -0.324 N 
HETATM    2  C   UNL     1     -20.717  -5.407  -5.826  1.00  0.00     0.245 C 
HETATM    3  O   UNL     1     -20.112  -4.563  -5.175  1.00  0.00    -0.268 OA
HETATM    4  H   UNL     1     -21.799  -7.160  -5.975  1.00  0.00     0.169 HD
ENDROOT
BRANCH   2   5
HETATM    5  C   UNL     1     -20.812  -5.257  -7.306  1.00  0.00     0.075 C 
HETATM    6  C   UNL     1     -21.763  -4.428  -7.772  1.00  0.00     0.017 C 
BRANCH   6   7
HETATM    7  C   UNL     1     -22.068  -4.124  -9.174  1.00  0.00    -0.036 A 
HETATM    8  C   UNL     1     -23.339  -3.725  -9.600  1.00  0.00     0.013 A 
HETATM    9  C   UNL     1     -23.559  -3.368 -10.934  1.00  0.00     0.024 A 
HETATM   10  C   UNL     1     -22.506  -3.395 -11.846  1.00  0.00     0.034 A 
HETATM   11 CL   UNL     1     -22.778  -2.942 -13.483  1.00  0.00    -0.084 Cl
HETATM   12  C   UNL     1     -21.233  -3.779 -11.436  1.00  0.00     0.024 A 
HETATM   13  C   UNL     1     -21.014  -4.139 -10.104  1.00  0.00     0.013 A 
ENDBRANCH   6   7
ENDBRANCH   2   5
BRANCH   1  14
HETATM   14  C   UNL     1     -21.386  -6.910  -3.958  1.00  0.00     0.037 A 
HETATM   15  C   UNL     1     -22.118  -6.212  -2.994  1.00  0.00     0.029 A 
HETATM   16  C   UNL     1     -22.084  -6.579  -1.650  1.00  0.00     0.005 A 
HETATM   17  C   UNL     1     -21.321  -7.668  -1.246  1.00  0.00     0.037 A 
HETATM   18  C   UNL     1     -20.601  -8.402  -2.189  1.00  0.00     0.070 A 
HETATM   19  C   UNL     1     -20.640  -8.025  -3.542  1.00  0.00     0.066 A 
BRANCH  18  20
HETATM   20  O   UNL     1     -19.823  -9.495  -1.900  1.00  0.00    -0.356 OA
HETATM   21  C   UNL     1     -18.625  -9.633  -2.662  1.00  0.00     0.210 C 
ENDBRANCH  18  20
ENDBRANCH   1  14
TORSDOF 4
ENDMDL
MODEL 4
REMARK VINA RESULT:      -8.3      1.135      1.873
REMARK  4 active torsions:
REMARK  status: ('A' for Active; 'I' for Inactive)
REMARK    1  A    between atoms: O_2  and  C_3 
REMARK    2  A    between atoms: C_7  and  N_8 
REMARK       I    between atoms: N_8  and  C_9 
REMARK    3  A    between atoms: C_9  and  C_11 
REMARK    4  A    between atoms: C_12  and  C_13 
ROOT
HETATM    1  N   UNL     1     -22.330  -4.629  -6.844  1.00  0.00    -0.324 N 
HETATM    2  C   UNL     1     -21.489  -5.669  -6.497  1.00  0.00     0.245 C 
HETATM    3  O   UNL     1     -20.979  -6.480  -7.262  1.00  0.00    -0.268 OA
HETATM    4  H   UNL     1     -22.669  -4.017  -6.118  1.00  0.00     0.169 HD
ENDROOT
BRANCH   2   5
HETATM    5  C   UNL     1     -21.209  -5.768  -5.036  1.00  0.00     0.075 C 
HETATM    6  C   UNL     1     -21.706  -6.840  -4.394  1.00  0.00     0.017 C 
BRANCH   6   7
HETATM    7  C   UNL     1     -21.585  -7.156  -2.967  1.00  0.00    -0.036 A 
HETATM    8  C   UNL     1     -22.333  -6.501  -1.983  1.00  0.00     0.013 A 
HETATM    9  C   UNL     1     -22.240  -6.895  -0.644  1.00  0.00     0.024 A 
HETATM   10  C   UNL     1     -21.410  -7.954  -0.285  1.00  0.00     0.034 A 
HETATM   11 CL   UNL     1     -21.310  -8.445   1.361  1.00  0.00    -0.084 Cl
HETATM   12  C   UNL     1     -20.667  -8.624  -1.253  1.00  0.00     0.024 A 
HETATM   13  C   UNL     1     -20.757  -8.228  -2.589  1.00  0.00     0.013 A 
ENDBRANCH   6   7
ENDBRANCH   2   5
BRANCH   1  14
HETATM   14  C   UNL     1     -22.732  -4.309  -8.171  1.00  0.00     0.037 A 
HETATM   15  C   UNL     1     -24.053  -4.006  -8.512  1.00  0.00     0.029 A 
HETATM   16  C   UNL     1     -24.421  -3.753  -9.832  1.00  0.00     0.005 A 
HETATM   17  C   UNL     1     -23.464  -3.788 -10.840  1.00  0.00     0.037 A 
HETATM   18  C   UNL     1     -22.132  -4.060 -10.526  1.00  0.00     0.070 A 
HETATM   19  C   UNL     1     -21.770  -4.314  -9.192  1.00  0.00     0.066 A 
BRANCH  18  20
HETATM   20  O   UNL     1     -21.110  -4.112 -11.439  1.00  0.00    -0.356 OA
HETATM   21  C   UNL     1     -20.271  -2.960 -11.510  1.00  0.00     0.210 C 
ENDBRANCH  18  20
ENDBRANCH   1  14
TORSDOF 4
ENDMDL
MODEL 5
REMARK VINA RESULT:      -8.1      4.148      9.394
REMARK  4 active torsions:
REMARK  status: ('A' for Active; 'I' for Inactive)
REMARK    1  A    between atoms: O_2  and  C_3 
REMARK    2  A    between atoms: C_7  and  N_8 
REMARK       I    between atoms: N_8  and  C_9 
REMARK    3  A    between atoms: C_9  and  C_11 
REMARK    4  A    between atoms: C_12  and  C_13 
ROOT
HETATM    1  N   UNL     1     -21.582  -7.834  -3.162  1.00  0.00    -0.324 N 
HETATM    2  C   UNL     1     -21.314  -6.557  -3.616  1.00  0.00     0.245 C 
HETATM    3  O   UNL     1     -21.066  -5.575  -2.925  1.00  0.00    -0.268 OA
HETATM    4  H   UNL     1     -21.753  -8.563  -3.838  1.00  0.00     0.169 HD
ENDROOT
BRANCH   2   5
HETATM    5  C   UNL     1     -21.345  -6.416  -5.099  1.00  0.00     0.075 C 
HETATM    6  C   UNL     1     -21.063  -5.200  -5.600  1.00  0.00     0.017 C 
BRANCH   6   7
HETATM    7  C   UNL     1     -21.042  -4.803  -7.011  1.00  0.00    -0.036 A 
HETATM    8  C   UNL     1     -19.970  -5.094  -7.861  1.00  0.00     0.013 A 
HETATM    9  C   UNL     1     -20.033  -4.765  -9.219  1.00  0.00     0.024 A 
HETATM   10  C   UNL     1     -21.174  -4.156  -9.736  1.00  0.00     0.034 A 
HETATM   11 CL   UNL     1     -21.254  -3.766 -11.410  1.00  0.00    -0.084 Cl
HETATM   12  C   UNL     1     -22.254  -3.869  -8.907  1.00  0.00     0.024 A 
HETATM   13  C   UNL     1     -22.190  -4.195  -7.550  1.00  0.00     0.013 A 
ENDBRANCH   6   7
ENDBRANCH   2   5
BRANCH   1  14
HETATM   14  C   UNL     1     -21.592  -8.233  -1.796  1.00  0.00     0.037 A 
HETATM   15  C   UNL     1     -22.265  -7.518  -0.801  1.00  0.00     0.029 A 
HETATM   16  C   UNL     1     -22.205  -7.907   0.536  1.00  0.00     0.005 A 
HETATM   17  C   UNL     1     -21.476  -9.032   0.902  1.00  0.00     0.037 A 
HETATM   18  C   UNL     1     -20.817  -9.782  -0.073  1.00  0.00     0.070 A 
HETATM   19  C   UNL     1     -20.882  -9.383  -1.419  1.00  0.00     0.066 A 
BRANCH  18  20
HETATM   20  O   UNL     1     -20.077 -10.910   0.178  1.00  0.00    -0.356 OA
HETATM   21  C   UNL     1     -19.431 -11.500  -0.949  1.00  0.00     0.210 C 
ENDBRANCH  18  20
ENDBRANCH   1  14
TORSDOF 4
ENDMDL
MODEL 6
REMARK VINA RESULT:      -7.4      1.994      2.585
REMARK  4 active torsions:
REMARK  status: ('A' for Active; 'I' for Inactive)
REMARK    1  A    between atoms: O_2  and  C_3 
REMARK    2  A    between atoms: C_7  and  N_8 
REMARK       I    between atoms: N_8  and  C_9 
REMARK    3  A    between atoms: C_9  and  C_11 
REMARK    4  A    between atoms: C_12  and  C_13 
ROOT
HETATM    1  N   UNL     1     -20.877  -5.481  -7.821  1.00  0.00    -0.324 N 
HETATM    2  C   UNL     1     -21.339  -5.043  -6.595  1.00  0.00     0.245 C 
HETATM    3  O   UNL     1     -22.042  -4.060  -6.389  1.00  0.00    -0.268 OA
HETATM    4  H   UNL     1     -20.318  -6.320  -7.858  1.00  0.00     0.169 HD
ENDROOT
BRANCH   2   5
HETATM    5  C   UNL     1     -20.908  -5.885  -5.443  1.00  0.00     0.075 C 
HETATM    6  C   UNL     1     -20.448  -7.117  -5.730  1.00  0.00     0.017 C 
BRANCH   6   7
HETATM    7  C   UNL     1     -19.983  -8.135  -4.782  1.00  0.00    -0.036 A 
HETATM    8  C   UNL     1     -18.987  -9.064  -5.102  1.00  0.00     0.013 A 
HETATM    9  C   UNL     1     -18.521  -9.962  -4.137  1.00  0.00     0.024 A 
HETATM   10  C   UNL     1     -19.038  -9.927  -2.844  1.00  0.00     0.034 A 
HETATM   11 CL   UNL     1     -18.451 -11.024  -1.656  1.00  0.00    -0.084 Cl
HETATM   12  C   UNL     1     -20.021  -9.002  -2.506  1.00  0.00     0.024 A 
HETATM   13  C   UNL     1     -20.489  -8.107  -3.471  1.00  0.00     0.013 A 
ENDBRANCH   6   7
ENDBRANCH   2   5
BRANCH   1  14
HETATM   14  C   UNL     1     -21.165  -4.866  -9.072  1.00  0.00     0.037 A 
HETATM   15  C   UNL     1     -20.170  -4.446  -9.959  1.00  0.00     0.029 A 
HETATM   16  C   UNL     1     -20.488  -3.795 -11.150  1.00  0.00     0.005 A 
HETATM   17  C   UNL     1     -21.818  -3.563 -11.482  1.00  0.00     0.037 A 
HETATM   18  C   UNL     1     -22.834  -3.995 -10.629  1.00  0.00     0.070 A 
HETATM   19  C   UNL     1     -22.505  -4.651  -9.430  1.00  0.00     0.066 A 
BRANCH  18  20
HETATM   20  O   UNL     1     -24.175  -3.824 -10.863  1.00  0.00    -0.356 OA
HETATM   21  C   UNL     1     -24.935  -3.277  -9.788  1.00  0.00     0.210 C 
ENDBRANCH  18  20
ENDBRANCH   1  14
TORSDOF 4
ENDMDL
MODEL 7
REMARK VINA RESULT:      -7.3      4.190      9.039
REMARK  4 active torsions:
REMARK  status: ('A' for Active; 'I' for Inactive)
REMARK    1  A    between atoms: O_2  and  C_3 
REMARK    2  A    between atoms: C_7  and  N_8 
REMARK       I    between atoms: N_8  and  C_9 
REMARK    3  A    between atoms: C_9  and  C_11 
REMARK    4  A    between atoms: C_12  and  C_13 
ROOT
HETATM    1  N   UNL     1     -21.564  -8.114  -4.081  1.00  0.00    -0.324 N 
HETATM    2  C   UNL     1     -21.600  -6.733  -4.071  1.00  0.00     0.245 C 
HETATM    3  O   UNL     1     -21.295  -6.002  -3.135  1.00  0.00    -0.268 OA
HETATM    4  H   UNL     1     -21.824  -8.600  -4.925  1.00  0.00     0.169 HD
ENDROOT
BRANCH   2   5
HETATM    5  C   UNL     1     -22.066  -6.125  -5.350  1.00  0.00     0.075 C 
HETATM    6  C   UNL     1     -21.115  -5.732  -6.217  1.00  0.00     0.017 C 
BRANCH   6   7
HETATM    7  C   UNL     1     -21.312  -5.097  -7.524  1.00  0.00    -0.036 A 
HETATM    8  C   UNL     1     -22.487  -4.416  -7.862  1.00  0.00     0.013 A 
HETATM    9  C   UNL     1     -22.594  -3.758  -9.092  1.00  0.00     0.024 A 
HETATM   10  C   UNL     1     -21.524  -3.766  -9.983  1.00  0.00     0.034 A 
HETATM   11 CL   UNL     1     -21.655  -2.943 -11.487  1.00  0.00    -0.084 Cl
HETATM   12  C   UNL     1     -20.344  -4.429  -9.657  1.00  0.00     0.024 A 
HETATM   13  C   UNL     1     -20.238  -5.089  -8.431  1.00  0.00     0.013 A 
ENDBRANCH   6   7
ENDBRANCH   2   5
BRANCH   1  14
HETATM   14  C   UNL     1     -21.137  -8.930  -2.996  1.00  0.00     0.037 A 
HETATM   15  C   UNL     1     -21.918  -9.150  -1.857  1.00  0.00     0.029 A 
HETATM   16  C   UNL     1     -21.443  -9.908  -0.789  1.00  0.00     0.005 A 
HETATM   17  C   UNL     1     -20.176 -10.474  -0.846  1.00  0.00     0.037 A 
HETATM   18  C   UNL     1     -19.383 -10.296  -1.980  1.00  0.00     0.070 A 
HETATM   19  C   UNL     1     -19.869  -9.529  -3.054  1.00  0.00     0.066 A 
BRANCH  18  20
HETATM   20  O   UNL     1     -18.124 -10.814  -2.143  1.00  0.00    -0.356 OA
HETATM   21  C   UNL     1     -17.162  -9.951  -2.746  1.00  0.00     0.210 C 
ENDBRANCH  18  20
ENDBRANCH   1  14
TORSDOF 4
ENDMDL
MODEL 8
REMARK VINA RESULT:      -7.2      4.880      9.683
REMARK  4 active torsions:
REMARK  status: ('A' for Active; 'I' for Inactive)
REMARK    1  A    between atoms: O_2  and  C_3 
REMARK    2  A    between atoms: C_7  and  N_8 
REMARK       I    between atoms: N_8  and  C_9 
REMARK    3  A    between atoms: C_9  and  C_11 
REMARK    4  A    between atoms: C_12  and  C_13 
ROOT
HETATM    1  N   UNL     1     -21.812  -8.732  -1.990  1.00  0.00    -0.324 N 
HETATM    2  C   UNL     1     -21.960  -7.423  -1.570  1.00  0.00     0.245 C 
HETATM    3  O   UNL     1     -22.286  -7.049  -0.449  1.00  0.00    -0.268 OA
HETATM    4  H   UNL     1     -21.520  -8.907  -2.938  1.00  0.00     0.169 HD
ENDROOT
BRANCH   2   5
HETATM    5  C   UNL     1     -21.685  -6.409  -2.626  1.00  0.00     0.075 C 
HETATM    6  C   UNL     1     -21.382  -6.874  -3.851  1.00  0.00     0.017 C 
BRANCH   6   7
HETATM    7  C   UNL     1     -21.058  -6.087  -5.046  1.00  0.00    -0.036 A 
HETATM    8  C   UNL     1     -20.187  -4.992  -5.014  1.00  0.00     0.013 A 
HETATM    9  C   UNL     1     -19.847  -4.324  -6.195  1.00  0.00     0.024 A 
HETATM   10  C   UNL     1     -20.364  -4.756  -7.414  1.00  0.00     0.034 A 
HETATM   11 CL   UNL     1     -19.932  -3.941  -8.866  1.00  0.00    -0.084 Cl
HETATM   12  C   UNL     1     -21.223  -5.850  -7.465  1.00  0.00     0.024 A 
HETATM   13  C   UNL     1     -21.565  -6.515  -6.285  1.00  0.00     0.013 A 
ENDBRANCH   6   7
ENDBRANCH   2   5
BRANCH   1  14
HETATM   14  C   UNL     1     -21.995  -9.880  -1.169  1.00  0.00     0.037 A 
HETATM   15  C   UNL     1     -23.255 -10.337  -0.771  1.00  0.00     0.029 A 
HETATM   16  C   UNL     1     -23.393 -11.432   0.080  1.00  0.00     0.005 A 
HETATM   17  C   UNL     1     -22.265 -12.101   0.541  1.00  0.00     0.037 A 
HETATM   18  C   UNL     1     -20.996 -11.686   0.139  1.00  0.00     0.070 A 
HETATM   19  C   UNL     1     -20.865 -10.581  -0.720  1.00  0.00     0.066 A 
BRANCH  18  20
HETATM   20  O   UNL     1     -19.821 -12.278   0.528  1.00  0.00    -0.356 OA
HETATM   21  C   UNL     1     -19.212 -13.150  -0.423  1.00  0.00     0.210 C 
ENDBRANCH  18  20
ENDBRANCH   1  14
TORSDOF 4
ENDMDL
MODEL 9
REMARK VINA RESULT:      -6.9      6.176      9.044
REMARK  4 active torsions:
REMARK  status: ('A' for Active; 'I' for Inactive)
REMARK    1  A    between atoms: O_2  and  C_3 
REMARK    2  A    between atoms: C_7  and  N_8 
REMARK       I    between atoms: N_8  and  C_9 
REMARK    3  A    between atoms: C_9  and  C_11 
REMARK    4  A    between atoms: C_12  and  C_13 
ROOT
HETATM    1  N   UNL     1     -19.602  -8.528  -3.512  1.00  0.00    -0.324 N 
HETATM    2  C   UNL     1     -19.764  -8.769  -4.863  1.00  0.00     0.245 C 
HETATM    3  O   UNL     1     -20.773  -8.553  -5.526  1.00  0.00    -0.268 OA
HETATM    4  H   UNL     1     -18.712  -8.733  -3.086  1.00  0.00     0.169 HD
ENDROOT
BRANCH   2   5
HETATM    5  C   UNL     1     -18.564  -9.349  -5.528  1.00  0.00     0.075 C 
HETATM    6  C   UNL     1     -17.946 -10.360  -4.891  1.00  0.00     0.017 C 
BRANCH   6   7
HETATM    7  C   UNL     1     -16.747 -11.083  -5.326  1.00  0.00    -0.036 A 
HETATM    8  C   UNL     1     -16.718 -11.867  -6.485  1.00  0.00     0.013 A 
HETATM    9  C   UNL     1     -15.527 -12.472  -6.901  1.00  0.00     0.024 A 
HETATM   10  C   UNL     1     -14.357 -12.284  -6.168  1.00  0.00     0.034 A 
HETATM   11 CL   UNL     1     -12.892 -13.017  -6.691  1.00  0.00    -0.084 Cl
HETATM   12  C   UNL     1     -14.366 -11.499  -5.019  1.00  0.00     0.024 A 
HETATM   13  C   UNL     1     -15.556 -10.898  -4.602  1.00  0.00     0.013 A 
ENDBRANCH   6   7
ENDBRANCH   2   5
BRANCH   1  14
HETATM   14  C   UNL     1     -20.588  -7.959  -2.657  1.00  0.00     0.037 A 
HETATM   15  C   UNL     1     -21.220  -6.743  -2.930  1.00  0.00     0.029 A 
HETATM   16  C   UNL     1     -22.140  -6.189  -2.041  1.00  0.00     0.005 A 
HETATM   17  C   UNL     1     -22.454  -6.852  -0.861  1.00  0.00     0.037 A 
HETATM   18  C   UNL     1     -21.860  -8.082  -0.574  1.00  0.00     0.070 A 
HETATM   19  C   UNL     1     -20.934  -8.634  -1.476  1.00  0.00     0.066 A 
BRANCH  18  20
HETATM   20  O   UNL     1     -22.104  -8.822   0.555  1.00  0.00    -0.356 OA
HETATM   21  C   UNL     1     -21.042  -9.668   0.993  1.00  0.00     0.210 C 
ENDBRANCH  18  20
ENDBRANCH   1  14
TORSDOF 4
ENDMDL
