REMARK  4 active torsions:
REMARK  status: ('A' for Active; 'I' for Inactive)
REMARK    1  A    between atoms: O_2  and  C_3 
REMARK    2  A    between atoms: C_7  and  N_8 
REMARK       I    between atoms: N_8  and  C_9 
REMARK    3  A    between atoms: C_9  and  C_11 
REMARK    4  A    between atoms: C_12  and  C_13 
ROOT
HETATM    1  N   UNL     1       6.104   0.420  -3.324  1.00  0.00    -0.324 N 
HETATM    2  C   UNL     1       6.930   1.156  -4.152  1.00  0.00     0.245 C 
HETATM    3  O   UNL     1       6.706   2.277  -4.596  1.00  0.00    -0.268 OA
HETATM    4  H   UNL     1       6.414  -0.487  -3.012  1.00  0.00     0.169 HD
ENDROOT
BRANCH   2   5
HETATM    5  C   UNL     1       8.204   0.471  -4.510  1.00  0.00     0.075 C 
HETATM    6  C   UNL     1       9.047   1.140  -5.317  1.00  0.00     0.017 C 
BRANCH   6   7
HETATM    7  C   UNL     1      10.345   0.681  -5.823  1.00  0.00    -0.036 A 
HETATM    8  C   UNL     1      10.632  -0.670  -6.047  1.00  0.00     0.013 A 
HETATM    9  C   UNL     1      11.856  -1.050  -6.607  1.00  0.00     0.024 A 
HETATM   10  C   UNL     1      12.793  -0.081  -6.958  1.00  0.00     0.034 A 
HETATM   11 CL   UNL     1      14.291  -0.552  -7.660  1.00  0.00    -0.084 Cl
HETATM   12  C   UNL     1      12.519   1.268  -6.752  1.00  0.00     0.024 A 
HETATM   13  C   UNL     1      11.298   1.647  -6.190  1.00  0.00     0.013 A 
ENDBRANCH   6   7
ENDBRANCH   2   5
BRANCH   1  14
HETATM   14  C   UNL     1       4.846   0.858  -2.823  1.00  0.00     0.037 A 
HETATM   15  C   UNL     1       4.276   2.086  -3.169  1.00  0.00     0.029 A 
HETATM   16  C   UNL     1       3.069   2.507  -2.614  1.00  0.00     0.005 A 
HETATM   17  C   UNL     1       2.400   1.695  -1.706  1.00  0.00     0.037 A 
HETATM   18  C   UNL     1       2.930   0.451  -1.362  1.00  0.00     0.070 A 
HETATM   19  C   UNL     1       4.148   0.034  -1.926  1.00  0.00     0.066 A 
BRANCH  18  20
HETATM   20  O   UNL     1       2.350  -0.429  -0.484  1.00  0.00    -0.356 OA
HETATM   21  C   UNL     1       1.135   0.002   0.127  1.00  0.00     0.210 C 
ENDBRANCH  18  20
ENDBRANCH   1  14
TORSDOF 4
