REMARK  4 active torsions:
REMARK  status: ('A' for Active; 'I' for Inactive)
REMARK       I    between atoms: C_2  and  N_3 
REMARK       I    between atoms: C_2  and  N_15 
REMARK    1  A    between atoms: N_3  and  C_4 
REMARK    2  A    between atoms: C_4  and  C_5 
REMARK    3  A    between atoms: C_8  and  C_9 
REMARK    4  A    between atoms: N_15  and  C_16 
ROOT
HETATM    1  O   UNL     1       1.251  -0.128   0.184  1.00  0.00    -0.247 OA
HETATM    2  C   UNL     1       2.449  -0.312  -0.008  1.00  0.00     0.321 C 
HETATM    3  N   UNL     1       3.030  -0.018  -1.220  1.00  0.00    -0.339 N 
HETATM    4  N   UNL     1       3.355  -0.849   0.892  1.00  0.00    -0.308 N 
HETATM    5  H   UNL     1       4.037  -0.027  -1.307  1.00  0.00     0.164 HD
HETATM    6  H   UNL     1       4.213  -1.178   0.477  1.00  0.00     0.170 HD
ENDROOT
BRANCH   3   7
HETATM    7  C   UNL     1       2.263   0.526  -2.321  1.00  0.00     0.162 C 
BRANCH   7   8
HETATM    8  C   UNL     1       2.682   1.938  -2.659  1.00  0.00    -0.040 A 
HETATM    9  C   UNL     1       3.248   2.243  -3.905  1.00  0.00     0.009 A 
HETATM   10  C   UNL     1       3.614   3.556  -4.219  1.00  0.00     0.017 A 
HETATM   11  C   UNL     1       3.418   4.591  -3.293  1.00  0.00     0.047 A 
HETATM   12  C   UNL     1       2.844   4.287  -2.051  1.00  0.00     0.017 A 
HETATM   13  C   UNL     1       2.478   2.976  -1.738  1.00  0.00     0.009 A 
BRANCH  11  14
HETATM   14  C   UNL     1       3.810   6.014  -3.615  1.00  0.00     0.417 C 
HETATM   15  F   UNL     1       4.362   6.163  -4.852  1.00  0.00    -0.166 F 
HETATM   16  F   UNL     1       2.752   6.870  -3.575  1.00  0.00    -0.166 F 
HETATM   17  F   UNL     1       4.727   6.512  -2.739  1.00  0.00    -0.166 F 
ENDBRANCH  11  14
ENDBRANCH   7   8
ENDBRANCH   3   7
BRANCH   4  18
HETATM   18  C   UNL     1       3.047  -1.356   2.186  1.00  0.00     0.047 C 
HETATM   19  C   UNL     1       1.842  -1.024   2.819  1.00  0.00     0.030 C 
HETATM   20  C   UNL     1       1.439  -1.657   3.991  1.00  0.00     0.003 C 
HETATM   21  C   UNL     1       2.206  -2.680   4.520  1.00  0.00     0.014 C 
HETATM   22  C   UNL     1       3.444  -3.000   3.945  1.00  0.00    -0.008 C 
HETATM   23  C   UNL     1       4.227  -4.029   4.472  1.00  0.00     0.100 C 
HETATM   24  C   UNL     1       3.933  -2.272   2.835  1.00  0.00     0.004 C 
HETATM   25  N   UNL     1       5.494  -4.294   4.099  1.00  0.00    -0.374 N 
HETATM   26  C   UNL     1       6.010  -3.497   3.145  1.00  0.00     0.088 C 
ATOM     27  HN  UNL     1       6.031  -5.055   4.515  1.00  0.00     0.164 HD
HETATM   28  C   UNL     1       5.280  -2.523   2.471  1.00  0.00     0.031 C 
ENDBRANCH   4  18
TORSDOF 4
