MODEL 1
REMARK VINA RESULT:     -11.2      0.000      0.000
REMARK  4 active torsions:
REMARK  status: ('A' for Active; 'I' for Inactive)
REMARK       I    between atoms: C_2  and  N_3 
REMARK       I    between atoms: C_2  and  N_15 
REMARK    1  A    between atoms: N_3  and  C_4 
REMARK    2  A    between atoms: C_4  and  C_5 
REMARK    3  A    between atoms: C_8  and  C_9 
REMARK    4  A    between atoms: N_15  and  C_16 
ROOT
HETATM    1  O   UNL     1     -19.637  -6.373  -7.506  1.00  0.00    -0.247 OA
HETATM    2  C   UNL     1     -20.669  -5.941  -7.000  1.00  0.00     0.321 C 
HETATM    3  N   UNL     1     -21.088  -6.369  -5.761  1.00  0.00    -0.339 N 
HETATM    4  N   UNL     1     -21.550  -5.036  -7.569  1.00  0.00    -0.308 N 
HETATM    5  H   UNL     1     -21.847  -5.889  -5.297  1.00  0.00     0.164 HD
HETATM    6  H   UNL     1     -22.462  -5.012  -7.139  1.00  0.00     0.170 HD
ENDROOT
BRANCH   3   7
HETATM    7  C   UNL     1     -20.335  -7.339  -4.995  1.00  0.00     0.162 C 
BRANCH   7   8
HETATM    8  C   UNL     1     -20.907  -7.534  -3.610  1.00  0.00    -0.040 A 
HETATM    9  C   UNL     1     -21.566  -6.487  -2.949  1.00  0.00     0.009 A 
HETATM   10  C   UNL     1     -22.113  -6.680  -1.676  1.00  0.00     0.017 A 
HETATM   11  C   UNL     1     -22.013  -7.926  -1.040  1.00  0.00     0.047 A 
HETATM   12  C   UNL     1     -21.362  -8.975  -1.704  1.00  0.00     0.017 A 
HETATM   13  C   UNL     1     -20.817  -8.781  -2.976  1.00  0.00     0.009 A 
BRANCH  11  14
HETATM   14  C   UNL     1     -22.595  -8.151   0.336  1.00  0.00     0.417 C 
HETATM   15  F   UNL     1     -21.766  -7.773   1.349  1.00  0.00    -0.166 F 
HETATM   16  F   UNL     1     -23.756  -7.468   0.531  1.00  0.00    -0.166 F 
HETATM   17  F   UNL     1     -22.888  -9.461   0.569  1.00  0.00    -0.166 F 
ENDBRANCH  11  14
ENDBRANCH   7   8
ENDBRANCH   3   7
BRANCH   4  18
HETATM   18  C   UNL     1     -21.459  -4.494  -8.882  1.00  0.00     0.047 C 
HETATM   19  C   UNL     1     -20.237  -4.470  -9.566  1.00  0.00     0.030 C 
HETATM   20  C   UNL     1     -20.164  -4.123 -10.912  1.00  0.00     0.003 C 
HETATM   21  C   UNL     1     -21.324  -3.854 -11.617  1.00  0.00     0.014 C 
HETATM   22  C   UNL     1     -22.558  -3.815 -10.953  1.00  0.00    -0.008 C 
HETATM   23  C   UNL     1     -23.734  -3.542 -11.654  1.00  0.00     0.100 C 
HETATM   24  C   UNL     1     -22.632  -4.028  -9.556  1.00  0.00     0.004 C 
HETATM   25  N   UNL     1     -24.932  -3.315 -11.081  1.00  0.00    -0.374 N 
HETATM   26  C   UNL     1     -24.965  -3.369  -9.736  1.00  0.00     0.088 C 
ATOM     27  HN  UNL     1     -25.765  -3.115 -11.634  1.00  0.00     0.164 HD
HETATM   28  C   UNL     1     -23.882  -3.749  -8.949  1.00  0.00     0.031 C 
ENDBRANCH   4  18
TORSDOF 4
ENDMDL
MODEL 2
REMARK VINA RESULT:     -10.7      1.121      2.324
REMARK  4 active torsions:
REMARK  status: ('A' for Active; 'I' for Inactive)
REMARK       I    between atoms: C_2  and  N_3 
REMARK       I    between atoms: C_2  and  N_15 
REMARK    1  A    between atoms: N_3  and  C_4 
REMARK    2  A    between atoms: C_4  and  C_5 
REMARK    3  A    between atoms: C_8  and  C_9 
REMARK    4  A    between atoms: N_15  and  C_16 
ROOT
HETATM    1  O   UNL     1     -21.188  -6.477  -7.499  1.00  0.00    -0.247 OA
HETATM    2  C   UNL     1     -21.504  -5.551  -6.760  1.00  0.00     0.321 C 
HETATM    3  N   UNL     1     -21.159  -5.552  -5.428  1.00  0.00    -0.339 N 
HETATM    4  N   UNL     1     -22.248  -4.435  -7.108  1.00  0.00    -0.308 N 
HETATM    5  H   UNL     1     -21.290  -4.715  -4.877  1.00  0.00     0.164 HD
HETATM    6  H   UNL     1     -22.639  -3.931  -6.327  1.00  0.00     0.170 HD
ENDROOT
BRANCH   3   7
HETATM    7  C   UNL     1     -20.406  -6.638  -4.837  1.00  0.00     0.162 C 
BRANCH   7   8
HETATM    8  C   UNL     1     -20.963  -7.048  -3.493  1.00  0.00    -0.040 A 
HETATM    9  C   UNL     1     -21.700  -6.146  -2.713  1.00  0.00     0.009 A 
HETATM   10  C   UNL     1     -22.231  -6.539  -1.480  1.00  0.00     0.017 A 
HETATM   11  C   UNL     1     -22.038  -7.844  -1.005  1.00  0.00     0.047 A 
HETATM   12  C   UNL     1     -21.309  -8.748  -1.789  1.00  0.00     0.017 A 
HETATM   13  C   UNL     1     -20.779  -8.356  -3.021  1.00  0.00     0.009 A 
BRANCH  11  14
HETATM   14  C   UNL     1     -22.602  -8.284   0.326  1.00  0.00     0.417 C 
HETATM   15  F   UNL     1     -22.896  -9.614   0.383  1.00  0.00    -0.166 F 
HETATM   16  F   UNL     1     -21.749  -8.047   1.360  1.00  0.00    -0.166 F 
HETATM   17  F   UNL     1     -23.759  -7.637   0.640  1.00  0.00    -0.166 F 
ENDBRANCH  11  14
ENDBRANCH   7   8
ENDBRANCH   3   7
BRANCH   4  18
HETATM   18  C   UNL     1     -22.847  -4.192  -8.377  1.00  0.00     0.047 C 
HETATM   19  C   UNL     1     -24.235  -4.048  -8.499  1.00  0.00     0.030 C 
HETATM   20  C   UNL     1     -24.818  -3.623  -9.689  1.00  0.00     0.003 C 
HETATM   21  C   UNL     1     -24.018  -3.275 -10.763  1.00  0.00     0.014 C 
HETATM   22  C   UNL     1     -22.630  -3.460 -10.694  1.00  0.00    -0.008 C 
HETATM   23  C   UNL     1     -21.813  -3.115 -11.773  1.00  0.00     0.100 C 
HETATM   24  C   UNL     1     -22.034  -4.022  -9.541  1.00  0.00     0.004 C 
HETATM   25  N   UNL     1     -20.503  -3.412 -11.866  1.00  0.00    -0.374 N 
HETATM   26  C   UNL     1     -19.972  -4.085 -10.828  1.00  0.00     0.088 C 
ATOM     27  HN  UNL     1     -19.944  -3.143 -12.676  1.00  0.00     0.164 HD
HETATM   28  C   UNL     1     -20.665  -4.373  -9.656  1.00  0.00     0.031 C 
ENDBRANCH   4  18
TORSDOF 4
ENDMDL
MODEL 3
REMARK VINA RESULT:     -10.6      5.239      9.702
REMARK  4 active torsions:
REMARK  status: ('A' for Active; 'I' for Inactive)
REMARK       I    between atoms: C_2  and  N_3 
REMARK       I    between atoms: C_2  and  N_15 
REMARK    1  A    between atoms: N_3  and  C_4 
REMARK    2  A    between atoms: C_4  and  C_5 
REMARK    3  A    between atoms: C_8  and  C_9 
REMARK    4  A    between atoms: N_15  and  C_16 
ROOT
HETATM    1  O   UNL     1     -20.018  -4.867  -5.099  1.00  0.00    -0.247 OA
HETATM    2  C   UNL     1     -21.017  -5.443  -5.517  1.00  0.00     0.321 C 
HETATM    3  N   UNL     1     -21.530  -5.168  -6.764  1.00  0.00    -0.339 N 
HETATM    4  N   UNL     1     -21.775  -6.380  -4.833  1.00  0.00    -0.308 N 
HETATM    5  H   UNL     1     -22.252  -5.761  -7.149  1.00  0.00     0.164 HD
HETATM    6  H   UNL     1     -22.695  -6.534  -5.214  1.00  0.00     0.170 HD
ENDROOT
BRANCH   3   7
HETATM    7  C   UNL     1     -20.915  -4.196  -7.643  1.00  0.00     0.162 C 
BRANCH   7   8
HETATM    8  C   UNL     1     -21.726  -3.976  -8.898  1.00  0.00    -0.040 A 
HETATM    9  C   UNL     1     -23.122  -3.847  -8.841  1.00  0.00     0.009 A 
HETATM   10  C   UNL     1     -23.864  -3.622 -10.005  1.00  0.00     0.017 A 
HETATM   11  C   UNL     1     -23.225  -3.519 -11.249  1.00  0.00     0.047 A 
HETATM   12  C   UNL     1     -21.830  -3.638 -11.304  1.00  0.00     0.017 A 
HETATM   13  C   UNL     1     -21.088  -3.862 -10.142  1.00  0.00     0.009 A 
BRANCH  11  14
HETATM   14  C   UNL     1     -24.012  -3.279 -12.516  1.00  0.00     0.417 C 
HETATM   15  F   UNL     1     -25.304  -2.904 -12.295  1.00  0.00    -0.166 F 
HETATM   16  F   UNL     1     -23.470  -2.301 -13.292  1.00  0.00    -0.166 F 
HETATM   17  F   UNL     1     -24.080  -4.388 -13.305  1.00  0.00    -0.166 F 
ENDBRANCH  11  14
ENDBRANCH   7   8
ENDBRANCH   3   7
BRANCH   4  18
HETATM   18  C   UNL     1     -21.574  -6.796  -3.486  1.00  0.00     0.047 C 
HETATM   19  C   UNL     1     -22.244  -6.162  -2.432  1.00  0.00     0.030 C 
HETATM   20  C   UNL     1     -22.210  -6.673  -1.138  1.00  0.00     0.003 C 
HETATM   21  C   UNL     1     -21.554  -7.865  -0.886  1.00  0.00     0.014 C 
HETATM   22  C   UNL     1     -20.826  -8.496  -1.904  1.00  0.00    -0.008 C 
HETATM   23  C   UNL     1     -20.159  -9.698  -1.660  1.00  0.00     0.100 C 
HETATM   24  C   UNL     1     -20.736  -7.916  -3.191  1.00  0.00     0.004 C 
HETATM   25  N   UNL     1     -19.301 -10.285  -2.517  1.00  0.00    -0.374 N 
HETATM   26  C   UNL     1     -19.101  -9.647  -3.685  1.00  0.00     0.088 C 
ATOM     27  HN  UNL     1     -18.832 -11.163  -2.294  1.00  0.00     0.164 HD
HETATM   28  C   UNL     1     -19.802  -8.511  -4.077  1.00  0.00     0.031 C 
ENDBRANCH   4  18
TORSDOF 4
ENDMDL
MODEL 4
REMARK VINA RESULT:     -10.3      5.254      9.603
REMARK  4 active torsions:
REMARK  status: ('A' for Active; 'I' for Inactive)
REMARK       I    between atoms: C_2  and  N_3 
REMARK       I    between atoms: C_2  and  N_15 
REMARK    1  A    between atoms: N_3  and  C_4 
REMARK    2  A    between atoms: C_4  and  C_5 
REMARK    3  A    between atoms: C_8  and  C_9 
REMARK    4  A    between atoms: N_15  and  C_16 
ROOT
HETATM    1  O   UNL     1     -19.943  -5.940  -5.794  1.00  0.00    -0.247 OA
HETATM    2  C   UNL     1     -21.152  -5.749  -5.882  1.00  0.00     0.321 C 
HETATM    3  N   UNL     1     -21.686  -5.040  -6.933  1.00  0.00    -0.339 N 
HETATM    4  N   UNL     1     -22.118  -6.153  -4.976  1.00  0.00    -0.308 N 
HETATM    5  H   UNL     1     -22.688  -5.029  -7.071  1.00  0.00     0.164 HD
HETATM    6  H   UNL     1     -23.003  -5.677  -5.066  1.00  0.00     0.170 HD
ENDROOT
BRANCH   3   7
HETATM    7  C   UNL     1     -20.855  -4.494  -7.986  1.00  0.00     0.162 C 
BRANCH   7   8
HETATM    8  C   UNL     1     -21.662  -4.117  -9.206  1.00  0.00    -0.040 A 
HETATM    9  C   UNL     1     -21.039  -3.896 -10.442  1.00  0.00     0.009 A 
HETATM   10  C   UNL     1     -21.795  -3.568 -11.572  1.00  0.00     0.017 A 
HETATM   11  C   UNL     1     -23.191  -3.457 -11.488  1.00  0.00     0.047 A 
HETATM   12  C   UNL     1     -23.814  -3.686 -10.254  1.00  0.00     0.017 A 
HETATM   13  C   UNL     1     -23.059  -4.014  -9.126  1.00  0.00     0.009 A 
BRANCH  11  14
HETATM   14  C   UNL     1     -24.022  -3.100 -12.699  1.00  0.00     0.417 C 
HETATM   15  F   UNL     1     -25.335  -2.873 -12.413  1.00  0.00    -0.166 F 
HETATM   16  F   UNL     1     -23.578  -1.976 -13.325  1.00  0.00    -0.166 F 
HETATM   17  F   UNL     1     -24.014  -4.082 -13.643  1.00  0.00    -0.166 F 
ENDBRANCH  11  14
ENDBRANCH   7   8
ENDBRANCH   3   7
BRANCH   4  18
HETATM   18  C   UNL     1     -21.879  -6.806  -3.734  1.00  0.00     0.047 C 
HETATM   19  C   UNL     1     -21.998  -6.111  -2.523  1.00  0.00     0.030 C 
HETATM   20  C   UNL     1     -21.957  -6.772  -1.299  1.00  0.00     0.003 C 
HETATM   21  C   UNL     1     -21.857  -8.151  -1.264  1.00  0.00     0.014 C 
HETATM   22  C   UNL     1     -21.679  -8.873  -2.453  1.00  0.00    -0.008 C 
HETATM   23  C   UNL     1     -21.575 -10.266  -2.429  1.00  0.00     0.100 C 
HETATM   24  C   UNL     1     -21.580  -8.204  -3.695  1.00  0.00     0.004 C 
HETATM   25  N   UNL     1     -21.235 -11.025  -3.488  1.00  0.00    -0.374 N 
HETATM   26  C   UNL     1     -20.991 -10.367  -4.637  1.00  0.00     0.088 C 
ATOM     27  HN  UNL     1     -21.167 -12.041  -3.424  1.00  0.00     0.164 HD
HETATM   28  C   UNL     1     -21.181  -8.998  -4.800  1.00  0.00     0.031 C 
ENDBRANCH   4  18
TORSDOF 4
ENDMDL
MODEL 5
REMARK VINA RESULT:     -10.0      5.080      9.354
REMARK  4 active torsions:
REMARK  status: ('A' for Active; 'I' for Inactive)
REMARK       I    between atoms: C_2  and  N_3 
REMARK       I    between atoms: C_2  and  N_15 
REMARK    1  A    between atoms: N_3  and  C_4 
REMARK    2  A    between atoms: C_4  and  C_5 
REMARK    3  A    between atoms: C_8  and  C_9 
REMARK    4  A    between atoms: N_15  and  C_16 
ROOT
HETATM    1  O   UNL     1     -19.867  -7.005  -6.704  1.00  0.00    -0.247 OA
HETATM    2  C   UNL     1     -20.495  -6.172  -6.057  1.00  0.00     0.321 C 
HETATM    3  N   UNL     1     -20.477  -4.840  -6.401  1.00  0.00    -0.339 N 
HETATM    4  N   UNL     1     -21.250  -6.410  -4.920  1.00  0.00    -0.308 N 
HETATM    5  H   UNL     1     -21.121  -4.200  -5.956  1.00  0.00     0.164 HD
HETATM    6  H   UNL     1     -21.458  -5.588  -4.375  1.00  0.00     0.170 HD
ENDROOT
BRANCH   3   7
HETATM    7  C   UNL     1     -19.726  -4.358  -7.541  1.00  0.00     0.162 C 
BRANCH   7   8
HETATM    8  C   UNL     1     -20.606  -4.156  -8.753  1.00  0.00    -0.040 A 
HETATM    9  C   UNL     1     -20.089  -4.297 -10.049  1.00  0.00     0.009 A 
HETATM   10  C   UNL     1     -20.914  -4.130 -11.167  1.00  0.00     0.017 A 
HETATM   11  C   UNL     1     -22.273  -3.822 -11.009  1.00  0.00     0.047 A 
HETATM   12  C   UNL     1     -22.790  -3.690  -9.714  1.00  0.00     0.017 A 
HETATM   13  C   UNL     1     -21.967  -3.857  -8.598  1.00  0.00     0.009 A 
BRANCH  11  14
HETATM   14  C   UNL     1     -23.177  -3.636 -12.206  1.00  0.00     0.417 C 
HETATM   15  F   UNL     1     -22.512  -3.298 -13.346  1.00  0.00    -0.166 F 
HETATM   16  F   UNL     1     -23.884  -4.760 -12.507  1.00  0.00    -0.166 F 
HETATM   17  F   UNL     1     -24.101  -2.653 -12.012  1.00  0.00    -0.166 F 
ENDBRANCH  11  14
ENDBRANCH   7   8
ENDBRANCH   3   7
BRANCH   4  18
HETATM   18  C   UNL     1     -21.376  -7.659  -4.247  1.00  0.00     0.047 C 
HETATM   19  C   UNL     1     -21.174  -8.865  -4.930  1.00  0.00     0.030 C 
HETATM   20  C   UNL     1     -21.105 -10.080  -4.253  1.00  0.00     0.003 C 
HETATM   21  C   UNL     1     -21.174 -10.103  -2.871  1.00  0.00     0.014 C 
HETATM   22  C   UNL     1     -21.432  -8.922  -2.160  1.00  0.00    -0.008 C 
HETATM   23  C   UNL     1     -21.507  -8.934  -0.766  1.00  0.00     0.100 C 
HETATM   24  C   UNL     1     -21.644  -7.701  -2.843  1.00  0.00     0.004 C 
HETATM   25  N   UNL     1     -21.916  -7.895  -0.012  1.00  0.00    -0.374 N 
HETATM   26  C   UNL     1     -22.264  -6.780  -0.680  1.00  0.00     0.088 C 
ATOM     27  HN  UNL     1     -21.958  -7.951   1.005  1.00  0.00     0.164 HD
HETATM   28  C   UNL     1     -22.114  -6.621  -2.054  1.00  0.00     0.031 C 
ENDBRANCH   4  18
TORSDOF 4
ENDMDL
MODEL 6
REMARK VINA RESULT:      -9.7      4.971      9.317
REMARK  4 active torsions:
REMARK  status: ('A' for Active; 'I' for Inactive)
REMARK       I    between atoms: C_2  and  N_3 
REMARK       I    between atoms: C_2  and  N_15 
REMARK    1  A    between atoms: N_3  and  C_4 
REMARK    2  A    between atoms: C_4  and  C_5 
REMARK    3  A    between atoms: C_8  and  C_9 
REMARK    4  A    between atoms: N_15  and  C_16 
ROOT
HETATM    1  O   UNL     1     -22.166  -6.062  -4.358  1.00  0.00    -0.247 OA
HETATM    2  C   UNL     1     -21.094  -6.564  -4.683  1.00  0.00     0.321 C 
HETATM    3  N   UNL     1     -20.167  -5.855  -5.413  1.00  0.00    -0.339 N 
HETATM    4  N   UNL     1     -20.678  -7.859  -4.423  1.00  0.00    -0.308 N 
HETATM    5  H   UNL     1     -19.236  -6.228  -5.534  1.00  0.00     0.164 HD
HETATM    6  H   UNL     1     -19.909  -8.175  -4.994  1.00  0.00     0.170 HD
ENDROOT
BRANCH   3   7
HETATM    7  C   UNL     1     -20.406  -4.488  -5.824  1.00  0.00     0.162 C 
BRANCH   7   8
HETATM    8  C   UNL     1     -20.917  -4.405  -7.244  1.00  0.00    -0.040 A 
HETATM    9  C   UNL     1     -22.267  -4.137  -7.509  1.00  0.00     0.009 A 
HETATM   10  C   UNL     1     -22.729  -4.041  -8.826  1.00  0.00     0.017 A 
HETATM   11  C   UNL     1     -21.847  -4.209  -9.904  1.00  0.00     0.047 A 
HETATM   12  C   UNL     1     -20.496  -4.468  -9.638  1.00  0.00     0.017 A 
HETATM   13  C   UNL     1     -20.035  -4.563  -8.323  1.00  0.00     0.009 A 
BRANCH  11  14
HETATM   14  C   UNL     1     -22.330  -4.111 -11.333  1.00  0.00     0.417 C 
HETATM   15  F   UNL     1     -23.035  -2.975 -11.595  1.00  0.00    -0.166 F 
HETATM   16  F   UNL     1     -21.309  -4.131 -12.233  1.00  0.00    -0.166 F 
HETATM   17  F   UNL     1     -23.151  -5.142 -11.676  1.00  0.00    -0.166 F 
ENDBRANCH  11  14
ENDBRANCH   7   8
ENDBRANCH   3   7
BRANCH   4  18
HETATM   18  C   UNL     1     -21.450  -8.874  -3.789  1.00  0.00     0.047 C 
HETATM   19  C   UNL     1     -21.982  -9.938  -4.529  1.00  0.00     0.030 C 
HETATM   20  C   UNL     1     -22.572 -11.033  -3.905  1.00  0.00     0.003 C 
HETATM   21  C   UNL     1     -22.585 -11.114  -2.524  1.00  0.00     0.014 C 
HETATM   22  C   UNL     1     -22.112 -10.043  -1.752  1.00  0.00    -0.008 C 
HETATM   23  C   UNL     1     -22.123 -10.113  -0.358  1.00  0.00     0.100 C 
HETATM   24  C   UNL     1     -21.637  -8.863  -2.372  1.00  0.00     0.004 C 
HETATM   25  N   UNL     1     -21.852  -9.079   0.462  1.00  0.00    -0.374 N 
HETATM   26  C   UNL     1     -21.548  -7.912  -0.136  1.00  0.00     0.088 C 
ATOM     27  HN  UNL     1     -21.876  -9.174   1.477  1.00  0.00     0.164 HD
HETATM   28  C   UNL     1     -21.393  -7.763  -1.511  1.00  0.00     0.031 C 
ENDBRANCH   4  18
TORSDOF 4
ENDMDL
MODEL 7
REMARK VINA RESULT:      -9.3      5.114      9.075
REMARK  4 active torsions:
REMARK  status: ('A' for Active; 'I' for Inactive)
REMARK       I    between atoms: C_2  and  N_3 
REMARK       I    between atoms: C_2  and  N_15 
REMARK    1  A    between atoms: N_3  and  C_4 
REMARK    2  A    between atoms: C_4  and  C_5 
REMARK    3  A    between atoms: C_8  and  C_9 
REMARK    4  A    between atoms: N_15  and  C_16 
ROOT
HETATM    1  O   UNL     1     -21.888  -6.093  -4.197  1.00  0.00    -0.247 OA
HETATM    2  C   UNL     1     -20.896  -6.551  -4.756  1.00  0.00     0.321 C 
HETATM    3  N   UNL     1     -20.176  -5.801  -5.658  1.00  0.00    -0.339 N 
HETATM    4  N   UNL     1     -20.387  -7.831  -4.614  1.00  0.00    -0.308 N 
HETATM    5  H   UNL     1     -19.280  -6.136  -5.985  1.00  0.00     0.164 HD
HETATM    6  H   UNL     1     -19.750  -8.113  -5.343  1.00  0.00     0.170 HD
ENDROOT
BRANCH   3   7
HETATM    7  C   UNL     1     -20.547  -4.440  -5.986  1.00  0.00     0.162 C 
BRANCH   7   8
HETATM    8  C   UNL     1     -21.029  -4.314  -7.412  1.00  0.00    -0.040 A 
HETATM    9  C   UNL     1     -20.129  -4.378  -8.485  1.00  0.00     0.009 A 
HETATM   10  C   UNL     1     -20.585  -4.281  -9.804  1.00  0.00     0.017 A 
HETATM   11  C   UNL     1     -21.952  -4.121 -10.076  1.00  0.00     0.047 A 
HETATM   12  C   UNL     1     -22.852  -4.065  -9.003  1.00  0.00     0.017 A 
HETATM   13  C   UNL     1     -22.396  -4.163  -7.686  1.00  0.00     0.009 A 
BRANCH  11  14
HETATM   14  C   UNL     1     -22.460  -4.012 -11.494  1.00  0.00     0.417 C 
HETATM   15  F   UNL     1     -23.169  -2.873 -11.735  1.00  0.00    -0.166 F 
HETATM   16  F   UNL     1     -21.456  -4.026 -12.413  1.00  0.00    -0.166 F 
HETATM   17  F   UNL     1     -23.289  -5.040 -11.830  1.00  0.00    -0.166 F 
ENDBRANCH  11  14
ENDBRANCH   7   8
ENDBRANCH   3   7
BRANCH   4  18
HETATM   18  C   UNL     1     -20.966  -8.880  -3.844  1.00  0.00     0.047 C 
HETATM   19  C   UNL     1     -21.232  -8.706  -2.480  1.00  0.00     0.030 C 
HETATM   20  C   UNL     1     -21.968  -9.642  -1.759  1.00  0.00     0.003 C 
HETATM   21  C   UNL     1     -22.505 -10.742  -2.405  1.00  0.00     0.014 C 
HETATM   22  C   UNL     1     -22.212 -10.976  -3.756  1.00  0.00    -0.008 C 
HETATM   23  C   UNL     1     -22.747 -12.083  -4.417  1.00  0.00     0.100 C 
HETATM   24  C   UNL     1     -21.351 -10.108  -4.468  1.00  0.00     0.004 C 
HETATM   25  N   UNL     1     -22.390 -12.483  -5.652  1.00  0.00    -0.374 N 
HETATM   26  C   UNL     1     -21.454 -11.738  -6.269  1.00  0.00     0.088 C 
ATOM     27  HN  UNL     1     -22.805 -13.302  -6.096  1.00  0.00     0.164 HD
HETATM   28  C   UNL     1     -20.944 -10.551  -5.751  1.00  0.00     0.031 C 
ENDBRANCH   4  18
TORSDOF 4
ENDMDL
MODEL 8
REMARK VINA RESULT:      -9.3      5.362      9.748
REMARK  4 active torsions:
REMARK  status: ('A' for Active; 'I' for Inactive)
REMARK       I    between atoms: C_2  and  N_3 
REMARK       I    between atoms: C_2  and  N_15 
REMARK    1  A    between atoms: N_3  and  C_4 
REMARK    2  A    between atoms: C_4  and  C_5 
REMARK    3  A    between atoms: C_8  and  C_9 
REMARK    4  A    between atoms: N_15  and  C_16 
ROOT
HETATM    1  O   UNL     1     -19.891  -5.559  -5.647  1.00  0.00    -0.247 OA
HETATM    2  C   UNL     1     -20.490  -6.321  -6.399  1.00  0.00     0.321 C 
HETATM    3  N   UNL     1     -20.922  -5.906  -7.638  1.00  0.00    -0.339 N 
HETATM    4  N   UNL     1     -20.845  -7.634  -6.133  1.00  0.00    -0.308 N 
HETATM    5  H   UNL     1     -21.270  -6.586  -8.300  1.00  0.00     0.164 HD
HETATM    6  H   UNL     1     -21.559  -8.006  -6.739  1.00  0.00     0.170 HD
ENDROOT
BRANCH   3   7
HETATM    7  C   UNL     1     -20.688  -4.559  -8.114  1.00  0.00     0.162 C 
BRANCH   7   8
HETATM    8  C   UNL     1     -21.584  -4.208  -9.280  1.00  0.00    -0.040 A 
HETATM    9  C   UNL     1     -22.944  -3.931  -9.085  1.00  0.00     0.009 A 
HETATM   10  C   UNL     1     -23.763  -3.586 -10.166  1.00  0.00     0.017 A 
HETATM   11  C   UNL     1     -23.235  -3.508 -11.463  1.00  0.00     0.047 A 
HETATM   12  C   UNL     1     -21.873  -3.776 -11.656  1.00  0.00     0.017 A 
HETATM   13  C   UNL     1     -21.056  -4.120 -10.576  1.00  0.00     0.009 A 
BRANCH  11  14
HETATM   14  C   UNL     1     -24.106  -3.139 -12.641  1.00  0.00     0.417 C 
HETATM   15  F   UNL     1     -23.650  -2.063 -13.342  1.00  0.00    -0.166 F 
HETATM   16  F   UNL     1     -24.218  -4.151 -13.545  1.00  0.00    -0.166 F 
HETATM   17  F   UNL     1     -25.379  -2.827 -12.270  1.00  0.00    -0.166 F 
ENDBRANCH  11  14
ENDBRANCH   7   8
ENDBRANCH   3   7
BRANCH   4  18
HETATM   18  C   UNL     1     -20.642  -8.321  -4.902  1.00  0.00     0.047 C 
HETATM   19  C   UNL     1     -21.559  -8.194  -3.850  1.00  0.00     0.030 C 
HETATM   20  C   UNL     1     -21.482  -9.000  -2.719  1.00  0.00     0.003 C 
HETATM   21  C   UNL     1     -20.521  -9.993  -2.645  1.00  0.00     0.014 C 
HETATM   22  C   UNL     1     -19.554 -10.112  -3.653  1.00  0.00    -0.008 C 
HETATM   23  C   UNL     1     -18.579 -11.109  -3.588  1.00  0.00     0.100 C 
HETATM   24  C   UNL     1     -19.534  -9.210  -4.743  1.00  0.00     0.004 C 
HETATM   25  N   UNL     1     -17.516 -11.195  -4.411  1.00  0.00    -0.374 N 
HETATM   26  C   UNL     1     -17.419 -10.241  -5.355  1.00  0.00     0.088 C 
ATOM     27  HN  UNL     1     -16.824 -11.940  -4.323  1.00  0.00     0.164 HD
HETATM   28  C   UNL     1     -18.394  -9.274  -5.583  1.00  0.00     0.031 C 
ENDBRANCH   4  18
TORSDOF 4
ENDMDL
MODEL 9
REMARK VINA RESULT:      -9.2      2.489      3.088
REMARK  4 active torsions:
REMARK  status: ('A' for Active; 'I' for Inactive)
REMARK       I    between atoms: C_2  and  N_3 
REMARK       I    between atoms: C_2  and  N_15 
REMARK    1  A    between atoms: N_3  and  C_4 
REMARK    2  A    between atoms: C_4  and  C_5 
REMARK    3  A    between atoms: C_8  and  C_9 
REMARK    4  A    between atoms: N_15  and  C_16 
ROOT
HETATM    1  O   UNL     1     -20.758  -4.581  -5.708  1.00  0.00    -0.247 OA
HETATM    2  C   UNL     1     -21.631  -5.368  -6.061  1.00  0.00     0.321 C 
HETATM    3  N   UNL     1     -22.229  -6.219  -5.161  1.00  0.00    -0.339 N 
HETATM    4  N   UNL     1     -22.104  -5.550  -7.350  1.00  0.00    -0.308 N 
HETATM    5  H   UNL     1     -23.048  -6.743  -5.437  1.00  0.00     0.164 HD
HETATM    6  H   UNL     1     -22.606  -6.412  -7.495  1.00  0.00     0.170 HD
ENDROOT
BRANCH   3   7
HETATM    7  C   UNL     1     -21.866  -6.225  -3.760  1.00  0.00     0.162 C 
BRANCH   7   8
HETATM    8  C   UNL     1     -20.885  -7.326  -3.434  1.00  0.00    -0.040 A 
HETATM    9  C   UNL     1     -20.697  -7.756  -2.112  1.00  0.00     0.009 A 
HETATM   10  C   UNL     1     -19.803  -8.791  -1.820  1.00  0.00     0.017 A 
HETATM   11  C   UNL     1     -19.080  -9.419  -2.845  1.00  0.00     0.047 A 
HETATM   12  C   UNL     1     -19.275  -8.995  -4.167  1.00  0.00     0.017 A 
HETATM   13  C   UNL     1     -20.169  -7.962  -4.458  1.00  0.00     0.009 A 
BRANCH  11  14
HETATM   14  C   UNL     1     -18.108 -10.536  -2.547  1.00  0.00     0.417 C 
HETATM   15  F   UNL     1     -18.353 -11.175  -1.369  1.00  0.00    -0.166 F 
HETATM   16  F   UNL     1     -18.116 -11.506  -3.503  1.00  0.00    -0.166 F 
HETATM   17  F   UNL     1     -16.820 -10.098  -2.469  1.00  0.00    -0.166 F 
ENDBRANCH  11  14
ENDBRANCH   7   8
ENDBRANCH   3   7
BRANCH   4  18
HETATM   18  C   UNL     1     -21.612  -4.905  -8.520  1.00  0.00     0.047 C 
HETATM   19  C   UNL     1     -20.251  -4.956  -8.849  1.00  0.00     0.030 C 
HETATM   20  C   UNL     1     -19.783  -4.500 -10.078  1.00  0.00     0.003 C 
HETATM   21  C   UNL     1     -20.678  -4.039 -11.028  1.00  0.00     0.014 C 
HETATM   22  C   UNL     1     -22.039  -3.921 -10.712  1.00  0.00    -0.008 C 
HETATM   23  C   UNL     1     -22.951  -3.455 -11.662  1.00  0.00     0.100 C 
HETATM   24  C   UNL     1     -22.511  -4.250  -9.419  1.00  0.00     0.004 C 
HETATM   25  N   UNL     1     -24.236  -3.148 -11.402  1.00  0.00    -0.374 N 
HETATM   26  C   UNL     1     -24.641  -3.319 -10.130  1.00  0.00     0.088 C 
ATOM     27  HN  UNL     1     -24.866  -2.806 -12.127  1.00  0.00     0.164 HD
HETATM   28  C   UNL     1     -23.851  -3.888  -9.135  1.00  0.00     0.031 C 
ENDBRANCH   4  18
TORSDOF 4
ENDMDL
