MODEL 1
REMARK VINA RESULT:      -1.2      0.000      0.000
REMARK  12 active torsions:
REMARK  status: ('A' for Active; 'I' for Inactive)
REMARK    1  A    between atoms: C_2  and  N_3 
REMARK    2  A    between atoms: N_3  and  C_4 
REMARK    3  A    between atoms: N_3  and  C_15 
REMARK    4  A    between atoms: C_4  and  C_5 
REMARK    5  A    between atoms: C_7  and  S_11 
REMARK    6  A    between atoms: C_18  and  C_21 
REMARK    7  A    between atoms: C_21  and  C_42 
REMARK    8  A    between atoms: N_26  and  C_27 
REMARK    9  A    between atoms: N_26  and  C_29 
REMARK   10  A    between atoms: C_29  and  C_30 
REMARK   11  A    between atoms: C_32  and  S_36 
REMARK   12  A    between atoms: C_47  and  S_48 
ROOT
HETATM    1  H   UNL     1     -21.738  -9.420 -16.617  1.00  0.00     0.271 HD
HETATM    2  H   UNL     1     -20.270  -8.661 -16.346  1.00  0.00     0.271 HD
HETATM    3  H   UNL     1     -21.287  -8.974 -15.058  1.00  0.00     0.271 HD
HETATM    4  H   UNL     1     -21.712  -7.805 -16.167  1.00  0.00     0.271 HD
HETATM    5  N   UNL     2     -21.251  -8.717 -16.050  1.00  0.00    -0.084 N 
ENDROOT
TORSDOF 12
BEGIN_RES ARG D 557
REMARK  4 active torsions:
REMARK  status: ('A' for Active; 'I' for Inactive)
REMARK    1  A    between atoms: CA   and  CB  
REMARK    2  A    between atoms: CB   and  CG  
REMARK    3  A    between atoms: CG   and  CD  
REMARK    4  A    between atoms: CD   and  NE  
REMARK       I    between atoms: NE   and  CZ  
REMARK       I    between atoms: CZ   and  NH1 
REMARK       I    between atoms: CZ   and  NH2 
ROOT
ATOM      1  CA  ARG D 557     -26.217   2.705 -17.014  1.00 35.49     0.159 C 
ENDROOT
BRANCH   1   2
ATOM      2  CB  ARG D 557     -26.789   1.319 -17.183  1.00 35.49     0.034 C 
BRANCH   2   3
ATOM      3  CG  ARG D 557     -25.836   0.203 -17.152  1.00 35.49     0.027 C 
BRANCH   3   4
ATOM      4  CD  ARG D 557     -24.752   0.413 -16.166  1.00 35.49     0.116 C 
BRANCH   4   5
ATOM      5  NE  ARG D 557     -24.896  -0.435 -15.012  1.00 35.49    -0.212 N 
ATOM      6  CZ  ARG D 557     -24.082  -1.408 -14.668  1.00 35.49     0.666 C 
ATOM      7  NH1 ARG D 557     -23.017  -1.727 -15.380  1.00 35.49    -0.235 N 
ATOM      8  NH2 ARG D 557     -24.356  -2.061 -13.576  1.00 35.49    -0.235 N 
ATOM      9  HH  ARG D 557     -22.817  -1.309 -16.100  1.00 35.49     0.174 HD
ATOM     10  HH  ARG D 557     -22.521  -2.369 -15.104  1.00 35.49     0.174 HD
ATOM     11  HH  ARG D 557     -25.046  -1.828 -13.132  1.00 35.49     0.174 HD
ATOM     12  HH  ARG D 557     -23.851  -2.693 -13.319  1.00 35.49     0.174 HD
ATOM     13  HE  ARG D 557     -25.595  -0.347 -14.536  1.00 35.49     0.178 HD
ENDBRANCH   4   5
ENDBRANCH   3   4
ENDBRANCH   2   3
ENDBRANCH   1   2
END_RES ARG D 557
BEGIN_RES GLU D 570
REMARK  3 active torsions:
REMARK  status: ('A' for Active; 'I' for Inactive)
REMARK    5  A    between atoms: CA   and  CB  
REMARK    6  A    between atoms: CB   and  CG  
REMARK    7  A    between atoms: CG   and  CD  
ROOT
ATOM     14  CA  GLU D 570     -18.033  -6.348 -13.375  1.00 32.92     0.160 C 
ENDROOT
BRANCH  14  15
ATOM     15  CB  GLU D 570     -19.500  -6.345 -13.794  1.00 32.92     0.043 C 
BRANCH  15  16
ATOM     16  CG  GLU D 570     -20.440  -5.523 -12.989  1.00 32.92     0.100 C 
BRANCH  16  17
ATOM     17  CD  GLU D 570     -21.752  -5.268 -13.694  1.00 32.92     0.185 C 
ATOM     18  OE1 GLU D 570     -22.234  -6.161 -14.417  1.00 32.92    -0.647 OA
ATOM     19  OE2 GLU D 570     -22.295  -4.157 -13.534  1.00 32.92    -0.647 OA
ENDBRANCH  16  17
ENDBRANCH  15  16
ENDBRANCH  14  15
END_RES GLU D 570
ENDMDL
MODEL 2
REMARK VINA RESULT:      -1.2      3.616      4.087
REMARK  12 active torsions:
REMARK  status: ('A' for Active; 'I' for Inactive)
REMARK    1  A    between atoms: C_2  and  N_3 
REMARK    2  A    between atoms: N_3  and  C_4 
REMARK    3  A    between atoms: N_3  and  C_15 
REMARK    4  A    between atoms: C_4  and  C_5 
REMARK    5  A    between atoms: C_7  and  S_11 
REMARK    6  A    between atoms: C_18  and  C_21 
REMARK    7  A    between atoms: C_21  and  C_42 
REMARK    8  A    between atoms: N_26  and  C_27 
REMARK    9  A    between atoms: N_26  and  C_29 
REMARK   10  A    between atoms: C_29  and  C_30 
REMARK   11  A    between atoms: C_32  and  S_36 
REMARK   12  A    between atoms: C_47  and  S_48 
ROOT
HETATM    1  H   UNL     1     -33.093  -8.894 -11.134  1.00  0.00     0.271 HD
HETATM    2  H   UNL     1     -34.472  -9.309 -10.280  1.00  0.00     0.271 HD
HETATM    3  H   UNL     1     -33.368  -8.257  -9.601  1.00  0.00     0.271 HD
HETATM    4  H   UNL     1     -32.963  -9.863  -9.773  1.00  0.00     0.271 HD
HETATM    5  N   UNL     2     -33.475  -9.082 -10.200  1.00  0.00    -0.084 N 
ENDROOT
TORSDOF 12
BEGIN_RES ARG D 557
REMARK  4 active torsions:
REMARK  status: ('A' for Active; 'I' for Inactive)
REMARK    1  A    between atoms: CA   and  CB  
REMARK    2  A    between atoms: CB   and  CG  
REMARK    3  A    between atoms: CG   and  CD  
REMARK    4  A    between atoms: CD   and  NE  
REMARK       I    between atoms: NE   and  CZ  
REMARK       I    between atoms: CZ   and  NH1 
REMARK       I    between atoms: CZ   and  NH2 
ROOT
ATOM      1  CA  ARG D 557     -26.217   2.705 -17.014  1.00 35.49     0.159 C 
ENDROOT
BRANCH   1   2
ATOM      2  CB  ARG D 557     -26.789   1.319 -17.183  1.00 35.49     0.034 C 
BRANCH   2   3
ATOM      3  CG  ARG D 557     -25.835   0.203 -17.162  1.00 35.49     0.027 C 
BRANCH   3   4
ATOM      4  CD  ARG D 557     -24.751   0.407 -16.174  1.00 35.49     0.116 C 
BRANCH   4   5
ATOM      5  NE  ARG D 557     -24.902  -0.440 -15.021  1.00 35.49    -0.212 N 
ATOM      6  CZ  ARG D 557     -24.090  -1.411 -14.669  1.00 35.49     0.666 C 
ATOM      7  NH1 ARG D 557     -23.019  -1.731 -15.372  1.00 35.49    -0.235 N 
ATOM      8  NH2 ARG D 557     -24.371  -2.063 -13.578  1.00 35.49    -0.235 N 
ATOM      9  HH  ARG D 557     -22.814  -1.314 -16.092  1.00 35.49     0.174 HD
ATOM     10  HH  ARG D 557     -22.525  -2.372 -15.092  1.00 35.49     0.174 HD
ATOM     11  HH  ARG D 557     -25.065  -1.830 -13.140  1.00 35.49     0.174 HD
ATOM     12  HH  ARG D 557     -23.868  -2.694 -13.317  1.00 35.49     0.174 HD
ATOM     13  HE  ARG D 557     -25.605  -0.352 -14.550  1.00 35.49     0.178 HD
ENDBRANCH   4   5
ENDBRANCH   3   4
ENDBRANCH   2   3
ENDBRANCH   1   2
END_RES ARG D 557
BEGIN_RES GLU D 570
REMARK  3 active torsions:
REMARK  status: ('A' for Active; 'I' for Inactive)
REMARK    5  A    between atoms: CA   and  CB  
REMARK    6  A    between atoms: CB   and  CG  
REMARK    7  A    between atoms: CG   and  CD  
ROOT
ATOM     14  CA  GLU D 570     -18.033  -6.348 -13.375  1.00 32.92     0.160 C 
ENDROOT
BRANCH  14  15
ATOM     15  CB  GLU D 570     -19.500  -6.345 -13.794  1.00 32.92     0.043 C 
BRANCH  15  16
ATOM     16  CG  GLU D 570     -20.442  -5.530 -12.983  1.00 32.92     0.100 C 
BRANCH  16  17
ATOM     17  CD  GLU D 570     -21.745  -5.254 -13.696  1.00 32.92     0.185 C 
ATOM     18  OE1 GLU D 570     -22.221  -6.126 -14.447  1.00 32.92    -0.647 OA
ATOM     19  OE2 GLU D 570     -22.288  -4.146 -13.513  1.00 32.92    -0.647 OA
ENDBRANCH  16  17
ENDBRANCH  15  16
ENDBRANCH  14  15
END_RES GLU D 570
ENDMDL
MODEL 3
REMARK VINA RESULT:      -1.1      2.181      2.921
REMARK  12 active torsions:
REMARK  status: ('A' for Active; 'I' for Inactive)
REMARK    1  A    between atoms: C_2  and  N_3 
REMARK    2  A    between atoms: N_3  and  C_4 
REMARK    3  A    between atoms: N_3  and  C_15 
REMARK    4  A    between atoms: C_4  and  C_5 
REMARK    5  A    between atoms: C_7  and  S_11 
REMARK    6  A    between atoms: C_18  and  C_21 
REMARK    7  A    between atoms: C_21  and  C_42 
REMARK    8  A    between atoms: N_26  and  C_27 
REMARK    9  A    between atoms: N_26  and  C_29 
REMARK   10  A    between atoms: C_29  and  C_30 
REMARK   11  A    between atoms: C_32  and  S_36 
REMARK   12  A    between atoms: C_47  and  S_48 
ROOT
HETATM    1  H   UNL     1     -25.804  -4.300 -10.375  1.00  0.00     0.271 HD
HETATM    2  H   UNL     1     -26.242  -3.014  -9.395  1.00  0.00     0.271 HD
HETATM    3  H   UNL     1     -24.727  -3.037 -10.098  1.00  0.00     0.271 HD
HETATM    4  H   UNL     1     -25.075  -4.116  -8.877  1.00  0.00     0.271 HD
HETATM    5  N   UNL     2     -25.465  -3.618  -9.687  1.00  0.00    -0.084 N 
ENDROOT
TORSDOF 12
BEGIN_RES ARG D 557
REMARK  4 active torsions:
REMARK  status: ('A' for Active; 'I' for Inactive)
REMARK    1  A    between atoms: CA   and  CB  
REMARK    2  A    between atoms: CB   and  CG  
REMARK    3  A    between atoms: CG   and  CD  
REMARK    4  A    between atoms: CD   and  NE  
REMARK       I    between atoms: NE   and  CZ  
REMARK       I    between atoms: CZ   and  NH1 
REMARK       I    between atoms: CZ   and  NH2 
ROOT
ATOM      1  CA  ARG D 557     -26.217   2.705 -17.014  1.00 35.49     0.159 C 
ENDROOT
BRANCH   1   2
ATOM      2  CB  ARG D 557     -26.789   1.319 -17.183  1.00 35.49     0.034 C 
BRANCH   2   3
ATOM      3  CG  ARG D 557     -25.835   0.203 -17.159  1.00 35.49     0.027 C 
BRANCH   3   4
ATOM      4  CD  ARG D 557     -24.767   0.395 -16.151  1.00 35.49     0.116 C 
BRANCH   4   5
ATOM      5  NE  ARG D 557     -24.933  -0.471 -15.014  1.00 35.49    -0.212 N 
ATOM      6  CZ  ARG D 557     -24.120  -1.443 -14.665  1.00 35.49     0.666 C 
ATOM      7  NH1 ARG D 557     -23.036  -1.744 -15.355  1.00 35.49    -0.235 N 
ATOM      8  NH2 ARG D 557     -24.415  -2.115 -13.589  1.00 35.49    -0.235 N 
ATOM      9  HH  ARG D 557     -22.822  -1.314 -16.065  1.00 35.49     0.174 HD
ATOM     10  HH  ARG D 557     -22.542  -2.387 -15.078  1.00 35.49     0.174 HD
ATOM     11  HH  ARG D 557     -25.118  -1.893 -13.159  1.00 35.49     0.174 HD
ATOM     12  HH  ARG D 557     -23.913  -2.746 -13.330  1.00 35.49     0.174 HD
ATOM     13  HE  ARG D 557     -25.644  -0.395 -14.554  1.00 35.49     0.178 HD
ENDBRANCH   4   5
ENDBRANCH   3   4
ENDBRANCH   2   3
ENDBRANCH   1   2
END_RES ARG D 557
BEGIN_RES GLU D 570
REMARK  3 active torsions:
REMARK  status: ('A' for Active; 'I' for Inactive)
REMARK    5  A    between atoms: CA   and  CB  
REMARK    6  A    between atoms: CB   and  CG  
REMARK    7  A    between atoms: CG   and  CD  
ROOT
ATOM     14  CA  GLU D 570     -18.033  -6.348 -13.375  1.00 32.92     0.160 C 
ENDROOT
BRANCH  14  15
ATOM     15  CB  GLU D 570     -19.500  -6.345 -13.794  1.00 32.92     0.043 C 
BRANCH  15  16
ATOM     16  CG  GLU D 570     -20.439  -5.518 -12.993  1.00 32.92     0.100 C 
BRANCH  16  17
ATOM     17  CD  GLU D 570     -21.734  -5.229 -13.716  1.00 32.92     0.185 C 
ATOM     18  OE1 GLU D 570     -22.313  -4.145 -13.511  1.00 32.92    -0.647 OA
ATOM     19  OE2 GLU D 570     -22.183  -6.103 -14.483  1.00 32.92    -0.647 OA
ENDBRANCH  16  17
ENDBRANCH  15  16
ENDBRANCH  14  15
END_RES GLU D 570
ENDMDL
MODEL 4
REMARK VINA RESULT:      -1.0      2.778      4.168
REMARK  12 active torsions:
REMARK  status: ('A' for Active; 'I' for Inactive)
REMARK    1  A    between atoms: C_2  and  N_3 
REMARK    2  A    between atoms: N_3  and  C_4 
REMARK    3  A    between atoms: N_3  and  C_15 
REMARK    4  A    between atoms: C_4  and  C_5 
REMARK    5  A    between atoms: C_7  and  S_11 
REMARK    6  A    between atoms: C_18  and  C_21 
REMARK    7  A    between atoms: C_21  and  C_42 
REMARK    8  A    between atoms: N_26  and  C_27 
REMARK    9  A    between atoms: N_26  and  C_29 
REMARK   10  A    between atoms: C_29  and  C_30 
REMARK   11  A    between atoms: C_32  and  S_36 
REMARK   12  A    between atoms: C_47  and  S_48 
ROOT
HETATM    1  H   UNL     1     -33.372  -2.192 -17.948  1.00  0.00     0.271 HD
HETATM    2  H   UNL     1     -33.742  -2.835 -16.446  1.00  0.00     0.271 HD
HETATM    3  H   UNL     1     -32.466  -3.465 -17.320  1.00  0.00     0.271 HD
HETATM    4  H   UNL     1     -34.024  -3.734 -17.845  1.00  0.00     0.271 HD
HETATM    5  N   UNL     2     -33.403  -3.053 -17.389  1.00  0.00    -0.084 N 
ENDROOT
TORSDOF 12
BEGIN_RES ARG D 557
REMARK  4 active torsions:
REMARK  status: ('A' for Active; 'I' for Inactive)
REMARK    1  A    between atoms: CA   and  CB  
REMARK    2  A    between atoms: CB   and  CG  
REMARK    3  A    between atoms: CG   and  CD  
REMARK    4  A    between atoms: CD   and  NE  
REMARK       I    between atoms: NE   and  CZ  
REMARK       I    between atoms: CZ   and  NH1 
REMARK       I    between atoms: CZ   and  NH2 
ROOT
ATOM      1  CA  ARG D 557     -26.217   2.705 -17.014  1.00 35.49     0.159 C 
ENDROOT
BRANCH   1   2
ATOM      2  CB  ARG D 557     -26.789   1.319 -17.183  1.00 35.49     0.034 C 
BRANCH   2   3
ATOM      3  CG  ARG D 557     -25.835   0.204 -17.167  1.00 35.49     0.027 C 
BRANCH   3   4
ATOM      4  CD  ARG D 557     -24.746   0.407 -16.183  1.00 35.49     0.116 C 
BRANCH   4   5
ATOM      5  NE  ARG D 557     -24.896  -0.437 -15.027  1.00 35.49    -0.212 N 
ATOM      6  CZ  ARG D 557     -24.080  -1.404 -14.671  1.00 35.49     0.666 C 
ATOM      7  NH1 ARG D 557     -23.007  -1.721 -15.372  1.00 35.49    -0.235 N 
ATOM      8  NH2 ARG D 557     -24.360  -2.053 -13.578  1.00 35.49    -0.235 N 
ATOM      9  HH  ARG D 557     -22.803  -1.305 -16.093  1.00 35.49     0.174 HD
ATOM     10  HH  ARG D 557     -22.511  -2.359 -15.090  1.00 35.49     0.174 HD
ATOM     11  HH  ARG D 557     -25.055  -1.821 -13.142  1.00 35.49     0.174 HD
ATOM     12  HH  ARG D 557     -23.855  -2.681 -13.314  1.00 35.49     0.174 HD
ATOM     13  HE  ARG D 557     -25.599  -0.349 -14.557  1.00 35.49     0.178 HD
ENDBRANCH   4   5
ENDBRANCH   3   4
ENDBRANCH   2   3
ENDBRANCH   1   2
END_RES ARG D 557
BEGIN_RES GLU D 570
REMARK  3 active torsions:
REMARK  status: ('A' for Active; 'I' for Inactive)
REMARK    5  A    between atoms: CA   and  CB  
REMARK    6  A    between atoms: CB   and  CG  
REMARK    7  A    between atoms: CG   and  CD  
ROOT
ATOM     14  CA  GLU D 570     -18.033  -6.348 -13.375  1.00 32.92     0.160 C 
ENDROOT
BRANCH  14  15
ATOM     15  CB  GLU D 570     -19.500  -6.345 -13.794  1.00 32.92     0.043 C 
BRANCH  15  16
ATOM     16  CG  GLU D 570     -20.442  -5.531 -12.983  1.00 32.92     0.100 C 
BRANCH  16  17
ATOM     17  CD  GLU D 570     -21.745  -5.252 -13.696  1.00 32.92     0.185 C 
ATOM     18  OE1 GLU D 570     -22.306  -4.154 -13.523  1.00 32.92    -0.647 OA
ATOM     19  OE2 GLU D 570     -22.217  -6.149 -14.422  1.00 32.92    -0.647 OA
ENDBRANCH  16  17
ENDBRANCH  15  16
ENDBRANCH  14  15
END_RES GLU D 570
ENDMDL
MODEL 5
REMARK VINA RESULT:      -1.0      4.939      6.150
REMARK  12 active torsions:
REMARK  status: ('A' for Active; 'I' for Inactive)
REMARK    1  A    between atoms: C_2  and  N_3 
REMARK    2  A    between atoms: N_3  and  C_4 
REMARK    3  A    between atoms: N_3  and  C_15 
REMARK    4  A    between atoms: C_4  and  C_5 
REMARK    5  A    between atoms: C_7  and  S_11 
REMARK    6  A    between atoms: C_18  and  C_21 
REMARK    7  A    between atoms: C_21  and  C_42 
REMARK    8  A    between atoms: N_26  and  C_27 
REMARK    9  A    between atoms: N_26  and  C_29 
REMARK   10  A    between atoms: C_29  and  C_30 
REMARK   11  A    between atoms: C_32  and  S_36 
REMARK   12  A    between atoms: C_47  and  S_48 
ROOT
HETATM    1  H   UNL     1     -35.334  -5.902  -0.885  1.00  0.00     0.271 HD
HETATM    2  H   UNL     1     -34.452  -5.076  -2.045  1.00  0.00     0.271 HD
HETATM    3  H   UNL     1     -33.707  -6.258  -1.131  1.00  0.00     0.271 HD
HETATM    4  H   UNL     1     -34.144  -4.823  -0.406  1.00  0.00     0.271 HD
HETATM    5  N   UNL     2     -34.413  -5.514  -1.118  1.00  0.00    -0.084 N 
ENDROOT
TORSDOF 12
BEGIN_RES ARG D 557
REMARK  4 active torsions:
REMARK  status: ('A' for Active; 'I' for Inactive)
REMARK    1  A    between atoms: CA   and  CB  
REMARK    2  A    between atoms: CB   and  CG  
REMARK    3  A    between atoms: CG   and  CD  
REMARK    4  A    between atoms: CD   and  NE  
REMARK       I    between atoms: NE   and  CZ  
REMARK       I    between atoms: CZ   and  NH1 
REMARK       I    between atoms: CZ   and  NH2 
ROOT
ATOM      1  CA  ARG D 557     -26.217   2.705 -17.014  1.00 35.49     0.159 C 
ENDROOT
BRANCH   1   2
ATOM      2  CB  ARG D 557     -26.789   1.319 -17.183  1.00 35.49     0.034 C 
BRANCH   2   3
ATOM      3  CG  ARG D 557     -25.836   0.203 -17.153  1.00 35.49     0.027 C 
BRANCH   3   4
ATOM      4  CD  ARG D 557     -24.753   0.412 -16.165  1.00 35.49     0.116 C 
BRANCH   4   5
ATOM      5  NE  ARG D 557     -24.901  -0.437 -15.012  1.00 35.49    -0.212 N 
ATOM      6  CZ  ARG D 557     -24.089  -1.411 -14.666  1.00 35.49     0.666 C 
ATOM      7  NH1 ARG D 557     -23.023  -1.732 -15.376  1.00 35.49    -0.235 N 
ATOM      8  NH2 ARG D 557     -24.365  -2.065 -13.575  1.00 35.49    -0.235 N 
ATOM      9  HH  ARG D 557     -22.821  -1.314 -16.097  1.00 35.49     0.174 HD
ATOM     10  HH  ARG D 557     -22.529  -2.375 -15.101  1.00 35.49     0.174 HD
ATOM     11  HH  ARG D 557     -25.056  -1.831 -13.133  1.00 35.49     0.174 HD
ATOM     12  HH  ARG D 557     -23.863  -2.697 -13.318  1.00 35.49     0.174 HD
ATOM     13  HE  ARG D 557     -25.600  -0.348 -14.537  1.00 35.49     0.178 HD
ENDBRANCH   4   5
ENDBRANCH   3   4
ENDBRANCH   2   3
ENDBRANCH   1   2
END_RES ARG D 557
BEGIN_RES GLU D 570
REMARK  3 active torsions:
REMARK  status: ('A' for Active; 'I' for Inactive)
REMARK    5  A    between atoms: CA   and  CB  
REMARK    6  A    between atoms: CB   and  CG  
REMARK    7  A    between atoms: CG   and  CD  
ROOT
ATOM     14  CA  GLU D 570     -18.033  -6.348 -13.375  1.00 32.92     0.160 C 
ENDROOT
BRANCH  14  15
ATOM     15  CB  GLU D 570     -19.500  -6.345 -13.794  1.00 32.92     0.043 C 
BRANCH  15  16
ATOM     16  CG  GLU D 570     -20.444  -5.539 -12.977  1.00 32.92     0.100 C 
BRANCH  16  17
ATOM     17  CD  GLU D 570     -21.737  -5.238 -13.697  1.00 32.92     0.185 C 
ATOM     18  OE1 GLU D 570     -22.297  -4.142 -13.502  1.00 32.92    -0.647 OA
ATOM     19  OE2 GLU D 570     -22.205  -6.114 -14.451  1.00 32.92    -0.647 OA
ENDBRANCH  16  17
ENDBRANCH  15  16
ENDBRANCH  14  15
END_RES GLU D 570
ENDMDL
MODEL 6
REMARK VINA RESULT:      -0.9      2.418      3.767
REMARK  12 active torsions:
REMARK  status: ('A' for Active; 'I' for Inactive)
REMARK    1  A    between atoms: C_2  and  N_3 
REMARK    2  A    between atoms: N_3  and  C_4 
REMARK    3  A    between atoms: N_3  and  C_15 
REMARK    4  A    between atoms: C_4  and  C_5 
REMARK    5  A    between atoms: C_7  and  S_11 
REMARK    6  A    between atoms: C_18  and  C_21 
REMARK    7  A    between atoms: C_21  and  C_42 
REMARK    8  A    between atoms: N_26  and  C_27 
REMARK    9  A    between atoms: N_26  and  C_29 
REMARK   10  A    between atoms: C_29  and  C_30 
REMARK   11  A    between atoms: C_32  and  S_36 
REMARK   12  A    between atoms: C_47  and  S_48 
ROOT
HETATM    1  H   UNL     1     -30.362  -3.528 -17.370  1.00  0.00     0.271 HD
HETATM    2  H   UNL     1     -31.976  -3.596 -17.813  1.00  0.00     0.271 HD
HETATM    3  H   UNL     1     -30.921  -2.642 -18.687  1.00  0.00     0.271 HD
HETATM    4  H   UNL     1     -31.341  -2.186 -17.141  1.00  0.00     0.271 HD
HETATM    5  N   UNL     2     -31.150  -2.991 -17.751  1.00  0.00    -0.084 N 
ENDROOT
TORSDOF 12
BEGIN_RES ARG D 557
REMARK  4 active torsions:
REMARK  status: ('A' for Active; 'I' for Inactive)
REMARK    1  A    between atoms: CA   and  CB  
REMARK    2  A    between atoms: CB   and  CG  
REMARK    3  A    between atoms: CG   and  CD  
REMARK    4  A    between atoms: CD   and  NE  
REMARK       I    between atoms: NE   and  CZ  
REMARK       I    between atoms: CZ   and  NH1 
REMARK       I    between atoms: CZ   and  NH2 
ROOT
ATOM      1  CA  ARG D 557     -26.217   2.705 -17.014  1.00 35.49     0.159 C 
ENDROOT
BRANCH   1   2
ATOM      2  CB  ARG D 557     -26.789   1.319 -17.183  1.00 35.49     0.034 C 
BRANCH   2   3
ATOM      3  CG  ARG D 557     -25.864   0.195 -16.994  1.00 35.49     0.027 C 
BRANCH   3   4
ATOM      4  CD  ARG D 557     -26.284  -0.703 -15.895  1.00 35.49     0.116 C 
BRANCH   4   5
ATOM      5  NE  ARG D 557     -25.229  -0.925 -14.942  1.00 35.49    -0.212 N 
ATOM      6  CZ  ARG D 557     -24.965  -2.063 -14.338  1.00 35.49     0.666 C 
ATOM      7  NH1 ARG D 557     -25.678  -3.155 -14.542  1.00 35.49    -0.235 N 
ATOM      8  NH2 ARG D 557     -23.954  -2.087 -13.519  1.00 35.49    -0.235 N 
ATOM      9  HH  ARG D 557     -26.346  -3.162 -15.078  1.00 35.49     0.174 HD
ATOM     10  HH  ARG D 557     -25.458  -3.869 -14.122  1.00 35.49     0.174 HD
ATOM     11  HH  ARG D 557     -23.507  -1.369 -13.413  1.00 35.49     0.174 HD
ATOM     12  HH  ARG D 557     -23.751  -2.804 -13.114  1.00 35.49     0.174 HD
ATOM     13  HE  ARG D 557     -24.765  -0.256 -14.697  1.00 35.49     0.178 HD
ENDBRANCH   4   5
ENDBRANCH   3   4
ENDBRANCH   2   3
ENDBRANCH   1   2
END_RES ARG D 557
BEGIN_RES GLU D 570
REMARK  3 active torsions:
REMARK  status: ('A' for Active; 'I' for Inactive)
REMARK    5  A    between atoms: CA   and  CB  
REMARK    6  A    between atoms: CB   and  CG  
REMARK    7  A    between atoms: CG   and  CD  
ROOT
ATOM     14  CA  GLU D 570     -18.033  -6.348 -13.375  1.00 32.92     0.160 C 
ENDROOT
BRANCH  14  15
ATOM     15  CB  GLU D 570     -19.500  -6.345 -13.794  1.00 32.92     0.043 C 
BRANCH  15  16
ATOM     16  CG  GLU D 570     -20.452  -5.581 -12.947  1.00 32.92     0.100 C 
BRANCH  16  17
ATOM     17  CD  GLU D 570     -21.675  -5.120 -13.704  1.00 32.92     0.185 C 
ATOM     18  OE1 GLU D 570     -22.711  -4.841 -13.070  1.00 32.92    -0.647 OA
ATOM     19  OE2 GLU D 570     -21.602  -5.052 -14.947  1.00 32.92    -0.647 OA
ENDBRANCH  16  17
ENDBRANCH  15  16
ENDBRANCH  14  15
END_RES GLU D 570
ENDMDL
MODEL 7
REMARK VINA RESULT:      -0.9      2.410      3.049
REMARK  12 active torsions:
REMARK  status: ('A' for Active; 'I' for Inactive)
REMARK    1  A    between atoms: C_2  and  N_3 
REMARK    2  A    between atoms: N_3  and  C_4 
REMARK    3  A    between atoms: N_3  and  C_15 
REMARK    4  A    between atoms: C_4  and  C_5 
REMARK    5  A    between atoms: C_7  and  S_11 
REMARK    6  A    between atoms: C_18  and  C_21 
REMARK    7  A    between atoms: C_21  and  C_42 
REMARK    8  A    between atoms: N_26  and  C_27 
REMARK    9  A    between atoms: N_26  and  C_29 
REMARK   10  A    between atoms: C_29  and  C_30 
REMARK   11  A    between atoms: C_32  and  S_36 
REMARK   12  A    between atoms: C_47  and  S_48 
ROOT
HETATM    1  H   UNL     1     -25.754  -3.302  -8.783  1.00  0.00     0.271 HD
HETATM    2  H   UNL     1     -25.120  -2.779 -10.242  1.00  0.00     0.271 HD
HETATM    3  H   UNL     1     -26.211  -4.044 -10.223  1.00  0.00     0.271 HD
HETATM    4  H   UNL     1     -24.678  -4.281  -9.617  1.00  0.00     0.271 HD
HETATM    5  N   UNL     2     -25.440  -3.599  -9.714  1.00  0.00    -0.084 N 
ENDROOT
TORSDOF 12
BEGIN_RES ARG D 557
REMARK  4 active torsions:
REMARK  status: ('A' for Active; 'I' for Inactive)
REMARK    1  A    between atoms: CA   and  CB  
REMARK    2  A    between atoms: CB   and  CG  
REMARK    3  A    between atoms: CG   and  CD  
REMARK    4  A    between atoms: CD   and  NE  
REMARK       I    between atoms: NE   and  CZ  
REMARK       I    between atoms: CZ   and  NH1 
REMARK       I    between atoms: CZ   and  NH2 
ROOT
ATOM      1  CA  ARG D 557     -26.217   2.705 -17.014  1.00 35.49     0.159 C 
ENDROOT
BRANCH   1   2
ATOM      2  CB  ARG D 557     -26.789   1.319 -17.183  1.00 35.49     0.034 C 
BRANCH   2   3
ATOM      3  CG  ARG D 557     -25.865   0.195 -16.989  1.00 35.49     0.027 C 
BRANCH   3   4
ATOM      4  CD  ARG D 557     -26.303  -0.715 -15.906  1.00 35.49     0.116 C 
BRANCH   4   5
ATOM      5  NE  ARG D 557     -25.269  -0.931 -14.928  1.00 35.49    -0.212 N 
ATOM      6  CZ  ARG D 557     -24.997  -2.073 -14.337  1.00 35.49     0.666 C 
ATOM      7  NH1 ARG D 557     -25.680  -3.177 -14.580  1.00 35.49    -0.235 N 
ATOM      8  NH2 ARG D 557     -24.009  -2.091 -13.491  1.00 35.49    -0.235 N 
ATOM      9  HH  ARG D 557     -26.332  -3.189 -15.135  1.00 35.49     0.174 HD
ATOM     10  HH  ARG D 557     -25.455  -3.893 -14.167  1.00 35.49     0.174 HD
ATOM     11  HH  ARG D 557     -23.582  -1.364 -13.360  1.00 35.49     0.174 HD
ATOM     12  HH  ARG D 557     -23.801  -2.810 -13.093  1.00 35.49     0.174 HD
ATOM     13  HE  ARG D 557     -24.828  -0.256 -14.658  1.00 35.49     0.178 HD
ENDBRANCH   4   5
ENDBRANCH   3   4
ENDBRANCH   2   3
ENDBRANCH   1   2
END_RES ARG D 557
BEGIN_RES GLU D 570
REMARK  3 active torsions:
REMARK  status: ('A' for Active; 'I' for Inactive)
REMARK    5  A    between atoms: CA   and  CB  
REMARK    6  A    between atoms: CB   and  CG  
REMARK    7  A    between atoms: CG   and  CD  
ROOT
ATOM     14  CA  GLU D 570     -18.033  -6.348 -13.375  1.00 32.92     0.160 C 
ENDROOT
BRANCH  14  15
ATOM     15  CB  GLU D 570     -19.500  -6.345 -13.794  1.00 32.92     0.043 C 
BRANCH  15  16
ATOM     16  CG  GLU D 570     -20.449  -5.567 -12.957  1.00 32.92     0.100 C 
BRANCH  16  17
ATOM     17  CD  GLU D 570     -21.673  -5.114 -13.719  1.00 32.92     0.185 C 
ATOM     18  OE1 GLU D 570     -21.613  -5.024 -14.961  1.00 32.92    -0.647 OA
ATOM     19  OE2 GLU D 570     -22.696  -4.829 -13.067  1.00 32.92    -0.647 OA
ENDBRANCH  16  17
ENDBRANCH  15  16
ENDBRANCH  14  15
END_RES GLU D 570
ENDMDL
MODEL 8
REMARK VINA RESULT:      -0.8      4.884      5.823
REMARK  12 active torsions:
REMARK  status: ('A' for Active; 'I' for Inactive)
REMARK    1  A    between atoms: C_2  and  N_3 
REMARK    2  A    between atoms: N_3  and  C_4 
REMARK    3  A    between atoms: N_3  and  C_15 
REMARK    4  A    between atoms: C_4  and  C_5 
REMARK    5  A    between atoms: C_7  and  S_11 
REMARK    6  A    between atoms: C_18  and  C_21 
REMARK    7  A    between atoms: C_21  and  C_42 
REMARK    8  A    between atoms: N_26  and  C_27 
REMARK    9  A    between atoms: N_26  and  C_29 
REMARK   10  A    between atoms: C_29  and  C_30 
REMARK   11  A    between atoms: C_32  and  S_36 
REMARK   12  A    between atoms: C_47  and  S_48 
ROOT
HETATM    1  H   UNL     1      -8.974   6.386 -18.470  1.00  0.00     0.271 HD
HETATM    2  H   UNL     1     -10.207   5.265 -18.304  1.00  0.00     0.271 HD
HETATM    3  H   UNL     1      -8.619   4.748 -18.324  1.00  0.00     0.271 HD
HETATM    4  H   UNL     1      -9.304   5.328 -19.727  1.00  0.00     0.271 HD
HETATM    5  N   UNL     2      -9.278   5.435 -18.705  1.00  0.00    -0.084 N 
ENDROOT
TORSDOF 12
BEGIN_RES ARG D 557
REMARK  4 active torsions:
REMARK  status: ('A' for Active; 'I' for Inactive)
REMARK    1  A    between atoms: CA   and  CB  
REMARK    2  A    between atoms: CB   and  CG  
REMARK    3  A    between atoms: CG   and  CD  
REMARK    4  A    between atoms: CD   and  NE  
REMARK       I    between atoms: NE   and  CZ  
REMARK       I    between atoms: CZ   and  NH1 
REMARK       I    between atoms: CZ   and  NH2 
ROOT
ATOM      1  CA  ARG D 557     -26.217   2.705 -17.014  1.00 35.49     0.159 C 
ENDROOT
BRANCH   1   2
ATOM      2  CB  ARG D 557     -26.789   1.319 -17.183  1.00 35.49     0.034 C 
BRANCH   2   3
ATOM      3  CG  ARG D 557     -25.864   0.195 -16.994  1.00 35.49     0.027 C 
BRANCH   3   4
ATOM      4  CD  ARG D 557     -26.291  -0.709 -15.902  1.00 35.49     0.116 C 
BRANCH   4   5
ATOM      5  NE  ARG D 557     -25.243  -0.931 -14.941  1.00 35.49    -0.212 N 
ATOM      6  CZ  ARG D 557     -24.973  -2.073 -14.347  1.00 35.49     0.666 C 
ATOM      7  NH1 ARG D 557     -25.672  -3.170 -14.571  1.00 35.49    -0.235 N 
ATOM      8  NH2 ARG D 557     -23.971  -2.096 -13.518  1.00 35.49    -0.235 N 
ATOM      9  HH  ARG D 557     -26.335  -3.178 -15.114  1.00 35.49     0.174 HD
ATOM     10  HH  ARG D 557     -25.449  -3.886 -14.157  1.00 35.49     0.174 HD
ATOM     11  HH  ARG D 557     -23.533  -1.374 -13.399  1.00 35.49     0.174 HD
ATOM     12  HH  ARG D 557     -23.764  -2.815 -13.119  1.00 35.49     0.174 HD
ATOM     13  HE  ARG D 557     -24.788  -0.260 -14.683  1.00 35.49     0.178 HD
ENDBRANCH   4   5
ENDBRANCH   3   4
ENDBRANCH   2   3
ENDBRANCH   1   2
END_RES ARG D 557
BEGIN_RES GLU D 570
REMARK  3 active torsions:
REMARK  status: ('A' for Active; 'I' for Inactive)
REMARK    5  A    between atoms: CA   and  CB  
REMARK    6  A    between atoms: CB   and  CG  
REMARK    7  A    between atoms: CG   and  CD  
ROOT
ATOM     14  CA  GLU D 570     -18.033  -6.348 -13.375  1.00 32.92     0.160 C 
ENDROOT
BRANCH  14  15
ATOM     15  CB  GLU D 570     -19.500  -6.345 -13.794  1.00 32.92     0.043 C 
BRANCH  15  16
ATOM     16  CG  GLU D 570     -20.450  -5.571 -12.954  1.00 32.92     0.100 C 
BRANCH  16  17
ATOM     17  CD  GLU D 570     -21.683  -5.132 -13.710  1.00 32.92     0.185 C 
ATOM     18  OE1 GLU D 570     -22.727  -4.887 -13.075  1.00 32.92    -0.647 OA
ATOM     19  OE2 GLU D 570     -21.608  -5.048 -14.951  1.00 32.92    -0.647 OA
ENDBRANCH  16  17
ENDBRANCH  15  16
ENDBRANCH  14  15
END_RES GLU D 570
ENDMDL
MODEL 9
REMARK VINA RESULT:      -0.8      2.357      4.828
REMARK  12 active torsions:
REMARK  status: ('A' for Active; 'I' for Inactive)
REMARK    1  A    between atoms: C_2  and  N_3 
REMARK    2  A    between atoms: N_3  and  C_4 
REMARK    3  A    between atoms: N_3  and  C_15 
REMARK    4  A    between atoms: C_4  and  C_5 
REMARK    5  A    between atoms: C_7  and  S_11 
REMARK    6  A    between atoms: C_18  and  C_21 
REMARK    7  A    between atoms: C_21  and  C_42 
REMARK    8  A    between atoms: N_26  and  C_27 
REMARK    9  A    between atoms: N_26  and  C_29 
REMARK   10  A    between atoms: C_29  and  C_30 
REMARK   11  A    between atoms: C_32  and  S_36 
REMARK   12  A    between atoms: C_47  and  S_48 
ROOT
HETATM    1  H   UNL     1     -26.022   4.967  -8.843  1.00  0.00     0.271 HD
HETATM    2  H   UNL     1     -24.777   5.563  -9.791  1.00  0.00     0.271 HD
HETATM    3  H   UNL     1     -26.332   6.127 -10.022  1.00  0.00     0.271 HD
HETATM    4  H   UNL     1     -25.956   4.567 -10.470  1.00  0.00     0.271 HD
HETATM    5  N   UNL     2     -25.770   5.305  -9.779  1.00  0.00    -0.084 N 
ENDROOT
TORSDOF 12
BEGIN_RES ARG D 557
REMARK  4 active torsions:
REMARK  status: ('A' for Active; 'I' for Inactive)
REMARK    1  A    between atoms: CA   and  CB  
REMARK    2  A    between atoms: CB   and  CG  
REMARK    3  A    between atoms: CG   and  CD  
REMARK    4  A    between atoms: CD   and  NE  
REMARK       I    between atoms: NE   and  CZ  
REMARK       I    between atoms: CZ   and  NH1 
REMARK       I    between atoms: CZ   and  NH2 
ROOT
ATOM      1  CA  ARG D 557     -26.217   2.705 -17.014  1.00 35.49     0.159 C 
ENDROOT
BRANCH   1   2
ATOM      2  CB  ARG D 557     -26.789   1.319 -17.183  1.00 35.49     0.034 C 
BRANCH   2   3
ATOM      3  CG  ARG D 557     -25.835   0.204 -17.163  1.00 35.49     0.027 C 
BRANCH   3   4
ATOM      4  CD  ARG D 557     -24.749   0.408 -16.177  1.00 35.49     0.116 C 
BRANCH   4   5
ATOM      5  NE  ARG D 557     -24.899  -0.438 -15.022  1.00 35.49    -0.212 N 
ATOM      6  CZ  ARG D 557     -24.086  -1.409 -14.670  1.00 35.49     0.666 C 
ATOM      7  NH1 ARG D 557     -23.017  -1.729 -15.374  1.00 35.49    -0.235 N 
ATOM      8  NH2 ARG D 557     -24.366  -2.060 -13.578  1.00 35.49    -0.235 N 
ATOM      9  HH  ARG D 557     -22.812  -1.312 -16.095  1.00 35.49     0.174 HD
ATOM     10  HH  ARG D 557     -22.522  -2.370 -15.094  1.00 35.49     0.174 HD
ATOM     11  HH  ARG D 557     -25.059  -1.826 -13.140  1.00 35.49     0.174 HD
ATOM     12  HH  ARG D 557     -23.863  -2.690 -13.317  1.00 35.49     0.174 HD
ATOM     13  HE  ARG D 557     -25.601  -0.349 -14.551  1.00 35.49     0.178 HD
ENDBRANCH   4   5
ENDBRANCH   3   4
ENDBRANCH   2   3
ENDBRANCH   1   2
END_RES ARG D 557
BEGIN_RES GLU D 570
REMARK  3 active torsions:
REMARK  status: ('A' for Active; 'I' for Inactive)
REMARK    5  A    between atoms: CA   and  CB  
REMARK    6  A    between atoms: CB   and  CG  
REMARK    7  A    between atoms: CG   and  CD  
ROOT
ATOM     14  CA  GLU D 570     -18.033  -6.348 -13.375  1.00 32.92     0.160 C 
ENDROOT
BRANCH  14  15
ATOM     15  CB  GLU D 570     -19.500  -6.345 -13.794  1.00 32.92     0.043 C 
BRANCH  15  16
ATOM     16  CG  GLU D 570     -20.441  -5.526 -12.987  1.00 32.92     0.100 C 
BRANCH  16  17
ATOM     17  CD  GLU D 570     -21.744  -5.252 -13.700  1.00 32.92     0.185 C 
ATOM     18  OE1 GLU D 570     -22.209  -6.117 -14.466  1.00 32.92    -0.647 OA
ATOM     19  OE2 GLU D 570     -22.299  -4.152 -13.503  1.00 32.92    -0.647 OA
ENDBRANCH  16  17
ENDBRANCH  15  16
ENDBRANCH  14  15
END_RES GLU D 570
ENDMDL
