MODEL 1
REMARK VINA RESULT:      -3.9      0.000      0.000
REMARK  4 active torsions:
REMARK  status: ('A' for Active; 'I' for Inactive)
REMARK    1  A    between atoms: C_1  and  C_2 
REMARK    2  A    between atoms: C_1  and  O_6 
REMARK    3  A    between atoms: C_2  and  C_4 
REMARK    4  A    between atoms: C_4  and  O_5 
ROOT
HETATM    1  C   UNL     1     -30.078 -15.678 -20.483  1.00  0.00     0.173 C 
HETATM    2  O   UNL     1     -29.456 -16.732 -20.652  1.00  0.00    -0.293 OA
ENDROOT
BRANCH   1   3
HETATM    3  C   UNL     1     -29.753 -14.725 -19.340  1.00  0.00     0.244 C 
BRANCH   3   4
HETATM    4  O   UNL     1     -30.726 -13.709 -19.171  1.00  0.00    -0.394 OA
HETATM    5  H   UNL     1     -30.345 -12.889 -19.542  1.00  0.00     0.209 HD
ENDBRANCH   3   4
ENDBRANCH   1   3
BRANCH   1   6
HETATM    6  C   UNL     1     -31.212 -15.254 -21.407  1.00  0.00     0.244 C 
BRANCH   6   7
HETATM    7  O   UNL     1     -31.030 -13.962 -21.959  1.00  0.00    -0.394 OA
HETATM    8  H   UNL     1     -31.128 -14.054 -22.927  1.00  0.00     0.209 HD
ENDBRANCH   6   7
ENDBRANCH   1   6
TORSDOF 4
BEGIN_RES ARG D 557
REMARK  4 active torsions:
REMARK  status: ('A' for Active; 'I' for Inactive)
REMARK    1  A    between atoms: CA   and  CB  
REMARK    2  A    between atoms: CB   and  CG  
REMARK    3  A    between atoms: CG   and  CD  
REMARK    4  A    between atoms: CD   and  NE  
REMARK       I    between atoms: NE   and  CZ  
REMARK       I    between atoms: CZ   and  NH1 
REMARK       I    between atoms: CZ   and  NH2 
ROOT
ATOM      1  CA  ARG D 557     -26.217   2.705 -17.014  1.00 35.49     0.159 C 
ENDROOT
BRANCH   1   2
ATOM      2  CB  ARG D 557     -26.789   1.319 -17.183  1.00 35.49     0.034 C 
BRANCH   2   3
ATOM      3  CG  ARG D 557     -25.865   0.195 -16.989  1.00 35.49     0.027 C 
BRANCH   3   4
ATOM      4  CD  ARG D 557     -26.283  -0.693 -15.880  1.00 35.49     0.116 C 
BRANCH   4   5
ATOM      5  NE  ARG D 557     -25.226  -0.904 -14.926  1.00 35.49    -0.212 N 
ATOM      6  CZ  ARG D 557     -24.922  -2.048 -14.356  1.00 35.49     0.666 C 
ATOM      7  NH1 ARG D 557     -25.590  -3.161 -14.599  1.00 35.49    -0.235 N 
ATOM      8  NH2 ARG D 557     -23.917  -2.059 -13.529  1.00 35.49    -0.235 N 
ATOM      9  HH  ARG D 557     -26.253  -3.177 -15.141  1.00 35.49     0.174 HD
ATOM     10  HH  ARG D 557     -25.344  -3.878 -14.200  1.00 35.49     0.174 HD
ATOM     11  HH  ARG D 557     -23.500  -1.327 -13.397  1.00 35.49     0.174 HD
ATOM     12  HH  ARG D 557     -23.688  -2.780 -13.145  1.00 35.49     0.174 HD
ATOM     13  HE  ARG D 557     -24.791  -0.225 -14.656  1.00 35.49     0.178 HD
ENDBRANCH   4   5
ENDBRANCH   3   4
ENDBRANCH   2   3
ENDBRANCH   1   2
END_RES ARG D 557
BEGIN_RES GLU D 570
REMARK  3 active torsions:
REMARK  status: ('A' for Active; 'I' for Inactive)
REMARK    5  A    between atoms: CA   and  CB  
REMARK    6  A    between atoms: CB   and  CG  
REMARK    7  A    between atoms: CG   and  CD  
ROOT
ATOM     14  CA  GLU D 570     -18.033  -6.348 -13.375  1.00 32.92     0.160 C 
ENDROOT
BRANCH  14  15
ATOM     15  CB  GLU D 570     -19.500  -6.345 -13.794  1.00 32.92     0.043 C 
BRANCH  15  16
ATOM     16  CG  GLU D 570     -20.448  -5.560 -12.962  1.00 32.92     0.100 C 
BRANCH  16  17
ATOM     17  CD  GLU D 570     -21.697  -5.159 -13.711  1.00 32.92     0.185 C 
ATOM     18  OE1 GLU D 570     -22.705  -4.811 -13.066  1.00 32.92    -0.647 OA
ATOM     19  OE2 GLU D 570     -21.673  -5.209 -14.957  1.00 32.92    -0.647 OA
ENDBRANCH  16  17
ENDBRANCH  15  16
ENDBRANCH  14  15
END_RES GLU D 570
ENDMDL
MODEL 2
REMARK VINA RESULT:      -3.9      6.151      6.682
REMARK  4 active torsions:
REMARK  status: ('A' for Active; 'I' for Inactive)
REMARK    1  A    between atoms: C_1  and  C_2 
REMARK    2  A    between atoms: C_1  and  O_6 
REMARK    3  A    between atoms: C_2  and  C_4 
REMARK    4  A    between atoms: C_4  and  O_5 
ROOT
HETATM    1  C   UNL     1     -26.653  -6.846 -15.798  1.00  0.00     0.173 C 
HETATM    2  O   UNL     1     -27.347  -7.580 -15.087  1.00  0.00    -0.293 OA
ENDROOT
BRANCH   1   3
HETATM    3  C   UNL     1     -25.131  -6.853 -15.720  1.00  0.00     0.244 C 
BRANCH   3   4
HETATM    4  O   UNL     1     -24.587  -5.590 -15.379  1.00  0.00    -0.394 OA
HETATM    5  H   UNL     1     -24.491  -5.089 -16.213  1.00  0.00     0.209 HD
ENDBRANCH   3   4
ENDBRANCH   1   3
BRANCH   1   6
HETATM    6  C   UNL     1     -27.267  -5.885 -16.807  1.00  0.00     0.244 C 
BRANCH   6   7
HETATM    7  O   UNL     1     -27.017  -4.524 -16.505  1.00  0.00    -0.394 OA
HETATM    8  H   UNL     1     -27.876  -4.060 -16.572  1.00  0.00     0.209 HD
ENDBRANCH   6   7
ENDBRANCH   1   6
TORSDOF 4
BEGIN_RES ARG D 557
REMARK  4 active torsions:
REMARK  status: ('A' for Active; 'I' for Inactive)
REMARK    1  A    between atoms: CA   and  CB  
REMARK    2  A    between atoms: CB   and  CG  
REMARK    3  A    between atoms: CG   and  CD  
REMARK    4  A    between atoms: CD   and  NE  
REMARK       I    between atoms: NE   and  CZ  
REMARK       I    between atoms: CZ   and  NH1 
REMARK       I    between atoms: CZ   and  NH2 
ROOT
ATOM      1  CA  ARG D 557     -26.217   2.705 -17.014  1.00 35.49     0.159 C 
ENDROOT
BRANCH   1   2
ATOM      2  CB  ARG D 557     -26.789   1.319 -17.183  1.00 35.49     0.034 C 
BRANCH   2   3
ATOM      3  CG  ARG D 557     -25.863   0.195 -16.997  1.00 35.49     0.027 C 
BRANCH   3   4
ATOM      4  CD  ARG D 557     -26.258  -0.681 -15.870  1.00 35.49     0.116 C 
BRANCH   4   5
ATOM      5  NE  ARG D 557     -25.165  -0.927 -14.967  1.00 35.49    -0.212 N 
ATOM      6  CZ  ARG D 557     -24.957  -2.040 -14.298  1.00 35.49     0.666 C 
ATOM      7  NH1 ARG D 557     -25.768  -3.078 -14.380  1.00 35.49    -0.235 N 
ATOM      8  NH2 ARG D 557     -23.901  -2.095 -13.540  1.00 35.49    -0.235 N 
ATOM      9  HH  ARG D 557     -26.467  -3.064 -14.875  1.00 35.49     0.174 HD
ATOM     10  HH  ARG D 557     -25.580  -3.778 -13.923  1.00 35.49     0.174 HD
ATOM     11  HH  ARG D 557     -23.391  -1.412 -13.512  1.00 35.49     0.174 HD
ATOM     12  HH  ARG D 557     -23.731  -2.798 -13.096  1.00 35.49     0.174 HD
ATOM     13  HE  ARG D 557     -24.633  -0.285 -14.798  1.00 35.49     0.178 HD
ENDBRANCH   4   5
ENDBRANCH   3   4
ENDBRANCH   2   3
ENDBRANCH   1   2
END_RES ARG D 557
BEGIN_RES GLU D 570
REMARK  3 active torsions:
REMARK  status: ('A' for Active; 'I' for Inactive)
REMARK    5  A    between atoms: CA   and  CB  
REMARK    6  A    between atoms: CB   and  CG  
REMARK    7  A    between atoms: CG   and  CD  
ROOT
ATOM     14  CA  GLU D 570     -18.033  -6.348 -13.375  1.00 32.92     0.160 C 
ENDROOT
BRANCH  14  15
ATOM     15  CB  GLU D 570     -19.500  -6.345 -13.794  1.00 32.92     0.043 C 
BRANCH  15  16
ATOM     16  CG  GLU D 570     -20.446  -5.549 -12.970  1.00 32.92     0.100 C 
BRANCH  16  17
ATOM     17  CD  GLU D 570     -21.690  -5.145 -13.726  1.00 32.92     0.185 C 
ATOM     18  OE1 GLU D 570     -21.634  -5.024 -14.964  1.00 32.92    -0.647 OA
ATOM     19  OE2 GLU D 570     -22.729  -4.932 -13.070  1.00 32.92    -0.647 OA
ENDBRANCH  16  17
ENDBRANCH  15  16
ENDBRANCH  14  15
END_RES GLU D 570
ENDMDL
MODEL 3
REMARK VINA RESULT:      -3.8      8.665     10.161
REMARK  4 active torsions:
REMARK  status: ('A' for Active; 'I' for Inactive)
REMARK    1  A    between atoms: C_1  and  C_2 
REMARK    2  A    between atoms: C_1  and  O_6 
REMARK    3  A    between atoms: C_2  and  C_4 
REMARK    4  A    between atoms: C_4  and  O_5 
ROOT
HETATM    1  C   UNL     1     -23.788  -2.579 -13.186  1.00  0.00     0.173 C 
HETATM    2  O   UNL     1     -24.921  -3.026 -12.983  1.00  0.00    -0.293 OA
ENDROOT
BRANCH   1   3
HETATM    3  C   UNL     1     -23.416  -1.887 -14.491  1.00  0.00     0.244 C 
BRANCH   3   4
HETATM    4  O   UNL     1     -22.497  -2.631 -15.272  1.00  0.00    -0.394 OA
HETATM    5  H   UNL     1     -21.605  -2.302 -15.048  1.00  0.00     0.209 HD
ENDBRANCH   3   4
ENDBRANCH   1   3
BRANCH   1   6
HETATM    6  C   UNL     1     -22.682  -2.685 -12.146  1.00  0.00     0.244 C 
BRANCH   6   7
HETATM    7  O   UNL     1     -21.554  -3.413 -12.600  1.00  0.00    -0.394 OA
HETATM    8  H   UNL     1     -20.838  -3.255 -11.952  1.00  0.00     0.209 HD
ENDBRANCH   6   7
ENDBRANCH   1   6
TORSDOF 4
BEGIN_RES ARG D 557
REMARK  4 active torsions:
REMARK  status: ('A' for Active; 'I' for Inactive)
REMARK    1  A    between atoms: CA   and  CB  
REMARK    2  A    between atoms: CB   and  CG  
REMARK    3  A    between atoms: CG   and  CD  
REMARK    4  A    between atoms: CD   and  NE  
REMARK       I    between atoms: NE   and  CZ  
REMARK       I    between atoms: CZ   and  NH1 
REMARK       I    between atoms: CZ   and  NH2 
ROOT
ATOM      1  CA  ARG D 557     -26.217   2.705 -17.014  1.00 35.49     0.159 C 
ENDROOT
BRANCH   1   2
ATOM      2  CB  ARG D 557     -26.789   1.319 -17.183  1.00 35.49     0.034 C 
BRANCH   2   3
ATOM      3  CG  ARG D 557     -28.227   1.162 -16.932  1.00 35.49     0.027 C 
BRANCH   3   4
ATOM      4  CD  ARG D 557     -28.635  -0.259 -16.854  1.00 35.49     0.116 C 
BRANCH   4   5
ATOM      5  NE  ARG D 557     -27.673  -1.061 -16.145  1.00 35.49    -0.212 N 
ATOM      6  CZ  ARG D 557     -27.563  -2.369 -16.215  1.00 35.49     0.666 C 
ATOM      7  NH1 ARG D 557     -28.362  -3.109 -16.961  1.00 35.49    -0.235 N 
ATOM      8  NH2 ARG D 557     -26.617  -2.930 -15.518  1.00 35.49    -0.235 N 
ATOM      9  HH  ARG D 557     -28.989  -2.761 -17.429  1.00 35.49     0.174 HD
ATOM     10  HH  ARG D 557     -28.241  -3.957 -16.969  1.00 35.49     0.174 HD
ATOM     11  HH  ARG D 557     -26.112  -2.426 -15.051  1.00 35.49     0.174 HD
ATOM     12  HH  ARG D 557     -26.513  -3.771 -15.540  1.00 35.49     0.174 HD
ATOM     13  HE  ARG D 557     -27.165  -0.673 -15.584  1.00 35.49     0.178 HD
ENDBRANCH   4   5
ENDBRANCH   3   4
ENDBRANCH   2   3
ENDBRANCH   1   2
END_RES ARG D 557
BEGIN_RES GLU D 570
REMARK  3 active torsions:
REMARK  status: ('A' for Active; 'I' for Inactive)
REMARK    5  A    between atoms: CA   and  CB  
REMARK    6  A    between atoms: CB   and  CG  
REMARK    7  A    between atoms: CG   and  CD  
ROOT
ATOM     14  CA  GLU D 570     -18.033  -6.348 -13.375  1.00 32.92     0.160 C 
ENDROOT
BRANCH  14  15
ATOM     15  CB  GLU D 570     -19.500  -6.345 -13.794  1.00 32.92     0.043 C 
BRANCH  15  16
ATOM     16  CG  GLU D 570     -19.798  -6.183 -15.240  1.00 32.92     0.100 C 
BRANCH  16  17
ATOM     17  CD  GLU D 570     -21.147  -5.551 -15.497  1.00 32.92     0.185 C 
ATOM     18  OE1 GLU D 570     -21.419  -5.152 -16.645  1.00 32.92    -0.647 OA
ATOM     19  OE2 GLU D 570     -21.932  -5.439 -14.536  1.00 32.92    -0.647 OA
ENDBRANCH  16  17
ENDBRANCH  15  16
ENDBRANCH  14  15
END_RES GLU D 570
ENDMDL
MODEL 4
REMARK VINA RESULT:      -3.8      8.460     10.006
REMARK  4 active torsions:
REMARK  status: ('A' for Active; 'I' for Inactive)
REMARK    1  A    between atoms: C_1  and  C_2 
REMARK    2  A    between atoms: C_1  and  O_6 
REMARK    3  A    between atoms: C_2  and  C_4 
REMARK    4  A    between atoms: C_4  and  O_5 
ROOT
HETATM    1  C   UNL     1     -23.937  -3.834 -10.653  1.00  0.00     0.173 C 
HETATM    2  O   UNL     1     -24.954  -3.244 -11.032  1.00  0.00    -0.293 OA
ENDROOT
BRANCH   1   3
HETATM    3  C   UNL     1     -23.352  -3.620  -9.263  1.00  0.00     0.244 C 
BRANCH   3   4
HETATM    4  O   UNL     1     -24.252  -3.960  -8.223  1.00  0.00    -0.394 OA
HETATM    5  H   UNL     1     -24.954  -4.508  -8.624  1.00  0.00     0.209 HD
ENDBRANCH   3   4
ENDBRANCH   1   3
BRANCH   1   6
HETATM    6  C   UNL     1     -23.197  -4.820 -11.546  1.00  0.00     0.244 C 
BRANCH   6   7
HETATM    7  O   UNL     1     -23.720  -4.885 -12.861  1.00  0.00    -0.394 OA
HETATM    8  H   UNL     1     -23.273  -4.183 -13.376  1.00  0.00     0.209 HD
ENDBRANCH   6   7
ENDBRANCH   1   6
TORSDOF 4
BEGIN_RES ARG D 557
REMARK  4 active torsions:
REMARK  status: ('A' for Active; 'I' for Inactive)
REMARK    1  A    between atoms: CA   and  CB  
REMARK    2  A    between atoms: CB   and  CG  
REMARK    3  A    between atoms: CG   and  CD  
REMARK    4  A    between atoms: CD   and  NE  
REMARK       I    between atoms: NE   and  CZ  
REMARK       I    between atoms: CZ   and  NH1 
REMARK       I    between atoms: CZ   and  NH2 
ROOT
ATOM      1  CA  ARG D 557     -26.217   2.705 -17.014  1.00 35.49     0.159 C 
ENDROOT
BRANCH   1   2
ATOM      2  CB  ARG D 557     -26.789   1.319 -17.183  1.00 35.49     0.034 C 
BRANCH   2   3
ATOM      3  CG  ARG D 557     -25.854   0.196 -17.037  1.00 35.49     0.027 C 
BRANCH   3   4
ATOM      4  CD  ARG D 557     -26.172  -0.654 -15.868  1.00 35.49     0.116 C 
BRANCH   4   5
ATOM      5  NE  ARG D 557     -25.030  -0.851 -15.014  1.00 35.49    -0.212 N 
ATOM      6  CZ  ARG D 557     -24.819  -1.892 -14.241  1.00 35.49     0.666 C 
ATOM      7  NH1 ARG D 557     -25.673  -2.896 -14.154  1.00 35.49    -0.235 N 
ATOM      8  NH2 ARG D 557     -23.717  -1.913 -13.550  1.00 35.49    -0.235 N 
ATOM      9  HH  ARG D 557     -26.404  -2.903 -14.602  1.00 35.49     0.174 HD
ATOM     10  HH  ARG D 557     -25.481  -3.550 -13.635  1.00 35.49     0.174 HD
ATOM     11  HH  ARG D 557     -23.180  -1.255 -13.631  1.00 35.49     0.174 HD
ATOM     12  HH  ARG D 557     -23.544  -2.571 -13.042  1.00 35.49     0.174 HD
ATOM     13  HE  ARG D 557     -24.464  -0.219 -14.953  1.00 35.49     0.178 HD
ENDBRANCH   4   5
ENDBRANCH   3   4
ENDBRANCH   2   3
ENDBRANCH   1   2
END_RES ARG D 557
BEGIN_RES GLU D 570
REMARK  3 active torsions:
REMARK  status: ('A' for Active; 'I' for Inactive)
REMARK    5  A    between atoms: CA   and  CB  
REMARK    6  A    between atoms: CB   and  CG  
REMARK    7  A    between atoms: CG   and  CD  
ROOT
ATOM     14  CA  GLU D 570     -18.033  -6.348 -13.375  1.00 32.92     0.160 C 
ENDROOT
BRANCH  14  15
ATOM     15  CB  GLU D 570     -19.500  -6.345 -13.794  1.00 32.92     0.043 C 
BRANCH  15  16
ATOM     16  CG  GLU D 570     -19.816  -5.904 -15.177  1.00 32.92     0.100 C 
BRANCH  16  17
ATOM     17  CD  GLU D 570     -21.286  -5.624 -15.385  1.00 32.92     0.185 C 
ATOM     18  OE1 GLU D 570     -21.624  -4.664 -16.104  1.00 32.92    -0.647 OA
ATOM     19  OE2 GLU D 570     -22.109  -6.362 -14.809  1.00 32.92    -0.647 OA
ENDBRANCH  16  17
ENDBRANCH  15  16
ENDBRANCH  14  15
END_RES GLU D 570
ENDMDL
MODEL 5
REMARK VINA RESULT:      -3.7      8.747     10.214
REMARK  4 active torsions:
REMARK  status: ('A' for Active; 'I' for Inactive)
REMARK    1  A    between atoms: C_1  and  C_2 
REMARK    2  A    between atoms: C_1  and  O_6 
REMARK    3  A    between atoms: C_2  and  C_4 
REMARK    4  A    between atoms: C_4  and  O_5 
ROOT
HETATM    1  C   UNL     1     -24.173  -3.113 -11.540  1.00  0.00     0.173 C 
HETATM    2  O   UNL     1     -25.048  -3.010 -12.407  1.00  0.00    -0.293 OA
ENDROOT
BRANCH   1   3
HETATM    3  C   UNL     1     -24.497  -3.546 -10.116  1.00  0.00     0.244 C 
BRANCH   3   4
HETATM    4  O   UNL     1     -25.824  -3.234  -9.729  1.00  0.00    -0.394 OA
HETATM    5  H   UNL     1     -26.072  -3.871  -9.031  1.00  0.00     0.209 HD
ENDBRANCH   3   4
ENDBRANCH   1   3
BRANCH   1   6
HETATM    6  C   UNL     1     -22.709  -2.819 -11.834  1.00  0.00     0.244 C 
BRANCH   6   7
HETATM    7  O   UNL     1     -22.367  -2.989 -13.198  1.00  0.00    -0.394 OA
HETATM    8  H   UNL     1     -22.423  -3.948 -13.384  1.00  0.00     0.209 HD
ENDBRANCH   6   7
ENDBRANCH   1   6
TORSDOF 4
BEGIN_RES ARG D 557
REMARK  4 active torsions:
REMARK  status: ('A' for Active; 'I' for Inactive)
REMARK    1  A    between atoms: CA   and  CB  
REMARK    2  A    between atoms: CB   and  CG  
REMARK    3  A    between atoms: CG   and  CD  
REMARK    4  A    between atoms: CD   and  NE  
REMARK       I    between atoms: NE   and  CZ  
REMARK       I    between atoms: CZ   and  NH1 
REMARK       I    between atoms: CZ   and  NH2 
ROOT
ATOM      1  CA  ARG D 557     -26.217   2.705 -17.014  1.00 35.49     0.159 C 
ENDROOT
BRANCH   1   2
ATOM      2  CB  ARG D 557     -26.789   1.319 -17.183  1.00 35.49     0.034 C 
BRANCH   2   3
ATOM      3  CG  ARG D 557     -28.215   1.151 -16.876  1.00 35.49     0.027 C 
BRANCH   3   4
ATOM      4  CD  ARG D 557     -28.572  -0.262 -16.614  1.00 35.49     0.116 C 
BRANCH   4   5
ATOM      5  NE  ARG D 557     -27.535  -0.961 -15.901  1.00 35.49    -0.212 N 
ATOM      6  CZ  ARG D 557     -27.300  -2.252 -15.960  1.00 35.49     0.666 C 
ATOM      7  NH1 ARG D 557     -28.027  -3.073 -16.694  1.00 35.49    -0.235 N 
ATOM      8  NH2 ARG D 557     -26.302  -2.712 -15.262  1.00 35.49    -0.235 N 
ATOM      9  HH  ARG D 557     -28.687  -2.792 -17.163  1.00 35.49     0.174 HD
ATOM     10  HH  ARG D 557     -27.824  -3.906 -16.695  1.00 35.49     0.174 HD
ATOM     11  HH  ARG D 557     -25.845  -2.158 -14.803  1.00 35.49     0.174 HD
ATOM     12  HH  ARG D 557     -26.117  -3.540 -15.277  1.00 35.49     0.174 HD
ATOM     13  HE  ARG D 557     -27.064  -0.520 -15.347  1.00 35.49     0.178 HD
ENDBRANCH   4   5
ENDBRANCH   3   4
ENDBRANCH   2   3
ENDBRANCH   1   2
END_RES ARG D 557
BEGIN_RES GLU D 570
REMARK  3 active torsions:
REMARK  status: ('A' for Active; 'I' for Inactive)
REMARK    5  A    between atoms: CA   and  CB  
REMARK    6  A    between atoms: CB   and  CG  
REMARK    7  A    between atoms: CG   and  CD  
ROOT
ATOM     14  CA  GLU D 570     -18.033  -6.348 -13.375  1.00 32.92     0.160 C 
ENDROOT
BRANCH  14  15
ATOM     15  CB  GLU D 570     -19.500  -6.345 -13.794  1.00 32.92     0.043 C 
BRANCH  15  16
ATOM     16  CG  GLU D 570     -19.805  -6.044 -15.217  1.00 32.92     0.100 C 
BRANCH  16  17
ATOM     17  CD  GLU D 570     -21.197  -5.492 -15.417  1.00 32.92     0.185 C 
ATOM     18  OE1 GLU D 570     -21.506  -5.016 -16.526  1.00 32.92    -0.647 OA
ATOM     19  OE2 GLU D 570     -21.982  -5.519 -14.448  1.00 32.92    -0.647 OA
ENDBRANCH  16  17
ENDBRANCH  15  16
ENDBRANCH  14  15
END_RES GLU D 570
ENDMDL
MODEL 6
REMARK VINA RESULT:      -3.7      8.751     10.220
REMARK  4 active torsions:
REMARK  status: ('A' for Active; 'I' for Inactive)
REMARK    1  A    between atoms: C_1  and  C_2 
REMARK    2  A    between atoms: C_1  and  O_6 
REMARK    3  A    between atoms: C_2  and  C_4 
REMARK    4  A    between atoms: C_4  and  O_5 
ROOT
HETATM    1  C   UNL     1     -24.184  -3.252 -11.410  1.00  0.00     0.173 C 
HETATM    2  O   UNL     1     -25.020  -2.997 -12.283  1.00  0.00    -0.293 OA
ENDROOT
BRANCH   1   3
HETATM    3  C   UNL     1     -22.708  -3.438 -11.738  1.00  0.00     0.244 C 
BRANCH   3   4
HETATM    4  O   UNL     1     -22.374  -3.020 -13.050  1.00  0.00    -0.394 OA
HETATM    5  H   UNL     1     -21.879  -3.754 -13.463  1.00  0.00     0.209 HD
ENDBRANCH   3   4
ENDBRANCH   1   3
BRANCH   1   6
HETATM    6  C   UNL     1     -24.568  -3.394  -9.944  1.00  0.00     0.244 C 
BRANCH   6   7
HETATM    7  O   UNL     1     -25.960  -3.270  -9.715  1.00  0.00    -0.394 OA
HETATM    8  H   UNL     1     -26.373  -3.100 -10.585  1.00  0.00     0.209 HD
ENDBRANCH   6   7
ENDBRANCH   1   6
TORSDOF 4
BEGIN_RES ARG D 557
REMARK  4 active torsions:
REMARK  status: ('A' for Active; 'I' for Inactive)
REMARK    1  A    between atoms: CA   and  CB  
REMARK    2  A    between atoms: CB   and  CG  
REMARK    3  A    between atoms: CG   and  CD  
REMARK    4  A    between atoms: CD   and  NE  
REMARK       I    between atoms: NE   and  CZ  
REMARK       I    between atoms: CZ   and  NH1 
REMARK       I    between atoms: CZ   and  NH2 
ROOT
ATOM      1  CA  ARG D 557     -26.217   2.705 -17.014  1.00 35.49     0.159 C 
ENDROOT
BRANCH   1   2
ATOM      2  CB  ARG D 557     -26.789   1.319 -17.183  1.00 35.49     0.034 C 
BRANCH   2   3
ATOM      3  CG  ARG D 557     -28.196   1.135 -16.808  1.00 35.49     0.027 C 
BRANCH   3   4
ATOM      4  CD  ARG D 557     -28.537  -0.287 -16.574  1.00 35.49     0.116 C 
BRANCH   4   5
ATOM      5  NE  ARG D 557     -27.499  -0.982 -15.858  1.00 35.49    -0.212 N 
ATOM      6  CZ  ARG D 557     -27.256  -2.272 -15.919  1.00 35.49     0.666 C 
ATOM      7  NH1 ARG D 557     -27.974  -3.095 -16.660  1.00 35.49    -0.235 N 
ATOM      8  NH2 ARG D 557     -26.260  -2.729 -15.217  1.00 35.49    -0.235 N 
ATOM      9  HH  ARG D 557     -28.633  -2.816 -17.132  1.00 35.49     0.174 HD
ATOM     10  HH  ARG D 557     -27.768  -3.927 -16.662  1.00 35.49     0.174 HD
ATOM     11  HH  ARG D 557     -25.809  -2.173 -14.754  1.00 35.49     0.174 HD
ATOM     12  HH  ARG D 557     -26.070  -3.555 -15.234  1.00 35.49     0.174 HD
ATOM     13  HE  ARG D 557     -27.034  -0.540 -15.300  1.00 35.49     0.178 HD
ENDBRANCH   4   5
ENDBRANCH   3   4
ENDBRANCH   2   3
ENDBRANCH   1   2
END_RES ARG D 557
BEGIN_RES GLU D 570
REMARK  3 active torsions:
REMARK  status: ('A' for Active; 'I' for Inactive)
REMARK    5  A    between atoms: CA   and  CB  
REMARK    6  A    between atoms: CB   and  CG  
REMARK    7  A    between atoms: CG   and  CD  
ROOT
ATOM     14  CA  GLU D 570     -18.033  -6.348 -13.375  1.00 32.92     0.160 C 
ENDROOT
BRANCH  14  15
ATOM     15  CB  GLU D 570     -19.500  -6.345 -13.794  1.00 32.92     0.043 C 
BRANCH  15  16
ATOM     16  CG  GLU D 570     -19.808  -5.998 -15.205  1.00 32.92     0.100 C 
BRANCH  16  17
ATOM     17  CD  GLU D 570     -21.207  -5.456 -15.387  1.00 32.92     0.185 C 
ATOM     18  OE1 GLU D 570     -22.024  -5.566 -14.454  1.00 32.92    -0.647 OA
ATOM     19  OE2 GLU D 570     -21.492  -4.931 -16.481  1.00 32.92    -0.647 OA
ENDBRANCH  16  17
ENDBRANCH  15  16
ENDBRANCH  14  15
END_RES GLU D 570
ENDMDL
MODEL 7
REMARK VINA RESULT:      -3.6      8.722     10.302
REMARK  4 active torsions:
REMARK  status: ('A' for Active; 'I' for Inactive)
REMARK    1  A    between atoms: C_1  and  C_2 
REMARK    2  A    between atoms: C_1  and  O_6 
REMARK    3  A    between atoms: C_2  and  C_4 
REMARK    4  A    between atoms: C_4  and  O_5 
ROOT
HETATM    1  C   UNL     1     -35.632  -0.494 -15.115  1.00  0.00     0.173 C 
HETATM    2  O   UNL     1     -35.866  -1.155 -14.098  1.00  0.00    -0.293 OA
ENDROOT
BRANCH   1   3
HETATM    3  C   UNL     1     -35.530  -1.140 -16.491  1.00  0.00     0.244 C 
BRANCH   3   4
HETATM    4  O   UNL     1     -36.564  -0.735 -17.372  1.00  0.00    -0.394 OA
HETATM    5  H   UNL     1     -36.628  -1.420 -18.066  1.00  0.00     0.209 HD
ENDBRANCH   3   4
ENDBRANCH   1   3
BRANCH   1   6
HETATM    6  C   UNL     1     -35.431   1.015 -15.067  1.00  0.00     0.244 C 
BRANCH   6   7
HETATM    7  O   UNL     1     -36.304   1.723 -15.930  1.00  0.00    -0.394 OA
HETATM    8  H   UNL     1     -37.147   1.227 -15.945  1.00  0.00     0.209 HD
ENDBRANCH   6   7
ENDBRANCH   1   6
TORSDOF 4
BEGIN_RES ARG D 557
REMARK  4 active torsions:
REMARK  status: ('A' for Active; 'I' for Inactive)
REMARK    1  A    between atoms: CA   and  CB  
REMARK    2  A    between atoms: CB   and  CG  
REMARK    3  A    between atoms: CG   and  CD  
REMARK    4  A    between atoms: CD   and  NE  
REMARK       I    between atoms: NE   and  CZ  
REMARK       I    between atoms: CZ   and  NH1 
REMARK       I    between atoms: CZ   and  NH2 
ROOT
ATOM      1  CA  ARG D 557     -26.217   2.705 -17.014  1.00 35.49     0.159 C 
ENDROOT
BRANCH   1   2
ATOM      2  CB  ARG D 557     -26.789   1.319 -17.183  1.00 35.49     0.034 C 
BRANCH   2   3
ATOM      3  CG  ARG D 557     -25.834   0.204 -17.169  1.00 35.49     0.027 C 
BRANCH   3   4
ATOM      4  CD  ARG D 557     -24.750   0.402 -16.180  1.00 35.49     0.116 C 
BRANCH   4   5
ATOM      5  NE  ARG D 557     -24.901  -0.450 -15.031  1.00 35.49    -0.212 N 
ATOM      6  CZ  ARG D 557     -24.077  -1.409 -14.672  1.00 35.49     0.666 C 
ATOM      7  NH1 ARG D 557     -22.993  -1.708 -15.363  1.00 35.49    -0.235 N 
ATOM      8  NH2 ARG D 557     -24.361  -2.069 -13.586  1.00 35.49    -0.235 N 
ATOM      9  HH  ARG D 557     -22.786  -1.286 -16.079  1.00 35.49     0.174 HD
ATOM     10  HH  ARG D 557     -22.491  -2.342 -15.079  1.00 35.49     0.174 HD
ATOM     11  HH  ARG D 557     -25.064  -1.849 -13.156  1.00 35.49     0.174 HD
ATOM     12  HH  ARG D 557     -23.851  -2.692 -13.321  1.00 35.49     0.174 HD
ATOM     13  HE  ARG D 557     -25.611  -0.375 -14.569  1.00 35.49     0.178 HD
ENDBRANCH   4   5
ENDBRANCH   3   4
ENDBRANCH   2   3
ENDBRANCH   1   2
END_RES ARG D 557
BEGIN_RES GLU D 570
REMARK  3 active torsions:
REMARK  status: ('A' for Active; 'I' for Inactive)
REMARK    5  A    between atoms: CA   and  CB  
REMARK    6  A    between atoms: CB   and  CG  
REMARK    7  A    between atoms: CG   and  CD  
ROOT
ATOM     14  CA  GLU D 570     -18.033  -6.348 -13.375  1.00 32.92     0.160 C 
ENDROOT
BRANCH  14  15
ATOM     15  CB  GLU D 570     -19.500  -6.345 -13.794  1.00 32.92     0.043 C 
BRANCH  15  16
ATOM     16  CG  GLU D 570     -20.441  -5.527 -12.986  1.00 32.92     0.100 C 
BRANCH  16  17
ATOM     17  CD  GLU D 570     -21.735  -5.232 -13.708  1.00 32.92     0.185 C 
ATOM     18  OE1 GLU D 570     -22.352  -4.183 -13.440  1.00 32.92    -0.647 OA
ATOM     19  OE2 GLU D 570     -22.144  -6.066 -14.539  1.00 32.92    -0.647 OA
ENDBRANCH  16  17
ENDBRANCH  15  16
ENDBRANCH  14  15
END_RES GLU D 570
ENDMDL
MODEL 8
REMARK VINA RESULT:      -3.6      8.989     10.657
REMARK  4 active torsions:
REMARK  status: ('A' for Active; 'I' for Inactive)
REMARK    1  A    between atoms: C_1  and  C_2 
REMARK    2  A    between atoms: C_1  and  O_6 
REMARK    3  A    between atoms: C_2  and  C_4 
REMARK    4  A    between atoms: C_4  and  O_5 
ROOT
HETATM    1  C   UNL     1     -22.994  -3.739  -9.700  1.00  0.00     0.173 C 
HETATM    2  O   UNL     1     -22.141  -3.289 -10.472  1.00  0.00    -0.293 OA
ENDROOT
BRANCH   1   3
HETATM    3  C   UNL     1     -22.654  -4.151  -8.273  1.00  0.00     0.244 C 
BRANCH   3   4
HETATM    4  O   UNL     1     -23.793  -4.246  -7.436  1.00  0.00    -0.394 OA
HETATM    5  H   UNL     1     -24.530  -4.560  -7.995  1.00  0.00     0.209 HD
ENDBRANCH   3   4
ENDBRANCH   1   3
BRANCH   1   6
HETATM    6  C   UNL     1     -24.448  -3.913 -10.118  1.00  0.00     0.244 C 
BRANCH   6   7
HETATM    7  O   UNL     1     -25.323  -2.990  -9.493  1.00  0.00    -0.394 OA
HETATM    8  H   UNL     1     -25.048  -2.933  -8.556  1.00  0.00     0.209 HD
ENDBRANCH   6   7
ENDBRANCH   1   6
TORSDOF 4
BEGIN_RES ARG D 557
REMARK  4 active torsions:
REMARK  status: ('A' for Active; 'I' for Inactive)
REMARK    1  A    between atoms: CA   and  CB  
REMARK    2  A    between atoms: CB   and  CG  
REMARK    3  A    between atoms: CG   and  CD  
REMARK    4  A    between atoms: CD   and  NE  
REMARK       I    between atoms: NE   and  CZ  
REMARK       I    between atoms: CZ   and  NH1 
REMARK       I    between atoms: CZ   and  NH2 
ROOT
ATOM      1  CA  ARG D 557     -26.217   2.705 -17.014  1.00 35.49     0.159 C 
ENDROOT
BRANCH   1   2
ATOM      2  CB  ARG D 557     -26.789   1.319 -17.183  1.00 35.49     0.034 C 
BRANCH   2   3
ATOM      3  CG  ARG D 557     -25.867   0.195 -16.979  1.00 35.49     0.027 C 
BRANCH   3   4
ATOM      4  CD  ARG D 557     -26.303  -0.700 -15.882  1.00 35.49     0.116 C 
BRANCH   4   5
ATOM      5  NE  ARG D 557     -25.252  -0.938 -14.928  1.00 35.49    -0.212 N 
ATOM      6  CZ  ARG D 557     -24.975  -2.092 -14.362  1.00 35.49     0.666 C 
ATOM      7  NH1 ARG D 557     -25.668  -3.188 -14.611  1.00 35.49    -0.235 N 
ATOM      8  NH2 ARG D 557     -23.972  -2.129 -13.535  1.00 35.49    -0.235 N 
ATOM      9  HH  ARG D 557     -26.331  -3.187 -15.154  1.00 35.49     0.174 HD
ATOM     10  HH  ARG D 557     -25.440  -3.912 -14.215  1.00 35.49     0.174 HD
ATOM     11  HH  ARG D 557     -23.538  -1.408 -13.399  1.00 35.49     0.174 HD
ATOM     12  HH  ARG D 557     -23.760  -2.857 -13.154  1.00 35.49     0.174 HD
ATOM     13  HE  ARG D 557     -24.801  -0.271 -14.655  1.00 35.49     0.178 HD
ENDBRANCH   4   5
ENDBRANCH   3   4
ENDBRANCH   2   3
ENDBRANCH   1   2
END_RES ARG D 557
BEGIN_RES GLU D 570
REMARK  3 active torsions:
REMARK  status: ('A' for Active; 'I' for Inactive)
REMARK    5  A    between atoms: CA   and  CB  
REMARK    6  A    between atoms: CB   and  CG  
REMARK    7  A    between atoms: CG   and  CD  
ROOT
ATOM     14  CA  GLU D 570     -18.033  -6.348 -13.375  1.00 32.92     0.160 C 
ENDROOT
BRANCH  14  15
ATOM     15  CB  GLU D 570     -19.500  -6.345 -13.794  1.00 32.92     0.043 C 
BRANCH  15  16
ATOM     16  CG  GLU D 570     -20.440  -5.524 -12.988  1.00 32.92     0.100 C 
BRANCH  16  17
ATOM     17  CD  GLU D 570     -21.690  -5.144 -13.748  1.00 32.92     0.185 C 
ATOM     18  OE1 GLU D 570     -22.767  -5.044 -13.129  1.00 32.92    -0.647 OA
ATOM     19  OE2 GLU D 570     -21.594  -4.960 -14.977  1.00 32.92    -0.647 OA
ENDBRANCH  16  17
ENDBRANCH  15  16
ENDBRANCH  14  15
END_RES GLU D 570
ENDMDL
MODEL 9
REMARK VINA RESULT:      -3.4      8.609     10.355
REMARK  4 active torsions:
REMARK  status: ('A' for Active; 'I' for Inactive)
REMARK    1  A    between atoms: C_1  and  C_2 
REMARK    2  A    between atoms: C_1  and  O_6 
REMARK    3  A    between atoms: C_2  and  C_4 
REMARK    4  A    between atoms: C_4  and  O_5 
ROOT
HETATM    1  C   UNL     1     -22.915  -3.984  -9.922  1.00  0.00     0.173 C 
HETATM    2  O   UNL     1     -22.431  -4.841  -9.175  1.00  0.00    -0.293 OA
ENDROOT
BRANCH   1   3
HETATM    3  C   UNL     1     -22.141  -3.415 -11.104  1.00  0.00     0.244 C 
BRANCH   3   4
HETATM    4  O   UNL     1     -22.486  -4.020 -12.337  1.00  0.00    -0.394 OA
HETATM    5  H   UNL     1     -21.704  -3.947 -12.918  1.00  0.00     0.209 HD
ENDBRANCH   3   4
ENDBRANCH   1   3
BRANCH   1   6
HETATM    6  C   UNL     1     -24.321  -3.438  -9.717  1.00  0.00     0.244 C 
BRANCH   6   7
HETATM    7  O   UNL     1     -25.009  -3.194 -10.931  1.00  0.00    -0.394 OA
HETATM    8  H   UNL     1     -25.159  -2.229 -10.981  1.00  0.00     0.209 HD
ENDBRANCH   6   7
ENDBRANCH   1   6
TORSDOF 4
BEGIN_RES ARG D 557
REMARK  4 active torsions:
REMARK  status: ('A' for Active; 'I' for Inactive)
REMARK    1  A    between atoms: CA   and  CB  
REMARK    2  A    between atoms: CB   and  CG  
REMARK    3  A    between atoms: CG   and  CD  
REMARK    4  A    between atoms: CD   and  NE  
REMARK       I    between atoms: NE   and  CZ  
REMARK       I    between atoms: CZ   and  NH1 
REMARK       I    between atoms: CZ   and  NH2 
ROOT
ATOM      1  CA  ARG D 557     -26.217   2.705 -17.014  1.00 35.49     0.159 C 
ENDROOT
BRANCH   1   2
ATOM      2  CB  ARG D 557     -26.789   1.319 -17.183  1.00 35.49     0.034 C 
BRANCH   2   3
ATOM      3  CG  ARG D 557     -25.835   0.203 -17.161  1.00 35.49     0.027 C 
BRANCH   3   4
ATOM      4  CD  ARG D 557     -24.750   0.408 -16.175  1.00 35.49     0.116 C 
BRANCH   4   5
ATOM      5  NE  ARG D 557     -24.891  -0.449 -15.028  1.00 35.49    -0.212 N 
ATOM      6  CZ  ARG D 557     -24.070  -1.417 -14.686  1.00 35.49     0.666 C 
ATOM      7  NH1 ARG D 557     -23.000  -1.722 -15.396  1.00 35.49    -0.235 N 
ATOM      8  NH2 ARG D 557     -24.342  -2.080 -13.600  1.00 35.49    -0.235 N 
ATOM      9  HH  ARG D 557     -22.800  -1.298 -16.113  1.00 35.49     0.174 HD
ATOM     10  HH  ARG D 557     -22.499  -2.362 -15.123  1.00 35.49     0.174 HD
ATOM     11  HH  ARG D 557     -25.037  -1.856 -13.158  1.00 35.49     0.174 HD
ATOM     12  HH  ARG D 557     -23.834  -2.709 -13.345  1.00 35.49     0.174 HD
ATOM     13  HE  ARG D 557     -25.593  -0.370 -14.554  1.00 35.49     0.178 HD
ENDBRANCH   4   5
ENDBRANCH   3   4
ENDBRANCH   2   3
ENDBRANCH   1   2
END_RES ARG D 557
BEGIN_RES GLU D 570
REMARK  3 active torsions:
REMARK  status: ('A' for Active; 'I' for Inactive)
REMARK    5  A    between atoms: CA   and  CB  
REMARK    6  A    between atoms: CB   and  CG  
REMARK    7  A    between atoms: CG   and  CD  
ROOT
ATOM     14  CA  GLU D 570     -18.033  -6.348 -13.375  1.00 32.92     0.160 C 
ENDROOT
BRANCH  14  15
ATOM     15  CB  GLU D 570     -19.500  -6.345 -13.794  1.00 32.92     0.043 C 
BRANCH  15  16
ATOM     16  CG  GLU D 570     -19.828  -5.796 -15.135  1.00 32.92     0.100 C 
BRANCH  16  17
ATOM     17  CD  GLU D 570     -21.286  -5.428 -15.281  1.00 32.92     0.185 C 
ATOM     18  OE1 GLU D 570     -21.598  -4.475 -16.021  1.00 32.92    -0.647 OA
ATOM     19  OE2 GLU D 570     -22.123  -6.088 -14.635  1.00 32.92    -0.647 OA
ENDBRANCH  16  17
ENDBRANCH  15  16
ENDBRANCH  14  15
END_RES GLU D 570
ENDMDL
