MODEL 1
REMARK VINA RESULT:      -1.0      0.000      0.000
REMARK WARNING: 32 MAX_TORS EXCEEDED!!!
REMARK  78 active torsions:
REMARK  status: ('A' for Active; 'I' for Inactive)
REMARK    1  A    between atoms: C_2  and  C_3 
REMARK    2  A    between atoms: C_3  and  C_4 
REMARK    3  A    between atoms: C_4  and  C_5 
REMARK    4  A    between atoms: C_5  and  C_6 
REMARK    5  A    between atoms: C_6  and  C_7 
REMARK    6  A    between atoms: C_7  and  C_8 
REMARK    7  A    between atoms: C_8  and  C_9 
REMARK    8  A    between atoms: C_9  and  C_10 
REMARK    9  A    between atoms: C_10  and  C_11 
REMARK   10  A    between atoms: C_11  and  C_12 
REMARK   11  A    between atoms: C_12  and  C_13 
REMARK   12  A    between atoms: C_13  and  C_14 
REMARK   13  A    between atoms: C_14  and  C_15 
REMARK   14  A    between atoms: C_15  and  C_16 
REMARK   15  A    between atoms: C_16  and  C_17 
REMARK   16  A    between atoms: C_17  and  C_18 
REMARK       I    between atoms: C_18  and  N_20 
REMARK   17  A    between atoms: N_20  and  C_21 
REMARK   18  A    between atoms: C_21  and  C_22 
REMARK   19  A    between atoms: C_22  and  C_23 
REMARK   20  A    between atoms: C_23  and  N_24 
REMARK   21  A    between atoms: N_24  and  C_27 
REMARK   22  A    between atoms: C_27  and  C_28 
REMARK   23  A    between atoms: C_28  and  C_29 
REMARK   24  A    between atoms: C_28  and  O_95 
REMARK   25  A    between atoms: C_29  and  O_30 
REMARK   26  A    between atoms: O_30  and  P_31 
REMARK   27  A    between atoms: P_31  and  O_33 
REMARK   28  A    between atoms: P_31  and  O_64 
REMARK   29  A    between atoms: O_33  and  C_34 
REMARK   30  A    between atoms: C_34  and  C_35 
REMARK   31  A    between atoms: C_35  and  C_36 
REMARK   32  A    between atoms: C_35  and  O_63 
REMARK   33  A    between atoms: C_36  and  N_37 
REMARK   34  A    between atoms: N_37  and  C_40 
REMARK   35  A    between atoms: C_40  and  C_41 
REMARK   36  A    between atoms: C_41  and  C_42 
REMARK   37  A    between atoms: C_42  and  N_43 
REMARK       I    between atoms: N_43  and  C_44 
REMARK   38  A    between atoms: C_44  and  C_46 
REMARK   39  A    between atoms: C_46  and  C_47 
REMARK   40  A    between atoms: C_47  and  C_48 
REMARK   41  A    between atoms: C_48  and  C_49 
REMARK   42  A    between atoms: C_49  and  C_50 
REMARK   43  A    between atoms: C_50  and  C_51 
REMARK   44  A    between atoms: C_51  and  C_52 
REMARK   45  A    between atoms: C_52  and  C_53 
REMARK   46  A    between atoms: C_53  and  C_54 
REMARK   47  A    between atoms: C_54  and  C_55 
REMARK   48  A    between atoms: C_55  and  C_56 
REMARK   49  A    between atoms: C_56  and  C_57 
REMARK   50  A    between atoms: C_57  and  C_58 
REMARK   51  A    between atoms: C_58  and  C_59 
REMARK   52  A    between atoms: C_59  and  C_60 
REMARK   53  A    between atoms: C_60  and  C_61 
REMARK   54  A    between atoms: O_64  and  C_65 
REMARK   55  A    between atoms: C_65  and  C_66 
REMARK   56  A    between atoms: C_66  and  C_67 
REMARK   57  A    between atoms: C_66  and  O_94 
REMARK   58  A    between atoms: C_67  and  N_68 
REMARK   59  A    between atoms: N_68  and  C_71 
REMARK   60  A    between atoms: C_71  and  C_72 
REMARK   61  A    between atoms: C_72  and  C_73 
REMARK   62  A    between atoms: C_73  and  N_74 
REMARK       I    between atoms: N_74  and  C_75 
REMARK   63  A    between atoms: C_75  and  C_77 
REMARK   64  A    between atoms: C_77  and  C_78 
REMARK   65  A    between atoms: C_78  and  C_79 
REMARK   66  A    between atoms: C_79  and  C_80 
REMARK   67  A    between atoms: C_80  and  C_81 
REMARK   68  A    between atoms: C_81  and  C_82 
REMARK   69  A    between atoms: C_82  and  C_83 
REMARK   70  A    between atoms: C_83  and  C_84 
REMARK   71  A    between atoms: C_84  and  C_85 
REMARK   72  A    between atoms: C_85  and  C_86 
REMARK   73  A    between atoms: C_86  and  C_87 
REMARK   74  A    between atoms: C_87  and  C_88 
REMARK   75  A    between atoms: C_88  and  C_89 
REMARK   76  A    between atoms: C_89  and  C_90 
REMARK   77  A    between atoms: C_90  and  C_91 
REMARK   78  A    between atoms: C_91  and  C_92 
ROOT
HETATM    1 CL   UNL     2     -37.001   0.513  -4.883  1.00  0.00     0.000 Cl
ENDROOT
TORSDOF 78
BEGIN_RES ARG D 557
REMARK  4 active torsions:
REMARK  status: ('A' for Active; 'I' for Inactive)
REMARK    1  A    between atoms: CA   and  CB  
REMARK    2  A    between atoms: CB   and  CG  
REMARK    3  A    between atoms: CG   and  CD  
REMARK    4  A    between atoms: CD   and  NE  
REMARK       I    between atoms: NE   and  CZ  
REMARK       I    between atoms: CZ   and  NH1 
REMARK       I    between atoms: CZ   and  NH2 
ROOT
ATOM      1  CA  ARG D 557     -26.217   2.705 -17.014  1.00 35.49     0.159 C 
ENDROOT
BRANCH   1   2
ATOM      2  CB  ARG D 557     -26.789   1.319 -17.183  1.00 35.49     0.034 C 
BRANCH   2   3
ATOM      3  CG  ARG D 557     -25.834   0.204 -17.170  1.00 35.49     0.027 C 
BRANCH   3   4
ATOM      4  CD  ARG D 557     -24.744   0.406 -16.188  1.00 35.49     0.116 C 
BRANCH   4   5
ATOM      5  NE  ARG D 557     -24.894  -0.437 -15.031  1.00 35.49    -0.212 N 
ATOM      6  CZ  ARG D 557     -24.078  -1.404 -14.675  1.00 35.49     0.666 C 
ATOM      7  NH1 ARG D 557     -23.007  -1.723 -15.377  1.00 35.49    -0.235 N 
ATOM      8  NH2 ARG D 557     -24.358  -2.053 -13.582  1.00 35.49    -0.235 N 
ATOM      9  HH  ARG D 557     -22.802  -1.308 -16.099  1.00 35.49     0.174 HD
ATOM     10  HH  ARG D 557     -22.510  -2.361 -15.095  1.00 35.49     0.174 HD
ATOM     11  HH  ARG D 557     -25.052  -1.821 -13.145  1.00 35.49     0.174 HD
ATOM     12  HH  ARG D 557     -23.853  -2.681 -13.318  1.00 35.49     0.174 HD
ATOM     13  HE  ARG D 557     -25.597  -0.349 -14.561  1.00 35.49     0.178 HD
ENDBRANCH   4   5
ENDBRANCH   3   4
ENDBRANCH   2   3
ENDBRANCH   1   2
END_RES ARG D 557
BEGIN_RES GLU D 570
REMARK  3 active torsions:
REMARK  status: ('A' for Active; 'I' for Inactive)
REMARK    5  A    between atoms: CA   and  CB  
REMARK    6  A    between atoms: CB   and  CG  
REMARK    7  A    between atoms: CG   and  CD  
ROOT
ATOM     14  CA  GLU D 570     -18.033  -6.348 -13.375  1.00 32.92     0.160 C 
ENDROOT
BRANCH  14  15
ATOM     15  CB  GLU D 570     -19.500  -6.345 -13.794  1.00 32.92     0.043 C 
BRANCH  15  16
ATOM     16  CG  GLU D 570     -20.441  -5.529 -12.985  1.00 32.92     0.100 C 
BRANCH  16  17
ATOM     17  CD  GLU D 570     -21.740  -5.243 -13.702  1.00 32.92     0.185 C 
ATOM     18  OE1 GLU D 570     -22.297  -4.142 -13.530  1.00 32.92    -0.647 OA
ATOM     19  OE2 GLU D 570     -22.215  -6.137 -14.430  1.00 32.92    -0.647 OA
ENDBRANCH  16  17
ENDBRANCH  15  16
ENDBRANCH  14  15
END_RES GLU D 570
ENDMDL
MODEL 2
REMARK VINA RESULT:      -1.0      2.360      2.360
REMARK WARNING: 32 MAX_TORS EXCEEDED!!!
REMARK  78 active torsions:
REMARK  status: ('A' for Active; 'I' for Inactive)
REMARK    1  A    between atoms: C_2  and  C_3 
REMARK    2  A    between atoms: C_3  and  C_4 
REMARK    3  A    between atoms: C_4  and  C_5 
REMARK    4  A    between atoms: C_5  and  C_6 
REMARK    5  A    between atoms: C_6  and  C_7 
REMARK    6  A    between atoms: C_7  and  C_8 
REMARK    7  A    between atoms: C_8  and  C_9 
REMARK    8  A    between atoms: C_9  and  C_10 
REMARK    9  A    between atoms: C_10  and  C_11 
REMARK   10  A    between atoms: C_11  and  C_12 
REMARK   11  A    between atoms: C_12  and  C_13 
REMARK   12  A    between atoms: C_13  and  C_14 
REMARK   13  A    between atoms: C_14  and  C_15 
REMARK   14  A    between atoms: C_15  and  C_16 
REMARK   15  A    between atoms: C_16  and  C_17 
REMARK   16  A    between atoms: C_17  and  C_18 
REMARK       I    between atoms: C_18  and  N_20 
REMARK   17  A    between atoms: N_20  and  C_21 
REMARK   18  A    between atoms: C_21  and  C_22 
REMARK   19  A    between atoms: C_22  and  C_23 
REMARK   20  A    between atoms: C_23  and  N_24 
REMARK   21  A    between atoms: N_24  and  C_27 
REMARK   22  A    between atoms: C_27  and  C_28 
REMARK   23  A    between atoms: C_28  and  C_29 
REMARK   24  A    between atoms: C_28  and  O_95 
REMARK   25  A    between atoms: C_29  and  O_30 
REMARK   26  A    between atoms: O_30  and  P_31 
REMARK   27  A    between atoms: P_31  and  O_33 
REMARK   28  A    between atoms: P_31  and  O_64 
REMARK   29  A    between atoms: O_33  and  C_34 
REMARK   30  A    between atoms: C_34  and  C_35 
REMARK   31  A    between atoms: C_35  and  C_36 
REMARK   32  A    between atoms: C_35  and  O_63 
REMARK   33  A    between atoms: C_36  and  N_37 
REMARK   34  A    between atoms: N_37  and  C_40 
REMARK   35  A    between atoms: C_40  and  C_41 
REMARK   36  A    between atoms: C_41  and  C_42 
REMARK   37  A    between atoms: C_42  and  N_43 
REMARK       I    between atoms: N_43  and  C_44 
REMARK   38  A    between atoms: C_44  and  C_46 
REMARK   39  A    between atoms: C_46  and  C_47 
REMARK   40  A    between atoms: C_47  and  C_48 
REMARK   41  A    between atoms: C_48  and  C_49 
REMARK   42  A    between atoms: C_49  and  C_50 
REMARK   43  A    between atoms: C_50  and  C_51 
REMARK   44  A    between atoms: C_51  and  C_52 
REMARK   45  A    between atoms: C_52  and  C_53 
REMARK   46  A    between atoms: C_53  and  C_54 
REMARK   47  A    between atoms: C_54  and  C_55 
REMARK   48  A    between atoms: C_55  and  C_56 
REMARK   49  A    between atoms: C_56  and  C_57 
REMARK   50  A    between atoms: C_57  and  C_58 
REMARK   51  A    between atoms: C_58  and  C_59 
REMARK   52  A    between atoms: C_59  and  C_60 
REMARK   53  A    between atoms: C_60  and  C_61 
REMARK   54  A    between atoms: O_64  and  C_65 
REMARK   55  A    between atoms: C_65  and  C_66 
REMARK   56  A    between atoms: C_66  and  C_67 
REMARK   57  A    between atoms: C_66  and  O_94 
REMARK   58  A    between atoms: C_67  and  N_68 
REMARK   59  A    between atoms: N_68  and  C_71 
REMARK   60  A    between atoms: C_71  and  C_72 
REMARK   61  A    between atoms: C_72  and  C_73 
REMARK   62  A    between atoms: C_73  and  N_74 
REMARK       I    between atoms: N_74  and  C_75 
REMARK   63  A    between atoms: C_75  and  C_77 
REMARK   64  A    between atoms: C_77  and  C_78 
REMARK   65  A    between atoms: C_78  and  C_79 
REMARK   66  A    between atoms: C_79  and  C_80 
REMARK   67  A    between atoms: C_80  and  C_81 
REMARK   68  A    between atoms: C_81  and  C_82 
REMARK   69  A    between atoms: C_82  and  C_83 
REMARK   70  A    between atoms: C_83  and  C_84 
REMARK   71  A    between atoms: C_84  and  C_85 
REMARK   72  A    between atoms: C_85  and  C_86 
REMARK   73  A    between atoms: C_86  and  C_87 
REMARK   74  A    between atoms: C_87  and  C_88 
REMARK   75  A    between atoms: C_88  and  C_89 
REMARK   76  A    between atoms: C_89  and  C_90 
REMARK   77  A    between atoms: C_90  and  C_91 
REMARK   78  A    between atoms: C_91  and  C_92 
ROOT
HETATM    1 CL   UNL     2     -34.338  -5.929  -1.325  1.00  0.00     0.000 Cl
ENDROOT
TORSDOF 78
BEGIN_RES ARG D 557
REMARK  4 active torsions:
REMARK  status: ('A' for Active; 'I' for Inactive)
REMARK    1  A    between atoms: CA   and  CB  
REMARK    2  A    between atoms: CB   and  CG  
REMARK    3  A    between atoms: CG   and  CD  
REMARK    4  A    between atoms: CD   and  NE  
REMARK       I    between atoms: NE   and  CZ  
REMARK       I    between atoms: CZ   and  NH1 
REMARK       I    between atoms: CZ   and  NH2 
ROOT
ATOM      1  CA  ARG D 557     -26.217   2.705 -17.014  1.00 35.49     0.159 C 
ENDROOT
BRANCH   1   2
ATOM      2  CB  ARG D 557     -26.789   1.319 -17.183  1.00 35.49     0.034 C 
BRANCH   2   3
ATOM      3  CG  ARG D 557     -25.836   0.203 -17.153  1.00 35.49     0.027 C 
BRANCH   3   4
ATOM      4  CD  ARG D 557     -24.759   0.407 -16.158  1.00 35.49     0.116 C 
BRANCH   4   5
ATOM      5  NE  ARG D 557     -24.911  -0.447 -15.010  1.00 35.49    -0.212 N 
ATOM      6  CZ  ARG D 557     -24.098  -1.420 -14.663  1.00 35.49     0.666 C 
ATOM      7  NH1 ARG D 557     -23.026  -1.733 -15.366  1.00 35.49    -0.235 N 
ATOM      8  NH2 ARG D 557     -24.380  -2.080 -13.577  1.00 35.49    -0.235 N 
ATOM      9  HH  ARG D 557     -22.820  -1.310 -16.083  1.00 35.49     0.174 HD
ATOM     10  HH  ARG D 557     -22.531  -2.375 -15.090  1.00 35.49     0.174 HD
ATOM     11  HH  ARG D 557     -25.075  -1.851 -13.139  1.00 35.49     0.174 HD
ATOM     12  HH  ARG D 557     -23.877  -2.711 -13.319  1.00 35.49     0.174 HD
ATOM     13  HE  ARG D 557     -25.615  -0.363 -14.540  1.00 35.49     0.178 HD
ENDBRANCH   4   5
ENDBRANCH   3   4
ENDBRANCH   2   3
ENDBRANCH   1   2
END_RES ARG D 557
BEGIN_RES GLU D 570
REMARK  3 active torsions:
REMARK  status: ('A' for Active; 'I' for Inactive)
REMARK    5  A    between atoms: CA   and  CB  
REMARK    6  A    between atoms: CB   and  CG  
REMARK    7  A    between atoms: CG   and  CD  
ROOT
ATOM     14  CA  GLU D 570     -18.033  -6.348 -13.375  1.00 32.92     0.160 C 
ENDROOT
BRANCH  14  15
ATOM     15  CB  GLU D 570     -19.500  -6.345 -13.794  1.00 32.92     0.043 C 
BRANCH  15  16
ATOM     16  CG  GLU D 570     -20.442  -5.531 -12.983  1.00 32.92     0.100 C 
BRANCH  16  17
ATOM     17  CD  GLU D 570     -21.737  -5.237 -13.703  1.00 32.92     0.185 C 
ATOM     18  OE1 GLU D 570     -22.296  -4.138 -13.519  1.00 32.92    -0.647 OA
ATOM     19  OE2 GLU D 570     -22.207  -6.121 -14.446  1.00 32.92    -0.647 OA
ENDBRANCH  16  17
ENDBRANCH  15  16
ENDBRANCH  14  15
END_RES GLU D 570
ENDMDL
MODEL 3
REMARK VINA RESULT:      -0.9      2.903      3.049
REMARK WARNING: 32 MAX_TORS EXCEEDED!!!
REMARK  78 active torsions:
REMARK  status: ('A' for Active; 'I' for Inactive)
REMARK    1  A    between atoms: C_2  and  C_3 
REMARK    2  A    between atoms: C_3  and  C_4 
REMARK    3  A    between atoms: C_4  and  C_5 
REMARK    4  A    between atoms: C_5  and  C_6 
REMARK    5  A    between atoms: C_6  and  C_7 
REMARK    6  A    between atoms: C_7  and  C_8 
REMARK    7  A    between atoms: C_8  and  C_9 
REMARK    8  A    between atoms: C_9  and  C_10 
REMARK    9  A    between atoms: C_10  and  C_11 
REMARK   10  A    between atoms: C_11  and  C_12 
REMARK   11  A    between atoms: C_12  and  C_13 
REMARK   12  A    between atoms: C_13  and  C_14 
REMARK   13  A    between atoms: C_14  and  C_15 
REMARK   14  A    between atoms: C_15  and  C_16 
REMARK   15  A    between atoms: C_16  and  C_17 
REMARK   16  A    between atoms: C_17  and  C_18 
REMARK       I    between atoms: C_18  and  N_20 
REMARK   17  A    between atoms: N_20  and  C_21 
REMARK   18  A    between atoms: C_21  and  C_22 
REMARK   19  A    between atoms: C_22  and  C_23 
REMARK   20  A    between atoms: C_23  and  N_24 
REMARK   21  A    between atoms: N_24  and  C_27 
REMARK   22  A    between atoms: C_27  and  C_28 
REMARK   23  A    between atoms: C_28  and  C_29 
REMARK   24  A    between atoms: C_28  and  O_95 
REMARK   25  A    between atoms: C_29  and  O_30 
REMARK   26  A    between atoms: O_30  and  P_31 
REMARK   27  A    between atoms: P_31  and  O_33 
REMARK   28  A    between atoms: P_31  and  O_64 
REMARK   29  A    between atoms: O_33  and  C_34 
REMARK   30  A    between atoms: C_34  and  C_35 
REMARK   31  A    between atoms: C_35  and  C_36 
REMARK   32  A    between atoms: C_35  and  O_63 
REMARK   33  A    between atoms: C_36  and  N_37 
REMARK   34  A    between atoms: N_37  and  C_40 
REMARK   35  A    between atoms: C_40  and  C_41 
REMARK   36  A    between atoms: C_41  and  C_42 
REMARK   37  A    between atoms: C_42  and  N_43 
REMARK       I    between atoms: N_43  and  C_44 
REMARK   38  A    between atoms: C_44  and  C_46 
REMARK   39  A    between atoms: C_46  and  C_47 
REMARK   40  A    between atoms: C_47  and  C_48 
REMARK   41  A    between atoms: C_48  and  C_49 
REMARK   42  A    between atoms: C_49  and  C_50 
REMARK   43  A    between atoms: C_50  and  C_51 
REMARK   44  A    between atoms: C_51  and  C_52 
REMARK   45  A    between atoms: C_52  and  C_53 
REMARK   46  A    between atoms: C_53  and  C_54 
REMARK   47  A    between atoms: C_54  and  C_55 
REMARK   48  A    between atoms: C_55  and  C_56 
REMARK   49  A    between atoms: C_56  and  C_57 
REMARK   50  A    between atoms: C_57  and  C_58 
REMARK   51  A    between atoms: C_58  and  C_59 
REMARK   52  A    between atoms: C_59  and  C_60 
REMARK   53  A    between atoms: C_60  and  C_61 
REMARK   54  A    between atoms: O_64  and  C_65 
REMARK   55  A    between atoms: C_65  and  C_66 
REMARK   56  A    between atoms: C_66  and  C_67 
REMARK   57  A    between atoms: C_66  and  O_94 
REMARK   58  A    between atoms: C_67  and  N_68 
REMARK   59  A    between atoms: N_68  and  C_71 
REMARK   60  A    between atoms: C_71  and  C_72 
REMARK   61  A    between atoms: C_72  and  C_73 
REMARK   62  A    between atoms: C_73  and  N_74 
REMARK       I    between atoms: N_74  and  C_75 
REMARK   63  A    between atoms: C_75  and  C_77 
REMARK   64  A    between atoms: C_77  and  C_78 
REMARK   65  A    between atoms: C_78  and  C_79 
REMARK   66  A    between atoms: C_79  and  C_80 
REMARK   67  A    between atoms: C_80  and  C_81 
REMARK   68  A    between atoms: C_81  and  C_82 
REMARK   69  A    between atoms: C_82  and  C_83 
REMARK   70  A    between atoms: C_83  and  C_84 
REMARK   71  A    between atoms: C_84  and  C_85 
REMARK   72  A    between atoms: C_85  and  C_86 
REMARK   73  A    between atoms: C_86  and  C_87 
REMARK   74  A    between atoms: C_87  and  C_88 
REMARK   75  A    between atoms: C_88  and  C_89 
REMARK   76  A    between atoms: C_89  and  C_90 
REMARK   77  A    between atoms: C_90  and  C_91 
REMARK   78  A    between atoms: C_91  and  C_92 
ROOT
HETATM    1 CL   UNL     2     -34.832  -7.411  -9.900  1.00  0.00     0.000 Cl
ENDROOT
TORSDOF 78
BEGIN_RES ARG D 557
REMARK  4 active torsions:
REMARK  status: ('A' for Active; 'I' for Inactive)
REMARK    1  A    between atoms: CA   and  CB  
REMARK    2  A    between atoms: CB   and  CG  
REMARK    3  A    between atoms: CG   and  CD  
REMARK    4  A    between atoms: CD   and  NE  
REMARK       I    between atoms: NE   and  CZ  
REMARK       I    between atoms: CZ   and  NH1 
REMARK       I    between atoms: CZ   and  NH2 
ROOT
ATOM      1  CA  ARG D 557     -26.217   2.705 -17.014  1.00 35.49     0.159 C 
ENDROOT
BRANCH   1   2
ATOM      2  CB  ARG D 557     -26.789   1.319 -17.183  1.00 35.49     0.034 C 
BRANCH   2   3
ATOM      3  CG  ARG D 557     -25.835   0.204 -17.165  1.00 35.49     0.027 C 
BRANCH   3   4
ATOM      4  CD  ARG D 557     -24.761   0.396 -16.163  1.00 35.49     0.116 C 
BRANCH   4   5
ATOM      5  NE  ARG D 557     -24.925  -0.463 -15.020  1.00 35.49    -0.212 N 
ATOM      6  CZ  ARG D 557     -24.113  -1.434 -14.667  1.00 35.49     0.666 C 
ATOM      7  NH1 ARG D 557     -23.031  -1.741 -15.358  1.00 35.49    -0.235 N 
ATOM      8  NH2 ARG D 557     -24.407  -2.099 -13.587  1.00 35.49    -0.235 N 
ATOM      9  HH  ARG D 557     -22.818  -1.316 -16.070  1.00 35.49     0.174 HD
ATOM     10  HH  ARG D 557     -22.538  -2.383 -15.078  1.00 35.49     0.174 HD
ATOM     11  HH  ARG D 557     -25.108  -1.874 -13.157  1.00 35.49     0.174 HD
ATOM     12  HH  ARG D 557     -23.905  -2.730 -13.325  1.00 35.49     0.174 HD
ATOM     13  HE  ARG D 557     -25.635  -0.383 -14.559  1.00 35.49     0.178 HD
ENDBRANCH   4   5
ENDBRANCH   3   4
ENDBRANCH   2   3
ENDBRANCH   1   2
END_RES ARG D 557
BEGIN_RES GLU D 570
REMARK  3 active torsions:
REMARK  status: ('A' for Active; 'I' for Inactive)
REMARK    5  A    between atoms: CA   and  CB  
REMARK    6  A    between atoms: CB   and  CG  
REMARK    7  A    between atoms: CG   and  CD  
ROOT
ATOM     14  CA  GLU D 570     -18.033  -6.348 -13.375  1.00 32.92     0.160 C 
ENDROOT
BRANCH  14  15
ATOM     15  CB  GLU D 570     -19.500  -6.345 -13.794  1.00 32.92     0.043 C 
BRANCH  15  16
ATOM     16  CG  GLU D 570     -20.439  -5.516 -12.994  1.00 32.92     0.100 C 
BRANCH  16  17
ATOM     17  CD  GLU D 570     -21.750  -5.262 -13.701  1.00 32.92     0.185 C 
ATOM     18  OE1 GLU D 570     -22.233  -6.157 -14.421  1.00 32.92    -0.647 OA
ATOM     19  OE2 GLU D 570     -22.291  -4.150 -13.547  1.00 32.92    -0.647 OA
ENDBRANCH  16  17
ENDBRANCH  15  16
ENDBRANCH  14  15
END_RES GLU D 570
ENDMDL
MODEL 4
REMARK VINA RESULT:      -0.9      6.479      6.545
REMARK WARNING: 32 MAX_TORS EXCEEDED!!!
REMARK  78 active torsions:
REMARK  status: ('A' for Active; 'I' for Inactive)
REMARK    1  A    between atoms: C_2  and  C_3 
REMARK    2  A    between atoms: C_3  and  C_4 
REMARK    3  A    between atoms: C_4  and  C_5 
REMARK    4  A    between atoms: C_5  and  C_6 
REMARK    5  A    between atoms: C_6  and  C_7 
REMARK    6  A    between atoms: C_7  and  C_8 
REMARK    7  A    between atoms: C_8  and  C_9 
REMARK    8  A    between atoms: C_9  and  C_10 
REMARK    9  A    between atoms: C_10  and  C_11 
REMARK   10  A    between atoms: C_11  and  C_12 
REMARK   11  A    between atoms: C_12  and  C_13 
REMARK   12  A    between atoms: C_13  and  C_14 
REMARK   13  A    between atoms: C_14  and  C_15 
REMARK   14  A    between atoms: C_15  and  C_16 
REMARK   15  A    between atoms: C_16  and  C_17 
REMARK   16  A    between atoms: C_17  and  C_18 
REMARK       I    between atoms: C_18  and  N_20 
REMARK   17  A    between atoms: N_20  and  C_21 
REMARK   18  A    between atoms: C_21  and  C_22 
REMARK   19  A    between atoms: C_22  and  C_23 
REMARK   20  A    between atoms: C_23  and  N_24 
REMARK   21  A    between atoms: N_24  and  C_27 
REMARK   22  A    between atoms: C_27  and  C_28 
REMARK   23  A    between atoms: C_28  and  C_29 
REMARK   24  A    between atoms: C_28  and  O_95 
REMARK   25  A    between atoms: C_29  and  O_30 
REMARK   26  A    between atoms: O_30  and  P_31 
REMARK   27  A    between atoms: P_31  and  O_33 
REMARK   28  A    between atoms: P_31  and  O_64 
REMARK   29  A    between atoms: O_33  and  C_34 
REMARK   30  A    between atoms: C_34  and  C_35 
REMARK   31  A    between atoms: C_35  and  C_36 
REMARK   32  A    between atoms: C_35  and  O_63 
REMARK   33  A    between atoms: C_36  and  N_37 
REMARK   34  A    between atoms: N_37  and  C_40 
REMARK   35  A    between atoms: C_40  and  C_41 
REMARK   36  A    between atoms: C_41  and  C_42 
REMARK   37  A    between atoms: C_42  and  N_43 
REMARK       I    between atoms: N_43  and  C_44 
REMARK   38  A    between atoms: C_44  and  C_46 
REMARK   39  A    between atoms: C_46  and  C_47 
REMARK   40  A    between atoms: C_47  and  C_48 
REMARK   41  A    between atoms: C_48  and  C_49 
REMARK   42  A    between atoms: C_49  and  C_50 
REMARK   43  A    between atoms: C_50  and  C_51 
REMARK   44  A    between atoms: C_51  and  C_52 
REMARK   45  A    between atoms: C_52  and  C_53 
REMARK   46  A    between atoms: C_53  and  C_54 
REMARK   47  A    between atoms: C_54  and  C_55 
REMARK   48  A    between atoms: C_55  and  C_56 
REMARK   49  A    between atoms: C_56  and  C_57 
REMARK   50  A    between atoms: C_57  and  C_58 
REMARK   51  A    between atoms: C_58  and  C_59 
REMARK   52  A    between atoms: C_59  and  C_60 
REMARK   53  A    between atoms: C_60  and  C_61 
REMARK   54  A    between atoms: O_64  and  C_65 
REMARK   55  A    between atoms: C_65  and  C_66 
REMARK   56  A    between atoms: C_66  and  C_67 
REMARK   57  A    between atoms: C_66  and  O_94 
REMARK   58  A    between atoms: C_67  and  N_68 
REMARK   59  A    between atoms: N_68  and  C_71 
REMARK   60  A    between atoms: C_71  and  C_72 
REMARK   61  A    between atoms: C_72  and  C_73 
REMARK   62  A    between atoms: C_73  and  N_74 
REMARK       I    between atoms: N_74  and  C_75 
REMARK   63  A    between atoms: C_75  and  C_77 
REMARK   64  A    between atoms: C_77  and  C_78 
REMARK   65  A    between atoms: C_78  and  C_79 
REMARK   66  A    between atoms: C_79  and  C_80 
REMARK   67  A    between atoms: C_80  and  C_81 
REMARK   68  A    between atoms: C_81  and  C_82 
REMARK   69  A    between atoms: C_82  and  C_83 
REMARK   70  A    between atoms: C_83  and  C_84 
REMARK   71  A    between atoms: C_84  and  C_85 
REMARK   72  A    between atoms: C_85  and  C_86 
REMARK   73  A    between atoms: C_86  and  C_87 
REMARK   74  A    between atoms: C_87  and  C_88 
REMARK   75  A    between atoms: C_88  and  C_89 
REMARK   76  A    between atoms: C_89  and  C_90 
REMARK   77  A    between atoms: C_90  and  C_91 
REMARK   78  A    between atoms: C_91  and  C_92 
ROOT
HETATM    1 CL   UNL     2     -20.875  -5.809 -17.598  1.00  0.00     0.000 Cl
ENDROOT
TORSDOF 78
BEGIN_RES ARG D 557
REMARK  4 active torsions:
REMARK  status: ('A' for Active; 'I' for Inactive)
REMARK    1  A    between atoms: CA   and  CB  
REMARK    2  A    between atoms: CB   and  CG  
REMARK    3  A    between atoms: CG   and  CD  
REMARK    4  A    between atoms: CD   and  NE  
REMARK       I    between atoms: NE   and  CZ  
REMARK       I    between atoms: CZ   and  NH1 
REMARK       I    between atoms: CZ   and  NH2 
ROOT
ATOM      1  CA  ARG D 557     -26.217   2.705 -17.014  1.00 35.49     0.159 C 
ENDROOT
BRANCH   1   2
ATOM      2  CB  ARG D 557     -26.789   1.319 -17.183  1.00 35.49     0.034 C 
BRANCH   2   3
ATOM      3  CG  ARG D 557     -25.835   0.204 -17.163  1.00 35.49     0.027 C 
BRANCH   3   4
ATOM      4  CD  ARG D 557     -24.741   0.414 -16.188  1.00 35.49     0.116 C 
BRANCH   4   5
ATOM      5  NE  ARG D 557     -24.876  -0.430 -15.030  1.00 35.49    -0.212 N 
ATOM      6  CZ  ARG D 557     -24.056  -1.397 -14.684  1.00 35.49     0.666 C 
ATOM      7  NH1 ARG D 557     -22.991  -1.712 -15.398  1.00 35.49    -0.235 N 
ATOM      8  NH2 ARG D 557     -24.323  -2.047 -13.589  1.00 35.49    -0.235 N 
ATOM      9  HH  ARG D 557     -22.795  -1.296 -16.121  1.00 35.49     0.174 HD
ATOM     10  HH  ARG D 557     -22.490  -2.351 -15.121  1.00 35.49     0.174 HD
ATOM     11  HH  ARG D 557     -25.013  -1.816 -13.144  1.00 35.49     0.174 HD
ATOM     12  HH  ARG D 557     -23.814  -2.674 -13.331  1.00 35.49     0.174 HD
ATOM     13  HE  ARG D 557     -25.575  -0.344 -14.553  1.00 35.49     0.178 HD
ENDBRANCH   4   5
ENDBRANCH   3   4
ENDBRANCH   2   3
ENDBRANCH   1   2
END_RES ARG D 557
BEGIN_RES GLU D 570
REMARK  3 active torsions:
REMARK  status: ('A' for Active; 'I' for Inactive)
REMARK    5  A    between atoms: CA   and  CB  
REMARK    6  A    between atoms: CB   and  CG  
REMARK    7  A    between atoms: CG   and  CD  
ROOT
ATOM     14  CA  GLU D 570     -18.033  -6.348 -13.375  1.00 32.92     0.160 C 
ENDROOT
BRANCH  14  15
ATOM     15  CB  GLU D 570     -19.500  -6.345 -13.794  1.00 32.92     0.043 C 
BRANCH  15  16
ATOM     16  CG  GLU D 570     -20.440  -5.521 -12.991  1.00 32.92     0.100 C 
BRANCH  16  17
ATOM     17  CD  GLU D 570     -21.750  -5.263 -13.698  1.00 32.92     0.185 C 
ATOM     18  OE1 GLU D 570     -22.253  -6.170 -14.389  1.00 32.92    -0.647 OA
ATOM     19  OE2 GLU D 570     -22.271  -4.137 -13.572  1.00 32.92    -0.647 OA
ENDBRANCH  16  17
ENDBRANCH  15  16
ENDBRANCH  14  15
END_RES GLU D 570
ENDMDL
MODEL 5
REMARK VINA RESULT:      -0.9      4.989      5.076
REMARK WARNING: 32 MAX_TORS EXCEEDED!!!
REMARK  78 active torsions:
REMARK  status: ('A' for Active; 'I' for Inactive)
REMARK    1  A    between atoms: C_2  and  C_3 
REMARK    2  A    between atoms: C_3  and  C_4 
REMARK    3  A    between atoms: C_4  and  C_5 
REMARK    4  A    between atoms: C_5  and  C_6 
REMARK    5  A    between atoms: C_6  and  C_7 
REMARK    6  A    between atoms: C_7  and  C_8 
REMARK    7  A    between atoms: C_8  and  C_9 
REMARK    8  A    between atoms: C_9  and  C_10 
REMARK    9  A    between atoms: C_10  and  C_11 
REMARK   10  A    between atoms: C_11  and  C_12 
REMARK   11  A    between atoms: C_12  and  C_13 
REMARK   12  A    between atoms: C_13  and  C_14 
REMARK   13  A    between atoms: C_14  and  C_15 
REMARK   14  A    between atoms: C_15  and  C_16 
REMARK   15  A    between atoms: C_16  and  C_17 
REMARK   16  A    between atoms: C_17  and  C_18 
REMARK       I    between atoms: C_18  and  N_20 
REMARK   17  A    between atoms: N_20  and  C_21 
REMARK   18  A    between atoms: C_21  and  C_22 
REMARK   19  A    between atoms: C_22  and  C_23 
REMARK   20  A    between atoms: C_23  and  N_24 
REMARK   21  A    between atoms: N_24  and  C_27 
REMARK   22  A    between atoms: C_27  and  C_28 
REMARK   23  A    between atoms: C_28  and  C_29 
REMARK   24  A    between atoms: C_28  and  O_95 
REMARK   25  A    between atoms: C_29  and  O_30 
REMARK   26  A    between atoms: O_30  and  P_31 
REMARK   27  A    between atoms: P_31  and  O_33 
REMARK   28  A    between atoms: P_31  and  O_64 
REMARK   29  A    between atoms: O_33  and  C_34 
REMARK   30  A    between atoms: C_34  and  C_35 
REMARK   31  A    between atoms: C_35  and  C_36 
REMARK   32  A    between atoms: C_35  and  O_63 
REMARK   33  A    between atoms: C_36  and  N_37 
REMARK   34  A    between atoms: N_37  and  C_40 
REMARK   35  A    between atoms: C_40  and  C_41 
REMARK   36  A    between atoms: C_41  and  C_42 
REMARK   37  A    between atoms: C_42  and  N_43 
REMARK       I    between atoms: N_43  and  C_44 
REMARK   38  A    between atoms: C_44  and  C_46 
REMARK   39  A    between atoms: C_46  and  C_47 
REMARK   40  A    between atoms: C_47  and  C_48 
REMARK   41  A    between atoms: C_48  and  C_49 
REMARK   42  A    between atoms: C_49  and  C_50 
REMARK   43  A    between atoms: C_50  and  C_51 
REMARK   44  A    between atoms: C_51  and  C_52 
REMARK   45  A    between atoms: C_52  and  C_53 
REMARK   46  A    between atoms: C_53  and  C_54 
REMARK   47  A    between atoms: C_54  and  C_55 
REMARK   48  A    between atoms: C_55  and  C_56 
REMARK   49  A    between atoms: C_56  and  C_57 
REMARK   50  A    between atoms: C_57  and  C_58 
REMARK   51  A    between atoms: C_58  and  C_59 
REMARK   52  A    between atoms: C_59  and  C_60 
REMARK   53  A    between atoms: C_60  and  C_61 
REMARK   54  A    between atoms: O_64  and  C_65 
REMARK   55  A    between atoms: C_65  and  C_66 
REMARK   56  A    between atoms: C_66  and  C_67 
REMARK   57  A    between atoms: C_66  and  O_94 
REMARK   58  A    between atoms: C_67  and  N_68 
REMARK   59  A    between atoms: N_68  and  C_71 
REMARK   60  A    between atoms: C_71  and  C_72 
REMARK   61  A    between atoms: C_72  and  C_73 
REMARK   62  A    between atoms: C_73  and  N_74 
REMARK       I    between atoms: N_74  and  C_75 
REMARK   63  A    between atoms: C_75  and  C_77 
REMARK   64  A    between atoms: C_77  and  C_78 
REMARK   65  A    between atoms: C_78  and  C_79 
REMARK   66  A    between atoms: C_79  and  C_80 
REMARK   67  A    between atoms: C_80  and  C_81 
REMARK   68  A    between atoms: C_81  and  C_82 
REMARK   69  A    between atoms: C_82  and  C_83 
REMARK   70  A    between atoms: C_83  and  C_84 
REMARK   71  A    between atoms: C_84  and  C_85 
REMARK   72  A    between atoms: C_85  and  C_86 
REMARK   73  A    between atoms: C_86  and  C_87 
REMARK   74  A    between atoms: C_87  and  C_88 
REMARK   75  A    between atoms: C_88  and  C_89 
REMARK   76  A    between atoms: C_89  and  C_90 
REMARK   77  A    between atoms: C_90  and  C_91 
REMARK   78  A    between atoms: C_91  and  C_92 
ROOT
HETATM    1 CL   UNL     2     -22.300  -6.389  -1.715  1.00  0.00     0.000 Cl
ENDROOT
TORSDOF 78
BEGIN_RES ARG D 557
REMARK  4 active torsions:
REMARK  status: ('A' for Active; 'I' for Inactive)
REMARK    1  A    between atoms: CA   and  CB  
REMARK    2  A    between atoms: CB   and  CG  
REMARK    3  A    between atoms: CG   and  CD  
REMARK    4  A    between atoms: CD   and  NE  
REMARK       I    between atoms: NE   and  CZ  
REMARK       I    between atoms: CZ   and  NH1 
REMARK       I    between atoms: CZ   and  NH2 
ROOT
ATOM      1  CA  ARG D 557     -26.217   2.705 -17.014  1.00 35.49     0.159 C 
ENDROOT
BRANCH   1   2
ATOM      2  CB  ARG D 557     -26.789   1.319 -17.183  1.00 35.49     0.034 C 
BRANCH   2   3
ATOM      3  CG  ARG D 557     -25.839   0.201 -17.133  1.00 35.49     0.027 C 
BRANCH   3   4
ATOM      4  CD  ARG D 557     -24.762   0.420 -16.140  1.00 35.49     0.116 C 
BRANCH   4   5
ATOM      5  NE  ARG D 557     -24.901  -0.438 -14.993  1.00 35.49    -0.212 N 
ATOM      6  CZ  ARG D 557     -24.078  -1.406 -14.654  1.00 35.49     0.666 C 
ATOM      7  NH1 ARG D 557     -23.009  -1.710 -15.366  1.00 35.49    -0.235 N 
ATOM      8  NH2 ARG D 557     -24.348  -2.070 -13.567  1.00 35.49    -0.235 N 
ATOM      9  HH  ARG D 557     -22.811  -1.284 -16.083  1.00 35.49     0.174 HD
ATOM     10  HH  ARG D 557     -22.507  -2.349 -15.094  1.00 35.49     0.174 HD
ATOM     11  HH  ARG D 557     -25.041  -1.847 -13.124  1.00 35.49     0.174 HD
ATOM     12  HH  ARG D 557     -23.838  -2.699 -13.314  1.00 35.49     0.174 HD
ATOM     13  HE  ARG D 557     -25.602  -0.360 -14.518  1.00 35.49     0.178 HD
ENDBRANCH   4   5
ENDBRANCH   3   4
ENDBRANCH   2   3
ENDBRANCH   1   2
END_RES ARG D 557
BEGIN_RES GLU D 570
REMARK  3 active torsions:
REMARK  status: ('A' for Active; 'I' for Inactive)
REMARK    5  A    between atoms: CA   and  CB  
REMARK    6  A    between atoms: CB   and  CG  
REMARK    7  A    between atoms: CG   and  CD  
ROOT
ATOM     14  CA  GLU D 570     -18.033  -6.348 -13.375  1.00 32.92     0.160 C 
ENDROOT
BRANCH  14  15
ATOM     15  CB  GLU D 570     -19.500  -6.345 -13.794  1.00 32.92     0.043 C 
BRANCH  15  16
ATOM     16  CG  GLU D 570     -20.446  -5.549 -12.970  1.00 32.92     0.100 C 
BRANCH  16  17
ATOM     17  CD  GLU D 570     -21.733  -5.229 -13.694  1.00 32.92     0.185 C 
ATOM     18  OE1 GLU D 570     -22.211  -6.070 -14.478  1.00 32.92    -0.647 OA
ATOM     19  OE2 GLU D 570     -22.259  -4.118 -13.486  1.00 32.92    -0.647 OA
ENDBRANCH  16  17
ENDBRANCH  15  16
ENDBRANCH  14  15
END_RES GLU D 570
ENDMDL
MODEL 6
REMARK VINA RESULT:      -0.9      2.237      2.424
REMARK WARNING: 32 MAX_TORS EXCEEDED!!!
REMARK  78 active torsions:
REMARK  status: ('A' for Active; 'I' for Inactive)
REMARK    1  A    between atoms: C_2  and  C_3 
REMARK    2  A    between atoms: C_3  and  C_4 
REMARK    3  A    between atoms: C_4  and  C_5 
REMARK    4  A    between atoms: C_5  and  C_6 
REMARK    5  A    between atoms: C_6  and  C_7 
REMARK    6  A    between atoms: C_7  and  C_8 
REMARK    7  A    between atoms: C_8  and  C_9 
REMARK    8  A    between atoms: C_9  and  C_10 
REMARK    9  A    between atoms: C_10  and  C_11 
REMARK   10  A    between atoms: C_11  and  C_12 
REMARK   11  A    between atoms: C_12  and  C_13 
REMARK   12  A    between atoms: C_13  and  C_14 
REMARK   13  A    between atoms: C_14  and  C_15 
REMARK   14  A    between atoms: C_15  and  C_16 
REMARK   15  A    between atoms: C_16  and  C_17 
REMARK   16  A    between atoms: C_17  and  C_18 
REMARK       I    between atoms: C_18  and  N_20 
REMARK   17  A    between atoms: N_20  and  C_21 
REMARK   18  A    between atoms: C_21  and  C_22 
REMARK   19  A    between atoms: C_22  and  C_23 
REMARK   20  A    between atoms: C_23  and  N_24 
REMARK   21  A    between atoms: N_24  and  C_27 
REMARK   22  A    between atoms: C_27  and  C_28 
REMARK   23  A    between atoms: C_28  and  C_29 
REMARK   24  A    between atoms: C_28  and  O_95 
REMARK   25  A    between atoms: C_29  and  O_30 
REMARK   26  A    between atoms: O_30  and  P_31 
REMARK   27  A    between atoms: P_31  and  O_33 
REMARK   28  A    between atoms: P_31  and  O_64 
REMARK   29  A    between atoms: O_33  and  C_34 
REMARK   30  A    between atoms: C_34  and  C_35 
REMARK   31  A    between atoms: C_35  and  C_36 
REMARK   32  A    between atoms: C_35  and  O_63 
REMARK   33  A    between atoms: C_36  and  N_37 
REMARK   34  A    between atoms: N_37  and  C_40 
REMARK   35  A    between atoms: C_40  and  C_41 
REMARK   36  A    between atoms: C_41  and  C_42 
REMARK   37  A    between atoms: C_42  and  N_43 
REMARK       I    between atoms: N_43  and  C_44 
REMARK   38  A    between atoms: C_44  and  C_46 
REMARK   39  A    between atoms: C_46  and  C_47 
REMARK   40  A    between atoms: C_47  and  C_48 
REMARK   41  A    between atoms: C_48  and  C_49 
REMARK   42  A    between atoms: C_49  and  C_50 
REMARK   43  A    between atoms: C_50  and  C_51 
REMARK   44  A    between atoms: C_51  and  C_52 
REMARK   45  A    between atoms: C_52  and  C_53 
REMARK   46  A    between atoms: C_53  and  C_54 
REMARK   47  A    between atoms: C_54  and  C_55 
REMARK   48  A    between atoms: C_55  and  C_56 
REMARK   49  A    between atoms: C_56  and  C_57 
REMARK   50  A    between atoms: C_57  and  C_58 
REMARK   51  A    between atoms: C_58  and  C_59 
REMARK   52  A    between atoms: C_59  and  C_60 
REMARK   53  A    between atoms: C_60  and  C_61 
REMARK   54  A    between atoms: O_64  and  C_65 
REMARK   55  A    between atoms: C_65  and  C_66 
REMARK   56  A    between atoms: C_66  and  C_67 
REMARK   57  A    between atoms: C_66  and  O_94 
REMARK   58  A    between atoms: C_67  and  N_68 
REMARK   59  A    between atoms: N_68  and  C_71 
REMARK   60  A    between atoms: C_71  and  C_72 
REMARK   61  A    between atoms: C_72  and  C_73 
REMARK   62  A    between atoms: C_73  and  N_74 
REMARK       I    between atoms: N_74  and  C_75 
REMARK   63  A    between atoms: C_75  and  C_77 
REMARK   64  A    between atoms: C_77  and  C_78 
REMARK   65  A    between atoms: C_78  and  C_79 
REMARK   66  A    between atoms: C_79  and  C_80 
REMARK   67  A    between atoms: C_80  and  C_81 
REMARK   68  A    between atoms: C_81  and  C_82 
REMARK   69  A    between atoms: C_82  and  C_83 
REMARK   70  A    between atoms: C_83  and  C_84 
REMARK   71  A    between atoms: C_84  and  C_85 
REMARK   72  A    between atoms: C_85  and  C_86 
REMARK   73  A    between atoms: C_86  and  C_87 
REMARK   74  A    between atoms: C_87  and  C_88 
REMARK   75  A    between atoms: C_88  and  C_89 
REMARK   76  A    between atoms: C_89  and  C_90 
REMARK   77  A    between atoms: C_90  and  C_91 
REMARK   78  A    between atoms: C_91  and  C_92 
ROOT
HETATM    1 CL   UNL     2     -33.622  -2.774 -10.610  1.00  0.00     0.000 Cl
ENDROOT
TORSDOF 78
BEGIN_RES ARG D 557
REMARK  4 active torsions:
REMARK  status: ('A' for Active; 'I' for Inactive)
REMARK    1  A    between atoms: CA   and  CB  
REMARK    2  A    between atoms: CB   and  CG  
REMARK    3  A    between atoms: CG   and  CD  
REMARK    4  A    between atoms: CD   and  NE  
REMARK       I    between atoms: NE   and  CZ  
REMARK       I    between atoms: CZ   and  NH1 
REMARK       I    between atoms: CZ   and  NH2 
ROOT
ATOM      1  CA  ARG D 557     -26.217   2.705 -17.014  1.00 35.49     0.159 C 
ENDROOT
BRANCH   1   2
ATOM      2  CB  ARG D 557     -26.789   1.319 -17.183  1.00 35.49     0.034 C 
BRANCH   2   3
ATOM      3  CG  ARG D 557     -25.834   0.204 -17.169  1.00 35.49     0.027 C 
BRANCH   3   4
ATOM      4  CD  ARG D 557     -24.742   0.409 -16.190  1.00 35.49     0.116 C 
BRANCH   4   5
ATOM      5  NE  ARG D 557     -24.886  -0.434 -15.033  1.00 35.49    -0.212 N 
ATOM      6  CZ  ARG D 557     -24.071  -1.403 -14.681  1.00 35.49     0.666 C 
ATOM      7  NH1 ARG D 557     -23.003  -1.723 -15.389  1.00 35.49    -0.235 N 
ATOM      8  NH2 ARG D 557     -24.345  -2.051 -13.587  1.00 35.49    -0.235 N 
ATOM      9  HH  ARG D 557     -22.802  -1.308 -16.112  1.00 35.49     0.174 HD
ATOM     10  HH  ARG D 557     -22.506  -2.362 -15.110  1.00 35.49     0.174 HD
ATOM     11  HH  ARG D 557     -25.037  -1.818 -13.146  1.00 35.49     0.174 HD
ATOM     12  HH  ARG D 557     -23.840  -2.680 -13.326  1.00 35.49     0.174 HD
ATOM     13  HE  ARG D 557     -25.587  -0.345 -14.559  1.00 35.49     0.178 HD
ENDBRANCH   4   5
ENDBRANCH   3   4
ENDBRANCH   2   3
ENDBRANCH   1   2
END_RES ARG D 557
BEGIN_RES GLU D 570
REMARK  3 active torsions:
REMARK  status: ('A' for Active; 'I' for Inactive)
REMARK    5  A    between atoms: CA   and  CB  
REMARK    6  A    between atoms: CB   and  CG  
REMARK    7  A    between atoms: CG   and  CD  
ROOT
ATOM     14  CA  GLU D 570     -18.033  -6.348 -13.375  1.00 32.92     0.160 C 
ENDROOT
BRANCH  14  15
ATOM     15  CB  GLU D 570     -19.500  -6.345 -13.794  1.00 32.92     0.043 C 
BRANCH  15  16
ATOM     16  CG  GLU D 570     -20.448  -5.558 -12.963  1.00 32.92     0.100 C 
BRANCH  16  17
ATOM     17  CD  GLU D 570     -21.737  -5.239 -13.682  1.00 32.92     0.185 C 
ATOM     18  OE1 GLU D 570     -22.249  -6.103 -14.420  1.00 32.92    -0.647 OA
ATOM     19  OE2 GLU D 570     -22.233  -4.106 -13.520  1.00 32.92    -0.647 OA
ENDBRANCH  16  17
ENDBRANCH  15  16
ENDBRANCH  14  15
END_RES GLU D 570
ENDMDL
MODEL 7
REMARK VINA RESULT:      -0.9      4.106      4.106
REMARK WARNING: 32 MAX_TORS EXCEEDED!!!
REMARK  78 active torsions:
REMARK  status: ('A' for Active; 'I' for Inactive)
REMARK    1  A    between atoms: C_2  and  C_3 
REMARK    2  A    between atoms: C_3  and  C_4 
REMARK    3  A    between atoms: C_4  and  C_5 
REMARK    4  A    between atoms: C_5  and  C_6 
REMARK    5  A    between atoms: C_6  and  C_7 
REMARK    6  A    between atoms: C_7  and  C_8 
REMARK    7  A    between atoms: C_8  and  C_9 
REMARK    8  A    between atoms: C_9  and  C_10 
REMARK    9  A    between atoms: C_10  and  C_11 
REMARK   10  A    between atoms: C_11  and  C_12 
REMARK   11  A    between atoms: C_12  and  C_13 
REMARK   12  A    between atoms: C_13  and  C_14 
REMARK   13  A    between atoms: C_14  and  C_15 
REMARK   14  A    between atoms: C_15  and  C_16 
REMARK   15  A    between atoms: C_16  and  C_17 
REMARK   16  A    between atoms: C_17  and  C_18 
REMARK       I    between atoms: C_18  and  N_20 
REMARK   17  A    between atoms: N_20  and  C_21 
REMARK   18  A    between atoms: C_21  and  C_22 
REMARK   19  A    between atoms: C_22  and  C_23 
REMARK   20  A    between atoms: C_23  and  N_24 
REMARK   21  A    between atoms: N_24  and  C_27 
REMARK   22  A    between atoms: C_27  and  C_28 
REMARK   23  A    between atoms: C_28  and  C_29 
REMARK   24  A    between atoms: C_28  and  O_95 
REMARK   25  A    between atoms: C_29  and  O_30 
REMARK   26  A    between atoms: O_30  and  P_31 
REMARK   27  A    between atoms: P_31  and  O_33 
REMARK   28  A    between atoms: P_31  and  O_64 
REMARK   29  A    between atoms: O_33  and  C_34 
REMARK   30  A    between atoms: C_34  and  C_35 
REMARK   31  A    between atoms: C_35  and  C_36 
REMARK   32  A    between atoms: C_35  and  O_63 
REMARK   33  A    between atoms: C_36  and  N_37 
REMARK   34  A    between atoms: N_37  and  C_40 
REMARK   35  A    between atoms: C_40  and  C_41 
REMARK   36  A    between atoms: C_41  and  C_42 
REMARK   37  A    between atoms: C_42  and  N_43 
REMARK       I    between atoms: N_43  and  C_44 
REMARK   38  A    between atoms: C_44  and  C_46 
REMARK   39  A    between atoms: C_46  and  C_47 
REMARK   40  A    between atoms: C_47  and  C_48 
REMARK   41  A    between atoms: C_48  and  C_49 
REMARK   42  A    between atoms: C_49  and  C_50 
REMARK   43  A    between atoms: C_50  and  C_51 
REMARK   44  A    between atoms: C_51  and  C_52 
REMARK   45  A    between atoms: C_52  and  C_53 
REMARK   46  A    between atoms: C_53  and  C_54 
REMARK   47  A    between atoms: C_54  and  C_55 
REMARK   48  A    between atoms: C_55  and  C_56 
REMARK   49  A    between atoms: C_56  and  C_57 
REMARK   50  A    between atoms: C_57  and  C_58 
REMARK   51  A    between atoms: C_58  and  C_59 
REMARK   52  A    between atoms: C_59  and  C_60 
REMARK   53  A    between atoms: C_60  and  C_61 
REMARK   54  A    between atoms: O_64  and  C_65 
REMARK   55  A    between atoms: C_65  and  C_66 
REMARK   56  A    between atoms: C_66  and  C_67 
REMARK   57  A    between atoms: C_66  and  O_94 
REMARK   58  A    between atoms: C_67  and  N_68 
REMARK   59  A    between atoms: N_68  and  C_71 
REMARK   60  A    between atoms: C_71  and  C_72 
REMARK   61  A    between atoms: C_72  and  C_73 
REMARK   62  A    between atoms: C_73  and  N_74 
REMARK       I    between atoms: N_74  and  C_75 
REMARK   63  A    between atoms: C_75  and  C_77 
REMARK   64  A    between atoms: C_77  and  C_78 
REMARK   65  A    between atoms: C_78  and  C_79 
REMARK   66  A    between atoms: C_79  and  C_80 
REMARK   67  A    between atoms: C_80  and  C_81 
REMARK   68  A    between atoms: C_81  and  C_82 
REMARK   69  A    between atoms: C_82  and  C_83 
REMARK   70  A    between atoms: C_83  and  C_84 
REMARK   71  A    between atoms: C_84  and  C_85 
REMARK   72  A    between atoms: C_85  and  C_86 
REMARK   73  A    between atoms: C_86  and  C_87 
REMARK   74  A    between atoms: C_87  and  C_88 
REMARK   75  A    between atoms: C_88  and  C_89 
REMARK   76  A    between atoms: C_89  and  C_90 
REMARK   77  A    between atoms: C_90  and  C_91 
REMARK   78  A    between atoms: C_91  and  C_92 
ROOT
HETATM    1 CL   UNL     2     -26.849   7.148 -11.077  1.00  0.00     0.000 Cl
ENDROOT
TORSDOF 78
BEGIN_RES ARG D 557
REMARK  4 active torsions:
REMARK  status: ('A' for Active; 'I' for Inactive)
REMARK    1  A    between atoms: CA   and  CB  
REMARK    2  A    between atoms: CB   and  CG  
REMARK    3  A    between atoms: CG   and  CD  
REMARK    4  A    between atoms: CD   and  NE  
REMARK       I    between atoms: NE   and  CZ  
REMARK       I    between atoms: CZ   and  NH1 
REMARK       I    between atoms: CZ   and  NH2 
ROOT
ATOM      1  CA  ARG D 557     -26.217   2.705 -17.014  1.00 35.49     0.159 C 
ENDROOT
BRANCH   1   2
ATOM      2  CB  ARG D 557     -26.789   1.319 -17.183  1.00 35.49     0.034 C 
BRANCH   2   3
ATOM      3  CG  ARG D 557     -25.835   0.203 -17.162  1.00 35.49     0.027 C 
BRANCH   3   4
ATOM      4  CD  ARG D 557     -24.753   0.405 -16.171  1.00 35.49     0.116 C 
BRANCH   4   5
ATOM      5  NE  ARG D 557     -24.908  -0.444 -15.019  1.00 35.49    -0.212 N 
ATOM      6  CZ  ARG D 557     -24.098  -1.417 -14.667  1.00 35.49     0.666 C 
ATOM      7  NH1 ARG D 557     -23.026  -1.736 -15.369  1.00 35.49    -0.235 N 
ATOM      8  NH2 ARG D 557     -24.382  -2.070 -13.578  1.00 35.49    -0.235 N 
ATOM      9  HH  ARG D 557     -22.819  -1.318 -16.088  1.00 35.49     0.174 HD
ATOM     10  HH  ARG D 557     -22.533  -2.379 -15.089  1.00 35.49     0.174 HD
ATOM     11  HH  ARG D 557     -25.077  -1.837 -13.141  1.00 35.49     0.174 HD
ATOM     12  HH  ARG D 557     -23.881  -2.702 -13.317  1.00 35.49     0.174 HD
ATOM     13  HE  ARG D 557     -25.612  -0.356 -14.550  1.00 35.49     0.178 HD
ENDBRANCH   4   5
ENDBRANCH   3   4
ENDBRANCH   2   3
ENDBRANCH   1   2
END_RES ARG D 557
BEGIN_RES GLU D 570
REMARK  3 active torsions:
REMARK  status: ('A' for Active; 'I' for Inactive)
REMARK    5  A    between atoms: CA   and  CB  
REMARK    6  A    between atoms: CB   and  CG  
REMARK    7  A    between atoms: CG   and  CD  
ROOT
ATOM     14  CA  GLU D 570     -18.033  -6.348 -13.375  1.00 32.92     0.160 C 
ENDROOT
BRANCH  14  15
ATOM     15  CB  GLU D 570     -19.500  -6.345 -13.794  1.00 32.92     0.043 C 
BRANCH  15  16
ATOM     16  CG  GLU D 570     -20.442  -5.530 -12.984  1.00 32.92     0.100 C 
BRANCH  16  17
ATOM     17  CD  GLU D 570     -21.740  -5.243 -13.701  1.00 32.92     0.185 C 
ATOM     18  OE1 GLU D 570     -22.312  -4.153 -13.506  1.00 32.92    -0.647 OA
ATOM     19  OE2 GLU D 570     -22.200  -6.125 -14.453  1.00 32.92    -0.647 OA
ENDBRANCH  16  17
ENDBRANCH  15  16
ENDBRANCH  14  15
END_RES GLU D 570
ENDMDL
MODEL 8
REMARK VINA RESULT:      -0.8      4.002      4.002
REMARK WARNING: 32 MAX_TORS EXCEEDED!!!
REMARK  78 active torsions:
REMARK  status: ('A' for Active; 'I' for Inactive)
REMARK    1  A    between atoms: C_2  and  C_3 
REMARK    2  A    between atoms: C_3  and  C_4 
REMARK    3  A    between atoms: C_4  and  C_5 
REMARK    4  A    between atoms: C_5  and  C_6 
REMARK    5  A    between atoms: C_6  and  C_7 
REMARK    6  A    between atoms: C_7  and  C_8 
REMARK    7  A    between atoms: C_8  and  C_9 
REMARK    8  A    between atoms: C_9  and  C_10 
REMARK    9  A    between atoms: C_10  and  C_11 
REMARK   10  A    between atoms: C_11  and  C_12 
REMARK   11  A    between atoms: C_12  and  C_13 
REMARK   12  A    between atoms: C_13  and  C_14 
REMARK   13  A    between atoms: C_14  and  C_15 
REMARK   14  A    between atoms: C_15  and  C_16 
REMARK   15  A    between atoms: C_16  and  C_17 
REMARK   16  A    between atoms: C_17  and  C_18 
REMARK       I    between atoms: C_18  and  N_20 
REMARK   17  A    between atoms: N_20  and  C_21 
REMARK   18  A    between atoms: C_21  and  C_22 
REMARK   19  A    between atoms: C_22  and  C_23 
REMARK   20  A    between atoms: C_23  and  N_24 
REMARK   21  A    between atoms: N_24  and  C_27 
REMARK   22  A    between atoms: C_27  and  C_28 
REMARK   23  A    between atoms: C_28  and  C_29 
REMARK   24  A    between atoms: C_28  and  O_95 
REMARK   25  A    between atoms: C_29  and  O_30 
REMARK   26  A    between atoms: O_30  and  P_31 
REMARK   27  A    between atoms: P_31  and  O_33 
REMARK   28  A    between atoms: P_31  and  O_64 
REMARK   29  A    between atoms: O_33  and  C_34 
REMARK   30  A    between atoms: C_34  and  C_35 
REMARK   31  A    between atoms: C_35  and  C_36 
REMARK   32  A    between atoms: C_35  and  O_63 
REMARK   33  A    between atoms: C_36  and  N_37 
REMARK   34  A    between atoms: N_37  and  C_40 
REMARK   35  A    between atoms: C_40  and  C_41 
REMARK   36  A    between atoms: C_41  and  C_42 
REMARK   37  A    between atoms: C_42  and  N_43 
REMARK       I    between atoms: N_43  and  C_44 
REMARK   38  A    between atoms: C_44  and  C_46 
REMARK   39  A    between atoms: C_46  and  C_47 
REMARK   40  A    between atoms: C_47  and  C_48 
REMARK   41  A    between atoms: C_48  and  C_49 
REMARK   42  A    between atoms: C_49  and  C_50 
REMARK   43  A    between atoms: C_50  and  C_51 
REMARK   44  A    between atoms: C_51  and  C_52 
REMARK   45  A    between atoms: C_52  and  C_53 
REMARK   46  A    between atoms: C_53  and  C_54 
REMARK   47  A    between atoms: C_54  and  C_55 
REMARK   48  A    between atoms: C_55  and  C_56 
REMARK   49  A    between atoms: C_56  and  C_57 
REMARK   50  A    between atoms: C_57  and  C_58 
REMARK   51  A    between atoms: C_58  and  C_59 
REMARK   52  A    between atoms: C_59  and  C_60 
REMARK   53  A    between atoms: C_60  and  C_61 
REMARK   54  A    between atoms: O_64  and  C_65 
REMARK   55  A    between atoms: C_65  and  C_66 
REMARK   56  A    between atoms: C_66  and  C_67 
REMARK   57  A    between atoms: C_66  and  O_94 
REMARK   58  A    between atoms: C_67  and  N_68 
REMARK   59  A    between atoms: N_68  and  C_71 
REMARK   60  A    between atoms: C_71  and  C_72 
REMARK   61  A    between atoms: C_72  and  C_73 
REMARK   62  A    between atoms: C_73  and  N_74 
REMARK       I    between atoms: N_74  and  C_75 
REMARK   63  A    between atoms: C_75  and  C_77 
REMARK   64  A    between atoms: C_77  and  C_78 
REMARK   65  A    between atoms: C_78  and  C_79 
REMARK   66  A    between atoms: C_79  and  C_80 
REMARK   67  A    between atoms: C_80  and  C_81 
REMARK   68  A    between atoms: C_81  and  C_82 
REMARK   69  A    between atoms: C_82  and  C_83 
REMARK   70  A    between atoms: C_83  and  C_84 
REMARK   71  A    between atoms: C_84  and  C_85 
REMARK   72  A    between atoms: C_85  and  C_86 
REMARK   73  A    between atoms: C_86  and  C_87 
REMARK   74  A    between atoms: C_87  and  C_88 
REMARK   75  A    between atoms: C_88  and  C_89 
REMARK   76  A    between atoms: C_89  and  C_90 
REMARK   77  A    between atoms: C_90  and  C_91 
REMARK   78  A    between atoms: C_91  and  C_92 
ROOT
HETATM    1 CL   UNL     2     -29.174   6.519   3.998  1.00  0.00     0.000 Cl
ENDROOT
TORSDOF 78
BEGIN_RES ARG D 557
REMARK  4 active torsions:
REMARK  status: ('A' for Active; 'I' for Inactive)
REMARK    1  A    between atoms: CA   and  CB  
REMARK    2  A    between atoms: CB   and  CG  
REMARK    3  A    between atoms: CG   and  CD  
REMARK    4  A    between atoms: CD   and  NE  
REMARK       I    between atoms: NE   and  CZ  
REMARK       I    between atoms: CZ   and  NH1 
REMARK       I    between atoms: CZ   and  NH2 
ROOT
ATOM      1  CA  ARG D 557     -26.217   2.705 -17.014  1.00 35.49     0.159 C 
ENDROOT
BRANCH   1   2
ATOM      2  CB  ARG D 557     -26.789   1.319 -17.183  1.00 35.49     0.034 C 
BRANCH   2   3
ATOM      3  CG  ARG D 557     -25.835   0.203 -17.158  1.00 35.49     0.027 C 
BRANCH   3   4
ATOM      4  CD  ARG D 557     -24.748   0.412 -16.175  1.00 35.49     0.116 C 
BRANCH   4   5
ATOM      5  NE  ARG D 557     -24.893  -0.432 -15.018  1.00 35.49    -0.212 N 
ATOM      6  CZ  ARG D 557     -24.079  -1.403 -14.669  1.00 35.49     0.666 C 
ATOM      7  NH1 ARG D 557     -23.014  -1.725 -15.379  1.00 35.49    -0.235 N 
ATOM      8  NH2 ARG D 557     -24.354  -2.053 -13.575  1.00 35.49    -0.235 N 
ATOM      9  HH  ARG D 557     -22.813  -1.310 -16.101  1.00 35.49     0.174 HD
ATOM     10  HH  ARG D 557     -22.518  -2.366 -15.101  1.00 35.49     0.174 HD
ATOM     11  HH  ARG D 557     -25.045  -1.818 -13.133  1.00 35.49     0.174 HD
ATOM     12  HH  ARG D 557     -23.850  -2.683 -13.316  1.00 35.49     0.174 HD
ATOM     13  HE  ARG D 557     -25.593  -0.342 -14.543  1.00 35.49     0.178 HD
ENDBRANCH   4   5
ENDBRANCH   3   4
ENDBRANCH   2   3
ENDBRANCH   1   2
END_RES ARG D 557
BEGIN_RES GLU D 570
REMARK  3 active torsions:
REMARK  status: ('A' for Active; 'I' for Inactive)
REMARK    5  A    between atoms: CA   and  CB  
REMARK    6  A    between atoms: CB   and  CG  
REMARK    7  A    between atoms: CG   and  CD  
ROOT
ATOM     14  CA  GLU D 570     -18.033  -6.348 -13.375  1.00 32.92     0.160 C 
ENDROOT
BRANCH  14  15
ATOM     15  CB  GLU D 570     -19.500  -6.345 -13.794  1.00 32.92     0.043 C 
BRANCH  15  16
ATOM     16  CG  GLU D 570     -20.445  -5.546 -12.972  1.00 32.92     0.100 C 
BRANCH  16  17
ATOM     17  CD  GLU D 570     -21.738  -5.239 -13.691  1.00 32.92     0.185 C 
ATOM     18  OE1 GLU D 570     -22.267  -4.122 -13.533  1.00 32.92    -0.647 OA
ATOM     19  OE2 GLU D 570     -22.234  -6.130 -14.408  1.00 32.92    -0.647 OA
ENDBRANCH  16  17
ENDBRANCH  15  16
ENDBRANCH  14  15
END_RES GLU D 570
ENDMDL
MODEL 9
REMARK VINA RESULT:      -0.8      6.422      6.489
REMARK WARNING: 32 MAX_TORS EXCEEDED!!!
REMARK  78 active torsions:
REMARK  status: ('A' for Active; 'I' for Inactive)
REMARK    1  A    between atoms: C_2  and  C_3 
REMARK    2  A    between atoms: C_3  and  C_4 
REMARK    3  A    between atoms: C_4  and  C_5 
REMARK    4  A    between atoms: C_5  and  C_6 
REMARK    5  A    between atoms: C_6  and  C_7 
REMARK    6  A    between atoms: C_7  and  C_8 
REMARK    7  A    between atoms: C_8  and  C_9 
REMARK    8  A    between atoms: C_9  and  C_10 
REMARK    9  A    between atoms: C_10  and  C_11 
REMARK   10  A    between atoms: C_11  and  C_12 
REMARK   11  A    between atoms: C_12  and  C_13 
REMARK   12  A    between atoms: C_13  and  C_14 
REMARK   13  A    between atoms: C_14  and  C_15 
REMARK   14  A    between atoms: C_15  and  C_16 
REMARK   15  A    between atoms: C_16  and  C_17 
REMARK   16  A    between atoms: C_17  and  C_18 
REMARK       I    between atoms: C_18  and  N_20 
REMARK   17  A    between atoms: N_20  and  C_21 
REMARK   18  A    between atoms: C_21  and  C_22 
REMARK   19  A    between atoms: C_22  and  C_23 
REMARK   20  A    between atoms: C_23  and  N_24 
REMARK   21  A    between atoms: N_24  and  C_27 
REMARK   22  A    between atoms: C_27  and  C_28 
REMARK   23  A    between atoms: C_28  and  C_29 
REMARK   24  A    between atoms: C_28  and  O_95 
REMARK   25  A    between atoms: C_29  and  O_30 
REMARK   26  A    between atoms: O_30  and  P_31 
REMARK   27  A    between atoms: P_31  and  O_33 
REMARK   28  A    between atoms: P_31  and  O_64 
REMARK   29  A    between atoms: O_33  and  C_34 
REMARK   30  A    between atoms: C_34  and  C_35 
REMARK   31  A    between atoms: C_35  and  C_36 
REMARK   32  A    between atoms: C_35  and  O_63 
REMARK   33  A    between atoms: C_36  and  N_37 
REMARK   34  A    between atoms: N_37  and  C_40 
REMARK   35  A    between atoms: C_40  and  C_41 
REMARK   36  A    between atoms: C_41  and  C_42 
REMARK   37  A    between atoms: C_42  and  N_43 
REMARK       I    between atoms: N_43  and  C_44 
REMARK   38  A    between atoms: C_44  and  C_46 
REMARK   39  A    between atoms: C_46  and  C_47 
REMARK   40  A    between atoms: C_47  and  C_48 
REMARK   41  A    between atoms: C_48  and  C_49 
REMARK   42  A    between atoms: C_49  and  C_50 
REMARK   43  A    between atoms: C_50  and  C_51 
REMARK   44  A    between atoms: C_51  and  C_52 
REMARK   45  A    between atoms: C_52  and  C_53 
REMARK   46  A    between atoms: C_53  and  C_54 
REMARK   47  A    between atoms: C_54  and  C_55 
REMARK   48  A    between atoms: C_55  and  C_56 
REMARK   49  A    between atoms: C_56  and  C_57 
REMARK   50  A    between atoms: C_57  and  C_58 
REMARK   51  A    between atoms: C_58  and  C_59 
REMARK   52  A    between atoms: C_59  and  C_60 
REMARK   53  A    between atoms: C_60  and  C_61 
REMARK   54  A    between atoms: O_64  and  C_65 
REMARK   55  A    between atoms: C_65  and  C_66 
REMARK   56  A    between atoms: C_66  and  C_67 
REMARK   57  A    between atoms: C_66  and  O_94 
REMARK   58  A    between atoms: C_67  and  N_68 
REMARK   59  A    between atoms: N_68  and  C_71 
REMARK   60  A    between atoms: C_71  and  C_72 
REMARK   61  A    between atoms: C_72  and  C_73 
REMARK   62  A    between atoms: C_73  and  N_74 
REMARK       I    between atoms: N_74  and  C_75 
REMARK   63  A    between atoms: C_75  and  C_77 
REMARK   64  A    between atoms: C_77  and  C_78 
REMARK   65  A    between atoms: C_78  and  C_79 
REMARK   66  A    between atoms: C_79  and  C_80 
REMARK   67  A    between atoms: C_80  and  C_81 
REMARK   68  A    between atoms: C_81  and  C_82 
REMARK   69  A    between atoms: C_82  and  C_83 
REMARK   70  A    between atoms: C_83  and  C_84 
REMARK   71  A    between atoms: C_84  and  C_85 
REMARK   72  A    between atoms: C_85  and  C_86 
REMARK   73  A    between atoms: C_86  and  C_87 
REMARK   74  A    between atoms: C_87  and  C_88 
REMARK   75  A    between atoms: C_88  and  C_89 
REMARK   76  A    between atoms: C_89  and  C_90 
REMARK   77  A    between atoms: C_90  and  C_91 
REMARK   78  A    between atoms: C_91  and  C_92 
ROOT
HETATM    1 CL   UNL     2     -30.470 -14.300 -18.724  1.00  0.00     0.000 Cl
ENDROOT
TORSDOF 78
BEGIN_RES ARG D 557
REMARK  4 active torsions:
REMARK  status: ('A' for Active; 'I' for Inactive)
REMARK    1  A    between atoms: CA   and  CB  
REMARK    2  A    between atoms: CB   and  CG  
REMARK    3  A    between atoms: CG   and  CD  
REMARK    4  A    between atoms: CD   and  NE  
REMARK       I    between atoms: NE   and  CZ  
REMARK       I    between atoms: CZ   and  NH1 
REMARK       I    between atoms: CZ   and  NH2 
ROOT
ATOM      1  CA  ARG D 557     -26.217   2.705 -17.014  1.00 35.49     0.159 C 
ENDROOT
BRANCH   1   2
ATOM      2  CB  ARG D 557     -26.789   1.319 -17.183  1.00 35.49     0.034 C 
BRANCH   2   3
ATOM      3  CG  ARG D 557     -25.835   0.203 -17.162  1.00 35.49     0.027 C 
BRANCH   3   4
ATOM      4  CD  ARG D 557     -24.748   0.409 -16.178  1.00 35.49     0.116 C 
BRANCH   4   5
ATOM      5  NE  ARG D 557     -24.896  -0.437 -15.023  1.00 35.49    -0.212 N 
ATOM      6  CZ  ARG D 557     -24.082  -1.408 -14.672  1.00 35.49     0.666 C 
ATOM      7  NH1 ARG D 557     -23.013  -1.727 -15.379  1.00 35.49    -0.235 N 
ATOM      8  NH2 ARG D 557     -24.359  -2.059 -13.580  1.00 35.49    -0.235 N 
ATOM      9  HH  ARG D 557     -22.810  -1.310 -16.100  1.00 35.49     0.174 HD
ATOM     10  HH  ARG D 557     -22.518  -2.368 -15.100  1.00 35.49     0.174 HD
ATOM     11  HH  ARG D 557     -25.052  -1.826 -13.140  1.00 35.49     0.174 HD
ATOM     12  HH  ARG D 557     -23.855  -2.689 -13.320  1.00 35.49     0.174 HD
ATOM     13  HE  ARG D 557     -25.597  -0.349 -14.550  1.00 35.49     0.178 HD
ENDBRANCH   4   5
ENDBRANCH   3   4
ENDBRANCH   2   3
ENDBRANCH   1   2
END_RES ARG D 557
BEGIN_RES GLU D 570
REMARK  3 active torsions:
REMARK  status: ('A' for Active; 'I' for Inactive)
REMARK    5  A    between atoms: CA   and  CB  
REMARK    6  A    between atoms: CB   and  CG  
REMARK    7  A    between atoms: CG   and  CD  
ROOT
ATOM     14  CA  GLU D 570     -18.033  -6.348 -13.375  1.00 32.92     0.160 C 
ENDROOT
BRANCH  14  15
ATOM     15  CB  GLU D 570     -19.500  -6.345 -13.794  1.00 32.92     0.043 C 
BRANCH  15  16
ATOM     16  CG  GLU D 570     -20.448  -5.560 -12.962  1.00 32.92     0.100 C 
BRANCH  16  17
ATOM     17  CD  GLU D 570     -21.736  -5.236 -13.682  1.00 32.92     0.185 C 
ATOM     18  OE1 GLU D 570     -22.242  -6.093 -14.432  1.00 32.92    -0.647 OA
ATOM     19  OE2 GLU D 570     -22.234  -4.106 -13.509  1.00 32.92    -0.647 OA
ENDBRANCH  16  17
ENDBRANCH  15  16
ENDBRANCH  14  15
END_RES GLU D 570
ENDMDL
