MODEL 1
REMARK VINA RESULT:      -4.8      0.000      0.000
REMARK  6 active torsions:
REMARK  status: ('A' for Active; 'I' for Inactive)
REMARK    1  A    between atoms: SD_2  and  CG_3 
REMARK    2  A    between atoms: CG_3  and  CB_4 
REMARK    3  A    between atoms: CB_4  and  CA_5 
REMARK    4  A    between atoms: CA_5  and  C_6 
REMARK    5  A    between atoms: CA_5  and  N_9 
REMARK    6  A    between atoms: C_6  and  OXT_8 
ROOT
ATOM      1  CA  MET A   1     -23.397  -3.646  -9.152  1.00  0.00     0.315 C 
ENDROOT
BRANCH   1   2
ATOM      2  CB  MET A   1     -22.317  -4.615  -9.654  1.00  0.00     0.056 C 
BRANCH   2   3
ATOM      3  CG  MET A   1     -20.897  -4.042  -9.733  1.00  0.00     0.076 C 
BRANCH   3   4
ATOM      4  SD  MET A   1     -20.050  -4.092  -8.119  1.00  0.00    -0.173 SA
ATOM      5  CE  MET A   1     -20.655  -5.695  -7.538  1.00  0.00     0.089 C 
ENDBRANCH   3   4
ENDBRANCH   2   3
ENDBRANCH   1   2
BRANCH   1   6
ATOM      6  C   MET A   1     -24.573  -3.577 -10.141  1.00  0.00     0.173 C 
ATOM      7  O   MET A   1     -25.669  -3.107  -9.872  1.00  0.00    -0.648 OA
BRANCH   6   8
ATOM      8  OXT MET A   1     -24.292  -4.106 -11.356  1.00  0.00    -0.775 OA
ATOM      9  HXT MET A   1     -24.747  -4.958 -11.529  1.00  0.00     0.167 HD
ENDBRANCH   6   8
ENDBRANCH   1   6
BRANCH   1  10
ATOM     10  N   MET A   1     -23.886  -4.108  -7.832  1.00  0.00     0.093 N 
ATOM     11  H1  MET A   1     -23.859  -3.313  -7.190  1.00  0.00     0.314 HD
ATOM     12  H2  MET A   1     -23.200  -4.760  -7.443  1.00  0.00     0.314 HD
ENDBRANCH   1  10
TORSDOF 6
BEGIN_RES ARG D 557
REMARK  4 active torsions:
REMARK  status: ('A' for Active; 'I' for Inactive)
REMARK    1  A    between atoms: CA   and  CB  
REMARK    2  A    between atoms: CB   and  CG  
REMARK    3  A    between atoms: CG   and  CD  
REMARK    4  A    between atoms: CD   and  NE  
REMARK       I    between atoms: NE   and  CZ  
REMARK       I    between atoms: CZ   and  NH1 
REMARK       I    between atoms: CZ   and  NH2 
ROOT
ATOM      1  CA  ARG D 557     -26.217   2.705 -17.014  1.00 35.49     0.159 C 
ENDROOT
BRANCH   1   2
ATOM      2  CB  ARG D 557     -26.789   1.319 -17.183  1.00 35.49     0.034 C 
BRANCH   2   3
ATOM      3  CG  ARG D 557     -25.837   0.202 -17.147  1.00 35.49     0.027 C 
BRANCH   3   4
ATOM      4  CD  ARG D 557     -24.760   0.412 -16.152  1.00 35.49     0.116 C 
BRANCH   4   5
ATOM      5  NE  ARG D 557     -24.909  -0.442 -15.003  1.00 35.49    -0.212 N 
ATOM      6  CZ  ARG D 557     -24.100  -1.419 -14.661  1.00 35.49     0.666 C 
ATOM      7  NH1 ARG D 557     -23.034  -1.739 -15.372  1.00 35.49    -0.235 N 
ATOM      8  NH2 ARG D 557     -24.378  -2.076 -13.573  1.00 35.49    -0.235 N 
ATOM      9  HH  ARG D 557     -22.831  -1.318 -16.090  1.00 35.49     0.174 HD
ATOM     10  HH  ARG D 557     -22.541  -2.384 -15.098  1.00 35.49     0.174 HD
ATOM     11  HH  ARG D 557     -25.069  -1.843 -13.130  1.00 35.49     0.174 HD
ATOM     12  HH  ARG D 557     -23.877  -2.711 -13.318  1.00 35.49     0.174 HD
ATOM     13  HE  ARG D 557     -25.609  -0.353 -14.528  1.00 35.49     0.178 HD
ENDBRANCH   4   5
ENDBRANCH   3   4
ENDBRANCH   2   3
ENDBRANCH   1   2
END_RES ARG D 557
BEGIN_RES GLU D 570
REMARK  3 active torsions:
REMARK  status: ('A' for Active; 'I' for Inactive)
REMARK    5  A    between atoms: CA   and  CB  
REMARK    6  A    between atoms: CB   and  CG  
REMARK    7  A    between atoms: CG   and  CD  
ROOT
ATOM     14  CA  GLU D 570     -18.033  -6.348 -13.375  1.00 32.92     0.160 C 
ENDROOT
BRANCH  14  15
ATOM     15  CB  GLU D 570     -19.500  -6.345 -13.794  1.00 32.92     0.043 C 
BRANCH  15  16
ATOM     16  CG  GLU D 570     -20.448  -5.558 -12.964  1.00 32.92     0.100 C 
BRANCH  16  17
ATOM     17  CD  GLU D 570     -21.737  -5.238 -13.683  1.00 32.92     0.185 C 
ATOM     18  OE1 GLU D 570     -22.209  -6.073 -14.479  1.00 32.92    -0.647 OA
ATOM     19  OE2 GLU D 570     -22.272  -4.134 -13.462  1.00 32.92    -0.647 OA
ENDBRANCH  16  17
ENDBRANCH  15  16
ENDBRANCH  14  15
END_RES GLU D 570
ENDMDL
MODEL 2
REMARK VINA RESULT:      -4.8      3.274      4.604
REMARK  6 active torsions:
REMARK  status: ('A' for Active; 'I' for Inactive)
REMARK    1  A    between atoms: SD_2  and  CG_3 
REMARK    2  A    between atoms: CG_3  and  CB_4 
REMARK    3  A    between atoms: CB_4  and  CA_5 
REMARK    4  A    between atoms: CA_5  and  C_6 
REMARK    5  A    between atoms: CA_5  and  N_9 
REMARK    6  A    between atoms: C_6  and  OXT_8 
ROOT
ATOM      1  CA  MET A   1     -23.847  -2.573 -14.467  1.00  0.00     0.315 C 
ENDROOT
BRANCH   1   2
ATOM      2  CB  MET A   1     -23.367  -2.530 -13.008  1.00  0.00     0.056 C 
BRANCH   2   3
ATOM      3  CG  MET A   1     -24.291  -3.203 -11.986  1.00  0.00     0.076 C 
BRANCH   3   4
ATOM      4  SD  MET A   1     -23.374  -4.302 -10.857  1.00  0.00    -0.173 SA
ATOM      5  CE  MET A   1     -21.709  -4.062 -11.526  1.00  0.00     0.089 C 
ENDBRANCH   3   4
ENDBRANCH   2   3
ENDBRANCH   1   2
BRANCH   1   6
ATOM      6  C   MET A   1     -25.086  -1.682 -14.662  1.00  0.00     0.173 C 
ATOM      7  O   MET A   1     -26.227  -2.107 -14.766  1.00  0.00    -0.648 OA
BRANCH   6   8
ATOM      8  OXT MET A   1     -24.799  -0.360 -14.726  1.00  0.00    -0.775 OA
ATOM      9  HXT MET A   1     -25.461   0.209 -14.278  1.00  0.00     0.167 HD
ENDBRANCH   6   8
ENDBRANCH   1   6
BRANCH   1  10
ATOM     10  N   MET A   1     -22.755  -2.102 -15.350  1.00  0.00     0.093 N 
ATOM     11  H1  MET A   1     -22.035  -1.677 -14.762  1.00  0.00     0.314 HD
ATOM     12  H2  MET A   1     -23.105  -1.321 -15.911  1.00  0.00     0.314 HD
ENDBRANCH   1  10
TORSDOF 6
BEGIN_RES ARG D 557
REMARK  4 active torsions:
REMARK  status: ('A' for Active; 'I' for Inactive)
REMARK    1  A    between atoms: CA   and  CB  
REMARK    2  A    between atoms: CB   and  CG  
REMARK    3  A    between atoms: CG   and  CD  
REMARK    4  A    between atoms: CD   and  NE  
REMARK       I    between atoms: NE   and  CZ  
REMARK       I    between atoms: CZ   and  NH1 
REMARK       I    between atoms: CZ   and  NH2 
ROOT
ATOM      1  CA  ARG D 557     -26.217   2.705 -17.014  1.00 35.49     0.159 C 
ENDROOT
BRANCH   1   2
ATOM      2  CB  ARG D 557     -26.789   1.319 -17.183  1.00 35.49     0.034 C 
BRANCH   2   3
ATOM      3  CG  ARG D 557     -28.138   1.092 -16.651  1.00 35.49     0.027 C 
BRANCH   3   4
ATOM      4  CD  ARG D 557     -28.805  -0.071 -17.281  1.00 35.49     0.116 C 
BRANCH   4   5
ATOM      5  NE  ARG D 557     -28.212  -1.319 -16.879  1.00 35.49    -0.212 N 
ATOM      6  CZ  ARG D 557     -28.727  -2.512 -17.074  1.00 35.49     0.666 C 
ATOM      7  NH1 ARG D 557     -29.893  -2.693 -17.668  1.00 35.49    -0.235 N 
ATOM      8  NH2 ARG D 557     -28.040  -3.538 -16.662  1.00 35.49    -0.235 N 
ATOM      9  HH  ARG D 557     -30.361  -2.033 -17.948  1.00 35.49     0.174 HD
ATOM     10  HH  ARG D 557     -30.178  -3.495 -17.770  1.00 35.49     0.174 HD
ATOM     11  HH  ARG D 557     -27.287  -3.392 -16.289  1.00 35.49     0.174 HD
ATOM     12  HH  ARG D 557     -28.338  -4.324 -16.774  1.00 35.49     0.174 HD
ATOM     13  HE  ARG D 557     -27.493  -1.292 -16.425  1.00 35.49     0.178 HD
ENDBRANCH   4   5
ENDBRANCH   3   4
ENDBRANCH   2   3
ENDBRANCH   1   2
END_RES ARG D 557
BEGIN_RES GLU D 570
REMARK  3 active torsions:
REMARK  status: ('A' for Active; 'I' for Inactive)
REMARK    5  A    between atoms: CA   and  CB  
REMARK    6  A    between atoms: CB   and  CG  
REMARK    7  A    between atoms: CG   and  CD  
ROOT
ATOM     14  CA  GLU D 570     -18.033  -6.348 -13.375  1.00 32.92     0.160 C 
ENDROOT
BRANCH  14  15
ATOM     15  CB  GLU D 570     -19.500  -6.345 -13.794  1.00 32.92     0.043 C 
BRANCH  15  16
ATOM     16  CG  GLU D 570     -19.817  -5.892 -15.173  1.00 32.92     0.100 C 
BRANCH  16  17
ATOM     17  CD  GLU D 570     -21.259  -5.474 -15.339  1.00 32.92     0.185 C 
ATOM     18  OE1 GLU D 570     -22.100  -5.854 -14.501  1.00 32.92    -0.647 OA
ATOM     19  OE2 GLU D 570     -21.555  -4.773 -16.327  1.00 32.92    -0.647 OA
ENDBRANCH  16  17
ENDBRANCH  15  16
ENDBRANCH  14  15
END_RES GLU D 570
ENDMDL
MODEL 3
REMARK VINA RESULT:      -4.5      4.475      6.561
REMARK  6 active torsions:
REMARK  status: ('A' for Active; 'I' for Inactive)
REMARK    1  A    between atoms: SD_2  and  CG_3 
REMARK    2  A    between atoms: CG_3  and  CB_4 
REMARK    3  A    between atoms: CB_4  and  CA_5 
REMARK    4  A    between atoms: CA_5  and  C_6 
REMARK    5  A    between atoms: CA_5  and  N_9 
REMARK    6  A    between atoms: C_6  and  OXT_8 
ROOT
ATOM      1  CA  MET A   1     -26.519  -5.932 -16.554  1.00  0.00     0.315 C 
ENDROOT
BRANCH   1   2
ATOM      2  CB  MET A   1     -27.859  -6.462 -16.022  1.00  0.00     0.056 C 
BRANCH   2   3
ATOM      3  CG  MET A   1     -28.976  -5.421 -15.886  1.00  0.00     0.076 C 
BRANCH   3   4
ATOM      4  SD  MET A   1     -28.712  -3.989 -16.983  1.00  0.00    -0.173 SA
ATOM      5  CE  MET A   1     -29.407  -4.674 -18.507  1.00  0.00     0.089 C 
ENDBRANCH   3   4
ENDBRANCH   2   3
ENDBRANCH   1   2
BRANCH   1   6
ATOM      6  C   MET A   1     -25.398  -6.144 -15.523  1.00  0.00     0.173 C 
ATOM      7  O   MET A   1     -25.029  -7.239 -15.126  1.00  0.00    -0.648 OA
BRANCH   6   8
ATOM      8  OXT MET A   1     -24.853  -4.990 -15.068  1.00  0.00    -0.775 OA
ATOM      9  HXT MET A   1     -25.154  -4.740 -14.168  1.00  0.00     0.167 HD
ENDBRANCH   6   8
ENDBRANCH   1   6
BRANCH   1  10
ATOM     10  N   MET A   1     -26.180  -6.644 -17.808  1.00  0.00     0.093 N 
ATOM     11  H1  MET A   1     -26.197  -5.964 -18.571  1.00  0.00     0.314 HD
ATOM     12  H2  MET A   1     -26.946  -7.284 -18.035  1.00  0.00     0.314 HD
ENDBRANCH   1  10
TORSDOF 6
BEGIN_RES ARG D 557
REMARK  4 active torsions:
REMARK  status: ('A' for Active; 'I' for Inactive)
REMARK    1  A    between atoms: CA   and  CB  
REMARK    2  A    between atoms: CB   and  CG  
REMARK    3  A    between atoms: CG   and  CD  
REMARK    4  A    between atoms: CD   and  NE  
REMARK       I    between atoms: NE   and  CZ  
REMARK       I    between atoms: CZ   and  NH1 
REMARK       I    between atoms: CZ   and  NH2 
ROOT
ATOM      1  CA  ARG D 557     -26.217   2.705 -17.014  1.00 35.49     0.159 C 
ENDROOT
BRANCH   1   2
ATOM      2  CB  ARG D 557     -26.789   1.319 -17.183  1.00 35.49     0.034 C 
BRANCH   2   3
ATOM      3  CG  ARG D 557     -25.836   0.203 -17.153  1.00 35.49     0.027 C 
BRANCH   3   4
ATOM      4  CD  ARG D 557     -24.792   0.380 -16.118  1.00 35.49     0.116 C 
BRANCH   4   5
ATOM      5  NE  ARG D 557     -24.980  -0.507 -15.000  1.00 35.49    -0.212 N 
ATOM      6  CZ  ARG D 557     -24.173  -1.484 -14.651  1.00 35.49     0.666 C 
ATOM      7  NH1 ARG D 557     -23.074  -1.771 -15.324  1.00 35.49    -0.235 N 
ATOM      8  NH2 ARG D 557     -24.489  -2.176 -13.595  1.00 35.49    -0.235 N 
ATOM      9  HH  ARG D 557     -22.845  -1.327 -16.021  1.00 35.49     0.174 HD
ATOM     10  HH  ARG D 557     -22.584  -2.418 -15.048  1.00 35.49     0.174 HD
ATOM     11  HH  ARG D 557     -25.201  -1.964 -13.176  1.00 35.49     0.174 HD
ATOM     12  HH  ARG D 557     -23.991  -2.812 -13.337  1.00 35.49     0.174 HD
ATOM     13  HE  ARG D 557     -25.701  -0.441 -14.554  1.00 35.49     0.178 HD
ENDBRANCH   4   5
ENDBRANCH   3   4
ENDBRANCH   2   3
ENDBRANCH   1   2
END_RES ARG D 557
BEGIN_RES GLU D 570
REMARK  3 active torsions:
REMARK  status: ('A' for Active; 'I' for Inactive)
REMARK    5  A    between atoms: CA   and  CB  
REMARK    6  A    between atoms: CB   and  CG  
REMARK    7  A    between atoms: CG   and  CD  
ROOT
ATOM     14  CA  GLU D 570     -18.033  -6.348 -13.375  1.00 32.92     0.160 C 
ENDROOT
BRANCH  14  15
ATOM     15  CB  GLU D 570     -19.500  -6.345 -13.794  1.00 32.92     0.043 C 
BRANCH  15  16
ATOM     16  CG  GLU D 570     -20.441  -5.527 -12.986  1.00 32.92     0.100 C 
BRANCH  16  17
ATOM     17  CD  GLU D 570     -21.699  -5.161 -13.738  1.00 32.92     0.185 C 
ATOM     18  OE1 GLU D 570     -22.384  -4.199 -13.339  1.00 32.92    -0.647 OA
ATOM     19  OE2 GLU D 570     -22.012  -5.853 -14.727  1.00 32.92    -0.647 OA
ENDBRANCH  16  17
ENDBRANCH  15  16
ENDBRANCH  14  15
END_RES GLU D 570
ENDMDL
MODEL 4
REMARK VINA RESULT:      -4.5      1.382      1.754
REMARK  6 active torsions:
REMARK  status: ('A' for Active; 'I' for Inactive)
REMARK    1  A    between atoms: SD_2  and  CG_3 
REMARK    2  A    between atoms: CG_3  and  CB_4 
REMARK    3  A    between atoms: CB_4  and  CA_5 
REMARK    4  A    between atoms: CA_5  and  C_6 
REMARK    5  A    between atoms: CA_5  and  N_9 
REMARK    6  A    between atoms: C_6  and  OXT_8 
ROOT
ATOM      1  CA  MET A   1     -23.044  -3.902  -9.881  1.00  0.00     0.315 C 
ENDROOT
BRANCH   1   2
ATOM      2  CB  MET A   1     -22.660  -3.683  -8.410  1.00  0.00     0.056 C 
BRANCH   2   3
ATOM      3  CG  MET A   1     -22.060  -4.899  -7.694  1.00  0.00     0.076 C 
BRANCH   3   4
ATOM      4  SD  MET A   1     -20.665  -4.436  -6.614  1.00  0.00    -0.173 SA
ATOM      5  CE  MET A   1     -19.372  -4.302  -7.874  1.00  0.00     0.089 C 
ENDBRANCH   3   4
ENDBRANCH   2   3
ENDBRANCH   1   2
BRANCH   1   6
ATOM      6  C   MET A   1     -24.432  -3.310 -10.179  1.00  0.00     0.173 C 
ATOM      7  O   MET A   1     -24.920  -3.236 -11.297  1.00  0.00    -0.648 OA
BRANCH   6   8
ATOM      8  OXT MET A   1     -25.074  -2.853  -9.078  1.00  0.00    -0.775 OA
ATOM      9  HXT MET A   1     -24.738  -1.990  -8.755  1.00  0.00     0.167 HD
ENDBRANCH   6   8
ENDBRANCH   1   6
BRANCH   1  10
ATOM     10  N   MET A   1     -22.032  -3.253 -10.747  1.00  0.00     0.093 N 
ATOM     11  H1  MET A   1     -22.081  -3.689 -11.670  1.00  0.00     0.314 HD
ATOM     12  H2  MET A   1     -21.101  -3.509 -10.405  1.00  0.00     0.314 HD
ENDBRANCH   1  10
TORSDOF 6
BEGIN_RES ARG D 557
REMARK  4 active torsions:
REMARK  status: ('A' for Active; 'I' for Inactive)
REMARK    1  A    between atoms: CA   and  CB  
REMARK    2  A    between atoms: CB   and  CG  
REMARK    3  A    between atoms: CG   and  CD  
REMARK    4  A    between atoms: CD   and  NE  
REMARK       I    between atoms: NE   and  CZ  
REMARK       I    between atoms: CZ   and  NH1 
REMARK       I    between atoms: CZ   and  NH2 
ROOT
ATOM      1  CA  ARG D 557     -26.217   2.705 -17.014  1.00 35.49     0.159 C 
ENDROOT
BRANCH   1   2
ATOM      2  CB  ARG D 557     -26.789   1.319 -17.183  1.00 35.49     0.034 C 
BRANCH   2   3
ATOM      3  CG  ARG D 557     -25.858   0.196 -17.021  1.00 35.49     0.027 C 
BRANCH   3   4
ATOM      4  CD  ARG D 557     -26.174  -0.632 -15.835  1.00 35.49     0.116 C 
BRANCH   4   5
ATOM      5  NE  ARG D 557     -25.048  -0.761 -14.948  1.00 35.49    -0.212 N 
ATOM      6  CZ  ARG D 557     -24.655  -1.869 -14.360  1.00 35.49     0.666 C 
ATOM      7  NH1 ARG D 557     -25.287  -3.017 -14.518  1.00 35.49    -0.235 N 
ATOM      8  NH2 ARG D 557     -23.598  -1.805 -13.604  1.00 35.49    -0.235 N 
ATOM      9  HH  ARG D 557     -25.983  -3.083 -15.013  1.00 35.49     0.174 HD
ATOM     10  HH  ARG D 557     -24.983  -3.708 -14.112  1.00 35.49     0.174 HD
ATOM     11  HH  ARG D 557     -23.206  -1.052 -13.526  1.00 35.49     0.174 HD
ATOM     12  HH  ARG D 557     -23.312  -2.500 -13.211  1.00 35.49     0.174 HD
ATOM     13  HE  ARG D 557     -24.626  -0.054 -14.732  1.00 35.49     0.178 HD
ENDBRANCH   4   5
ENDBRANCH   3   4
ENDBRANCH   2   3
ENDBRANCH   1   2
END_RES ARG D 557
BEGIN_RES GLU D 570
REMARK  3 active torsions:
REMARK  status: ('A' for Active; 'I' for Inactive)
REMARK    5  A    between atoms: CA   and  CB  
REMARK    6  A    between atoms: CB   and  CG  
REMARK    7  A    between atoms: CG   and  CD  
ROOT
ATOM     14  CA  GLU D 570     -18.033  -6.348 -13.375  1.00 32.92     0.160 C 
ENDROOT
BRANCH  14  15
ATOM     15  CB  GLU D 570     -19.500  -6.345 -13.794  1.00 32.92     0.043 C 
BRANCH  15  16
ATOM     16  CG  GLU D 570     -20.427  -5.468 -13.033  1.00 32.92     0.100 C 
BRANCH  16  17
ATOM     17  CD  GLU D 570     -21.624  -5.031 -13.845  1.00 32.92     0.185 C 
ATOM     18  OE1 GLU D 570     -22.672  -4.709 -13.253  1.00 32.92    -0.647 OA
ATOM     19  OE2 GLU D 570     -21.518  -5.027 -15.088  1.00 32.92    -0.647 OA
ENDBRANCH  16  17
ENDBRANCH  15  16
ENDBRANCH  14  15
END_RES GLU D 570
ENDMDL
MODEL 5
REMARK VINA RESULT:      -4.4      8.306     10.314
REMARK  6 active torsions:
REMARK  status: ('A' for Active; 'I' for Inactive)
REMARK    1  A    between atoms: SD_2  and  CG_3 
REMARK    2  A    between atoms: CG_3  and  CB_4 
REMARK    3  A    between atoms: CB_4  and  CA_5 
REMARK    4  A    between atoms: CA_5  and  C_6 
REMARK    5  A    between atoms: CA_5  and  N_9 
REMARK    6  A    between atoms: C_6  and  OXT_8 
ROOT
ATOM      1  CA  MET A   1     -36.123   0.300 -15.251  1.00  0.00     0.315 C 
ENDROOT
BRANCH   1   2
ATOM      2  CB  MET A   1     -37.315  -0.013 -14.335  1.00  0.00     0.056 C 
BRANCH   2   3
ATOM      3  CG  MET A   1     -36.976  -0.227 -12.856  1.00  0.00     0.076 C 
BRANCH   3   4
ATOM      4  SD  MET A   1     -35.182  -0.122 -12.545  1.00  0.00    -0.173 SA
ATOM      5  CE  MET A   1     -34.817  -1.891 -12.424  1.00  0.00     0.089 C 
ENDBRANCH   3   4
ENDBRANCH   2   3
ENDBRANCH   1   2
BRANCH   1   6
ATOM      6  C   MET A   1     -35.854  -0.866 -16.218  1.00  0.00     0.173 C 
ATOM      7  O   MET A   1     -35.146  -1.826 -15.955  1.00  0.00    -0.648 OA
BRANCH   6   8
ATOM      8  OXT MET A   1     -36.469  -0.729 -17.418  1.00  0.00    -0.775 OA
ATOM      9  HXT MET A   1     -36.494  -1.556 -17.944  1.00  0.00     0.167 HD
ENDBRANCH   6   8
ENDBRANCH   1   6
BRANCH   1  10
ATOM     10  N   MET A   1     -36.416   1.528 -16.026  1.00  0.00     0.093 N 
ATOM     11  H1  MET A   1     -36.187   1.345 -17.006  1.00  0.00     0.314 HD
ATOM     12  H2  MET A   1     -35.748   2.252 -15.750  1.00  0.00     0.314 HD
ENDBRANCH   1  10
TORSDOF 6
BEGIN_RES ARG D 557
REMARK  4 active torsions:
REMARK  status: ('A' for Active; 'I' for Inactive)
REMARK    1  A    between atoms: CA   and  CB  
REMARK    2  A    between atoms: CB   and  CG  
REMARK    3  A    between atoms: CG   and  CD  
REMARK    4  A    between atoms: CD   and  NE  
REMARK       I    between atoms: NE   and  CZ  
REMARK       I    between atoms: CZ   and  NH1 
REMARK       I    between atoms: CZ   and  NH2 
ROOT
ATOM      1  CA  ARG D 557     -26.217   2.705 -17.014  1.00 35.49     0.159 C 
ENDROOT
BRANCH   1   2
ATOM      2  CB  ARG D 557     -26.789   1.319 -17.183  1.00 35.49     0.034 C 
BRANCH   2   3
ATOM      3  CG  ARG D 557     -25.834   0.204 -17.170  1.00 35.49     0.027 C 
BRANCH   3   4
ATOM      4  CD  ARG D 557     -24.751   0.400 -16.180  1.00 35.49     0.116 C 
BRANCH   4   5
ATOM      5  NE  ARG D 557     -24.910  -0.446 -15.027  1.00 35.49    -0.212 N 
ATOM      6  CZ  ARG D 557     -24.099  -1.417 -14.670  1.00 35.49     0.666 C 
ATOM      7  NH1 ARG D 557     -23.024  -1.736 -15.366  1.00 35.49    -0.235 N 
ATOM      8  NH2 ARG D 557     -24.387  -2.069 -13.581  1.00 35.49    -0.235 N 
ATOM      9  HH  ARG D 557     -22.814  -1.319 -16.084  1.00 35.49     0.174 HD
ATOM     10  HH  ARG D 557     -22.531  -2.377 -15.083  1.00 35.49     0.174 HD
ATOM     11  HH  ARG D 557     -25.084  -1.836 -13.147  1.00 35.49     0.174 HD
ATOM     12  HH  ARG D 557     -23.886  -2.699 -13.316  1.00 35.49     0.174 HD
ATOM     13  HE  ARG D 557     -25.615  -0.358 -14.561  1.00 35.49     0.178 HD
ENDBRANCH   4   5
ENDBRANCH   3   4
ENDBRANCH   2   3
ENDBRANCH   1   2
END_RES ARG D 557
BEGIN_RES GLU D 570
REMARK  3 active torsions:
REMARK  status: ('A' for Active; 'I' for Inactive)
REMARK    5  A    between atoms: CA   and  CB  
REMARK    6  A    between atoms: CB   and  CG  
REMARK    7  A    between atoms: CG   and  CD  
ROOT
ATOM     14  CA  GLU D 570     -18.033  -6.348 -13.375  1.00 32.92     0.160 C 
ENDROOT
BRANCH  14  15
ATOM     15  CB  GLU D 570     -19.500  -6.345 -13.794  1.00 32.92     0.043 C 
BRANCH  15  16
ATOM     16  CG  GLU D 570     -20.441  -5.528 -12.985  1.00 32.92     0.100 C 
BRANCH  16  17
ATOM     17  CD  GLU D 570     -21.746  -5.254 -13.697  1.00 32.92     0.185 C 
ATOM     18  OE1 GLU D 570     -22.212  -6.122 -14.461  1.00 32.92    -0.647 OA
ATOM     19  OE2 GLU D 570     -22.298  -4.154 -13.502  1.00 32.92    -0.647 OA
ENDBRANCH  16  17
ENDBRANCH  15  16
ENDBRANCH  14  15
END_RES GLU D 570
ENDMDL
MODEL 6
REMARK VINA RESULT:      -4.3      5.665      7.411
REMARK  6 active torsions:
REMARK  status: ('A' for Active; 'I' for Inactive)
REMARK    1  A    between atoms: SD_2  and  CG_3 
REMARK    2  A    between atoms: CG_3  and  CB_4 
REMARK    3  A    between atoms: CB_4  and  CA_5 
REMARK    4  A    between atoms: CA_5  and  C_6 
REMARK    5  A    between atoms: CA_5  and  N_9 
REMARK    6  A    between atoms: C_6  and  OXT_8 
ROOT
ATOM      1  CA  MET A   1     -30.359  -4.954 -17.134  1.00  0.00     0.315 C 
ENDROOT
BRANCH   1   2
ATOM      2  CB  MET A   1     -29.394  -5.058 -18.325  1.00  0.00     0.056 C 
BRANCH   2   3
ATOM      3  CG  MET A   1     -28.087  -5.813 -18.055  1.00  0.00     0.076 C 
BRANCH   3   4
ATOM      4  SD  MET A   1     -27.437  -5.478 -16.384  1.00  0.00    -0.173 SA
ATOM      5  CE  MET A   1     -27.680  -7.117 -15.657  1.00  0.00     0.089 C 
ENDBRANCH   3   4
ENDBRANCH   2   3
ENDBRANCH   1   2
BRANCH   1   6
ATOM      6  C   MET A   1     -31.416  -3.865 -17.379  1.00  0.00     0.173 C 
ATOM      7  O   MET A   1     -32.509  -3.834 -16.834  1.00  0.00    -0.648 OA
BRANCH   6   8
ATOM      8  OXT MET A   1     -31.033  -2.930 -18.282  1.00  0.00    -0.775 OA
ATOM      9  HXT MET A   1     -31.654  -2.175 -18.356  1.00  0.00     0.167 HD
ENDBRANCH   6   8
ENDBRANCH   1   6
BRANCH   1  10
ATOM     10  N   MET A   1     -31.030  -6.261 -16.940  1.00  0.00     0.093 N 
ATOM     11  H1  MET A   1     -31.731  -6.367 -17.677  1.00  0.00     0.314 HD
ATOM     12  H2  MET A   1     -31.583  -6.217 -16.081  1.00  0.00     0.314 HD
ENDBRANCH   1  10
TORSDOF 6
BEGIN_RES ARG D 557
REMARK  4 active torsions:
REMARK  status: ('A' for Active; 'I' for Inactive)
REMARK    1  A    between atoms: CA   and  CB  
REMARK    2  A    between atoms: CB   and  CG  
REMARK    3  A    between atoms: CG   and  CD  
REMARK    4  A    between atoms: CD   and  NE  
REMARK       I    between atoms: NE   and  CZ  
REMARK       I    between atoms: CZ   and  NH1 
REMARK       I    between atoms: CZ   and  NH2 
ROOT
ATOM      1  CA  ARG D 557     -26.217   2.705 -17.014  1.00 35.49     0.159 C 
ENDROOT
BRANCH   1   2
ATOM      2  CB  ARG D 557     -26.789   1.319 -17.183  1.00 35.49     0.034 C 
BRANCH   2   3
ATOM      3  CG  ARG D 557     -25.836   0.203 -17.154  1.00 35.49     0.027 C 
BRANCH   3   4
ATOM      4  CD  ARG D 557     -24.749   0.414 -16.172  1.00 35.49     0.116 C 
BRANCH   4   5
ATOM      5  NE  ARG D 557     -24.890  -0.431 -15.016  1.00 35.49    -0.212 N 
ATOM      6  CZ  ARG D 557     -24.074  -1.403 -14.671  1.00 35.49     0.666 C 
ATOM      7  NH1 ARG D 557     -23.010  -1.722 -15.384  1.00 35.49    -0.235 N 
ATOM      8  NH2 ARG D 557     -24.346  -2.054 -13.577  1.00 35.49    -0.235 N 
ATOM      9  HH  ARG D 557     -22.811  -1.306 -16.105  1.00 35.49     0.174 HD
ATOM     10  HH  ARG D 557     -22.513  -2.363 -15.108  1.00 35.49     0.174 HD
ATOM     11  HH  ARG D 557     -25.036  -1.821 -13.133  1.00 35.49     0.174 HD
ATOM     12  HH  ARG D 557     -23.841  -2.684 -13.320  1.00 35.49     0.174 HD
ATOM     13  HE  ARG D 557     -25.588  -0.343 -14.539  1.00 35.49     0.178 HD
ENDBRANCH   4   5
ENDBRANCH   3   4
ENDBRANCH   2   3
ENDBRANCH   1   2
END_RES ARG D 557
BEGIN_RES GLU D 570
REMARK  3 active torsions:
REMARK  status: ('A' for Active; 'I' for Inactive)
REMARK    5  A    between atoms: CA   and  CB  
REMARK    6  A    between atoms: CB   and  CG  
REMARK    7  A    between atoms: CG   and  CD  
ROOT
ATOM     14  CA  GLU D 570     -18.033  -6.348 -13.375  1.00 32.92     0.160 C 
ENDROOT
BRANCH  14  15
ATOM     15  CB  GLU D 570     -19.500  -6.345 -13.794  1.00 32.92     0.043 C 
BRANCH  15  16
ATOM     16  CG  GLU D 570     -20.446  -5.551 -12.969  1.00 32.92     0.100 C 
BRANCH  16  17
ATOM     17  CD  GLU D 570     -21.739  -5.243 -13.686  1.00 32.92     0.185 C 
ATOM     18  OE1 GLU D 570     -22.268  -4.125 -13.529  1.00 32.92    -0.647 OA
ATOM     19  OE2 GLU D 570     -22.238  -6.135 -14.401  1.00 32.92    -0.647 OA
ENDBRANCH  16  17
ENDBRANCH  15  16
ENDBRANCH  14  15
END_RES GLU D 570
ENDMDL
MODEL 7
REMARK VINA RESULT:      -4.1      2.100      2.404
REMARK  6 active torsions:
REMARK  status: ('A' for Active; 'I' for Inactive)
REMARK    1  A    between atoms: SD_2  and  CG_3 
REMARK    2  A    between atoms: CG_3  and  CB_4 
REMARK    3  A    between atoms: CB_4  and  CA_5 
REMARK    4  A    between atoms: CA_5  and  C_6 
REMARK    5  A    between atoms: CA_5  and  N_9 
REMARK    6  A    between atoms: C_6  and  OXT_8 
ROOT
ATOM      1  CA  MET A   1     -23.445  -4.025 -10.574  1.00  0.00     0.315 C 
ENDROOT
BRANCH   1   2
ATOM      2  CB  MET A   1     -22.296  -4.725  -9.831  1.00  0.00     0.056 C 
BRANCH   2   3
ATOM      3  CG  MET A   1     -20.968  -3.960  -9.794  1.00  0.00     0.076 C 
BRANCH   3   4
ATOM      4  SD  MET A   1     -20.111  -4.156  -8.197  1.00  0.00    -0.173 SA
ATOM      5  CE  MET A   1     -21.045  -5.566  -7.552  1.00  0.00     0.089 C 
ENDBRANCH   3   4
ENDBRANCH   2   3
ENDBRANCH   1   2
BRANCH   1   6
ATOM      6  C   MET A   1     -24.548  -3.592  -9.593  1.00  0.00     0.173 C 
ATOM      7  O   MET A   1     -25.615  -3.104  -9.933  1.00  0.00    -0.648 OA
BRANCH   6   8
ATOM      8  OXT MET A   1     -24.224  -3.787  -8.292  1.00  0.00    -0.775 OA
ATOM      9  HXT MET A   1     -24.424  -3.017  -7.717  1.00  0.00     0.167 HD
ENDBRANCH   6   8
ENDBRANCH   1   6
BRANCH   1  10
ATOM     10  N   MET A   1     -22.912  -2.834 -11.277  1.00  0.00     0.093 N 
ATOM     11  H1  MET A   1     -23.334  -2.004 -10.854  1.00  0.00     0.314 HD
ATOM     12  H2  MET A   1     -23.276  -2.833 -12.233  1.00  0.00     0.314 HD
ENDBRANCH   1  10
TORSDOF 6
BEGIN_RES ARG D 557
REMARK  4 active torsions:
REMARK  status: ('A' for Active; 'I' for Inactive)
REMARK    1  A    between atoms: CA   and  CB  
REMARK    2  A    between atoms: CB   and  CG  
REMARK    3  A    between atoms: CG   and  CD  
REMARK    4  A    between atoms: CD   and  NE  
REMARK       I    between atoms: NE   and  CZ  
REMARK       I    between atoms: CZ   and  NH1 
REMARK       I    between atoms: CZ   and  NH2 
ROOT
ATOM      1  CA  ARG D 557     -26.217   2.705 -17.014  1.00 35.49     0.159 C 
ENDROOT
BRANCH   1   2
ATOM      2  CB  ARG D 557     -26.789   1.319 -17.183  1.00 35.49     0.034 C 
BRANCH   2   3
ATOM      3  CG  ARG D 557     -28.225   1.161 -16.923  1.00 35.49     0.027 C 
BRANCH   3   4
ATOM      4  CD  ARG D 557     -28.609  -0.255 -16.721  1.00 35.49     0.116 C 
BRANCH   4   5
ATOM      5  NE  ARG D 557     -27.598  -0.997 -16.016  1.00 35.49    -0.212 N 
ATOM      6  CZ  ARG D 557     -27.414  -2.296 -16.078  1.00 35.49     0.666 C 
ATOM      7  NH1 ARG D 557     -28.176  -3.086 -16.812  1.00 35.49    -0.235 N 
ATOM      8  NH2 ARG D 557     -26.432  -2.798 -15.386  1.00 35.49    -0.235 N 
ATOM      9  HH  ARG D 557     -28.826  -2.777 -17.277  1.00 35.49     0.174 HD
ATOM     10  HH  ARG D 557     -28.007  -3.926 -16.816  1.00 35.49     0.174 HD
ATOM     11  HH  ARG D 557     -25.952  -2.263 -14.927  1.00 35.49     0.174 HD
ATOM     12  HH  ARG D 557     -26.280  -3.632 -15.405  1.00 35.49     0.174 HD
ATOM     13  HE  ARG D 557     -27.107  -0.576 -15.463  1.00 35.49     0.178 HD
ENDBRANCH   4   5
ENDBRANCH   3   4
ENDBRANCH   2   3
ENDBRANCH   1   2
END_RES ARG D 557
BEGIN_RES GLU D 570
REMARK  3 active torsions:
REMARK  status: ('A' for Active; 'I' for Inactive)
REMARK    5  A    between atoms: CA   and  CB  
REMARK    6  A    between atoms: CB   and  CG  
REMARK    7  A    between atoms: CG   and  CD  
ROOT
ATOM     14  CA  GLU D 570     -18.033  -6.348 -13.375  1.00 32.92     0.160 C 
ENDROOT
BRANCH  14  15
ATOM     15  CB  GLU D 570     -19.500  -6.345 -13.794  1.00 32.92     0.043 C 
BRANCH  15  16
ATOM     16  CG  GLU D 570     -20.436  -5.503 -13.004  1.00 32.92     0.100 C 
BRANCH  16  17
ATOM     17  CD  GLU D 570     -21.732  -5.225 -13.729  1.00 32.92     0.185 C 
ATOM     18  OE1 GLU D 570     -22.363  -6.176 -14.227  1.00 32.92    -0.647 OA
ATOM     19  OE2 GLU D 570     -22.112  -4.040 -13.812  1.00 32.92    -0.647 OA
ENDBRANCH  16  17
ENDBRANCH  15  16
ENDBRANCH  14  15
END_RES GLU D 570
ENDMDL
MODEL 8
REMARK VINA RESULT:      -4.0      1.933      2.290
REMARK  6 active torsions:
REMARK  status: ('A' for Active; 'I' for Inactive)
REMARK    1  A    between atoms: SD_2  and  CG_3 
REMARK    2  A    between atoms: CG_3  and  CB_4 
REMARK    3  A    between atoms: CB_4  and  CA_5 
REMARK    4  A    between atoms: CA_5  and  C_6 
REMARK    5  A    between atoms: CA_5  and  N_9 
REMARK    6  A    between atoms: C_6  and  OXT_8 
ROOT
ATOM      1  CA  MET A   1     -22.640  -3.873 -10.699  1.00  0.00     0.315 C 
ENDROOT
BRANCH   1   2
ATOM      2  CB  MET A   1     -22.059  -4.608  -9.482  1.00  0.00     0.056 C 
BRANCH   2   3
ATOM      3  CG  MET A   1     -22.440  -4.028  -8.114  1.00  0.00     0.076 C 
BRANCH   3   4
ATOM      4  SD  MET A   1     -21.041  -4.062  -6.945  1.00  0.00    -0.173 SA
ATOM      5  CE  MET A   1     -19.702  -4.370  -8.123  1.00  0.00     0.089 C 
ENDBRANCH   3   4
ENDBRANCH   2   3
ENDBRANCH   1   2
BRANCH   1   6
ATOM      6  C   MET A   1     -21.518  -3.379 -11.628  1.00  0.00     0.173 C 
ATOM      7  O   MET A   1     -20.431  -2.981 -11.238  1.00  0.00    -0.648 OA
BRANCH   6   8
ATOM      8  OXT MET A   1     -21.849  -3.408 -12.941  1.00  0.00    -0.775 OA
ATOM      9  HXT MET A   1     -21.134  -3.094 -13.535  1.00  0.00     0.167 HD
ENDBRANCH   6   8
ENDBRANCH   1   6
BRANCH   1  10
ATOM     10  N   MET A   1     -23.529  -4.796 -11.443  1.00  0.00     0.093 N 
ATOM     11  H1  MET A   1     -23.146  -4.912 -12.384  1.00  0.00     0.314 HD
ATOM     12  H2  MET A   1     -24.425  -4.328 -11.600  1.00  0.00     0.314 HD
ENDBRANCH   1  10
TORSDOF 6
BEGIN_RES ARG D 557
REMARK  4 active torsions:
REMARK  status: ('A' for Active; 'I' for Inactive)
REMARK    1  A    between atoms: CA   and  CB  
REMARK    2  A    between atoms: CB   and  CG  
REMARK    3  A    between atoms: CG   and  CD  
REMARK    4  A    between atoms: CD   and  NE  
REMARK       I    between atoms: NE   and  CZ  
REMARK       I    between atoms: CZ   and  NH1 
REMARK       I    between atoms: CZ   and  NH2 
ROOT
ATOM      1  CA  ARG D 557     -26.217   2.705 -17.014  1.00 35.49     0.159 C 
ENDROOT
BRANCH   1   2
ATOM      2  CB  ARG D 557     -26.789   1.319 -17.183  1.00 35.49     0.034 C 
BRANCH   2   3
ATOM      3  CG  ARG D 557     -25.834   0.204 -17.167  1.00 35.49     0.027 C 
BRANCH   3   4
ATOM      4  CD  ARG D 557     -24.756   0.399 -16.171  1.00 35.49     0.116 C 
BRANCH   4   5
ATOM      5  NE  ARG D 557     -24.917  -0.453 -15.023  1.00 35.49    -0.212 N 
ATOM      6  CZ  ARG D 557     -24.106  -1.424 -14.667  1.00 35.49     0.666 C 
ATOM      7  NH1 ARG D 557     -23.027  -1.738 -15.361  1.00 35.49    -0.235 N 
ATOM      8  NH2 ARG D 557     -24.396  -2.082 -13.582  1.00 35.49    -0.235 N 
ATOM      9  HH  ARG D 557     -22.816  -1.317 -16.077  1.00 35.49     0.174 HD
ATOM     10  HH  ARG D 557     -22.534  -2.379 -15.080  1.00 35.49     0.174 HD
ATOM     11  HH  ARG D 557     -25.095  -1.853 -13.150  1.00 35.49     0.174 HD
ATOM     12  HH  ARG D 557     -23.894  -2.713 -13.319  1.00 35.49     0.174 HD
ATOM     13  HE  ARG D 557     -25.625  -0.369 -14.559  1.00 35.49     0.178 HD
ENDBRANCH   4   5
ENDBRANCH   3   4
ENDBRANCH   2   3
ENDBRANCH   1   2
END_RES ARG D 557
BEGIN_RES GLU D 570
REMARK  3 active torsions:
REMARK  status: ('A' for Active; 'I' for Inactive)
REMARK    5  A    between atoms: CA   and  CB  
REMARK    6  A    between atoms: CB   and  CG  
REMARK    7  A    between atoms: CG   and  CD  
ROOT
ATOM     14  CA  GLU D 570     -18.033  -6.348 -13.375  1.00 32.92     0.160 C 
ENDROOT
BRANCH  14  15
ATOM     15  CB  GLU D 570     -19.500  -6.345 -13.794  1.00 32.92     0.043 C 
BRANCH  15  16
ATOM     16  CG  GLU D 570     -19.815  -5.919 -15.182  1.00 32.92     0.100 C 
BRANCH  16  17
ATOM     17  CD  GLU D 570     -21.292  -5.697 -15.410  1.00 32.92     0.185 C 
ATOM     18  OE1 GLU D 570     -21.692  -4.557 -15.713  1.00 32.92    -0.647 OA
ATOM     19  OE2 GLU D 570     -22.058  -6.670 -15.269  1.00 32.92    -0.647 OA
ENDBRANCH  16  17
ENDBRANCH  15  16
ENDBRANCH  14  15
END_RES GLU D 570
ENDMDL
MODEL 9
REMARK VINA RESULT:      -3.9      8.583     10.634
REMARK  6 active torsions:
REMARK  status: ('A' for Active; 'I' for Inactive)
REMARK    1  A    between atoms: SD_2  and  CG_3 
REMARK    2  A    between atoms: CG_3  and  CB_4 
REMARK    3  A    between atoms: CB_4  and  CA_5 
REMARK    4  A    between atoms: CA_5  and  C_6 
REMARK    5  A    between atoms: CA_5  and  N_9 
REMARK    6  A    between atoms: C_6  and  OXT_8 
ROOT
ATOM      1  CA  MET A   1     -36.086   0.311 -15.255  1.00  0.00     0.315 C 
ENDROOT
BRANCH   1   2
ATOM      2  CB  MET A   1     -37.298   0.030 -14.354  1.00  0.00     0.056 C 
BRANCH   2   3
ATOM      3  CG  MET A   1     -36.978  -0.238 -12.878  1.00  0.00     0.076 C 
BRANCH   3   4
ATOM      4  SD  MET A   1     -35.191  -0.122 -12.536  1.00  0.00    -0.173 SA
ATOM      5  CE  MET A   1     -34.814  -1.889 -12.424  1.00  0.00     0.089 C 
ENDBRANCH   3   4
ENDBRANCH   2   3
ENDBRANCH   1   2
BRANCH   1   6
ATOM      6  C   MET A   1     -35.841  -0.859 -16.224  1.00  0.00     0.173 C 
ATOM      7  O   MET A   1     -35.123  -1.816 -15.976  1.00  0.00    -0.648 OA
BRANCH   6   8
ATOM      8  OXT MET A   1     -36.490  -0.729 -17.406  1.00  0.00    -0.775 OA
ATOM      9  HXT MET A   1     -37.465  -0.674 -17.316  1.00  0.00     0.167 HD
ENDBRANCH   6   8
ENDBRANCH   1   6
BRANCH   1  10
ATOM     10  N   MET A   1     -36.335   1.550 -16.028  1.00  0.00     0.093 N 
ATOM     11  H1  MET A   1     -37.130   1.380 -16.650  1.00  0.00     0.314 HD
ATOM     12  H2  MET A   1     -35.551   1.695 -16.669  1.00  0.00     0.314 HD
ENDBRANCH   1  10
TORSDOF 6
BEGIN_RES ARG D 557
REMARK  4 active torsions:
REMARK  status: ('A' for Active; 'I' for Inactive)
REMARK    1  A    between atoms: CA   and  CB  
REMARK    2  A    between atoms: CB   and  CG  
REMARK    3  A    between atoms: CG   and  CD  
REMARK    4  A    between atoms: CD   and  NE  
REMARK       I    between atoms: NE   and  CZ  
REMARK       I    between atoms: CZ   and  NH1 
REMARK       I    between atoms: CZ   and  NH2 
ROOT
ATOM      1  CA  ARG D 557     -26.217   2.705 -17.014  1.00 35.49     0.159 C 
ENDROOT
BRANCH   1   2
ATOM      2  CB  ARG D 557     -26.789   1.319 -17.183  1.00 35.49     0.034 C 
BRANCH   2   3
ATOM      3  CG  ARG D 557     -28.217   1.153 -16.888  1.00 35.49     0.027 C 
BRANCH   3   4
ATOM      4  CD  ARG D 557     -28.604  -0.270 -16.751  1.00 35.49     0.116 C 
BRANCH   4   5
ATOM      5  NE  ARG D 557     -27.616  -1.033 -16.035  1.00 35.49    -0.212 N 
ATOM      6  CZ  ARG D 557     -27.452  -2.335 -16.105  1.00 35.49     0.666 C 
ATOM      7  NH1 ARG D 557     -28.216  -3.106 -16.858  1.00 35.49    -0.235 N 
ATOM      8  NH2 ARG D 557     -26.490  -2.858 -15.402  1.00 35.49    -0.235 N 
ATOM      9  HH  ARG D 557     -28.853  -2.783 -17.330  1.00 35.49     0.174 HD
ATOM     10  HH  ARG D 557     -28.060  -3.949 -16.866  1.00 35.49     0.174 HD
ATOM     11  HH  ARG D 557     -26.009  -2.335 -14.931  1.00 35.49     0.174 HD
ATOM     12  HH  ARG D 557     -26.352  -3.694 -15.424  1.00 35.49     0.174 HD
ATOM     13  HE  ARG D 557     -27.128  -0.625 -15.471  1.00 35.49     0.178 HD
ENDBRANCH   4   5
ENDBRANCH   3   4
ENDBRANCH   2   3
ENDBRANCH   1   2
END_RES ARG D 557
BEGIN_RES GLU D 570
REMARK  3 active torsions:
REMARK  status: ('A' for Active; 'I' for Inactive)
REMARK    5  A    between atoms: CA   and  CB  
REMARK    6  A    between atoms: CB   and  CG  
REMARK    7  A    between atoms: CG   and  CD  
ROOT
ATOM     14  CA  GLU D 570     -18.033  -6.348 -13.375  1.00 32.92     0.160 C 
ENDROOT
BRANCH  14  15
ATOM     15  CB  GLU D 570     -19.500  -6.345 -13.794  1.00 32.92     0.043 C 
BRANCH  15  16
ATOM     16  CG  GLU D 570     -19.797  -6.269 -15.248  1.00 32.92     0.100 C 
BRANCH  16  17
ATOM     17  CD  GLU D 570     -20.824  -7.282 -15.694  1.00 32.92     0.185 C 
ATOM     18  OE1 GLU D 570     -21.873  -6.883 -16.234  1.00 32.92    -0.647 OA
ATOM     19  OE2 GLU D 570     -20.585  -8.488 -15.485  1.00 32.92    -0.647 OA
ENDBRANCH  16  17
ENDBRANCH  15  16
ENDBRANCH  14  15
END_RES GLU D 570
ENDMDL
