MODEL 1
REMARK VINA RESULT:      -6.8      0.000      0.000
REMARK  7 active torsions:
REMARK  status: ('A' for Active; 'I' for Inactive)
REMARK    1  A    between atoms: C_2  and  O_3 
REMARK    2  A    between atoms: O_3  and  C_4 
REMARK    3  A    between atoms: C_5  and  O_14 
REMARK    4  A    between atoms: C_9  and  C_10 
REMARK    5  A    between atoms: C_10  and  C_11 
REMARK    6  A    between atoms: C_10  and  O_13 
REMARK    7  A    between atoms: C_11  and  O_12 
ROOT
HETATM    1  C   UNL     1     -22.555  -4.398  -9.333  1.00  0.00     0.117 C 
HETATM    2  C   UNL     1     -23.723  -4.024  -8.813  1.00  0.00     0.174 C 
HETATM    3  C   UNL     1     -24.609  -3.687  -9.937  1.00  0.00     0.320 C 
HETATM    4  O   UNL     1     -25.750  -3.265  -9.872  1.00  0.00    -0.257 OA
HETATM    5  O   UNL     1     -23.948  -3.942 -11.104  1.00  0.00    -0.301 OA
HETATM    6  C   UNL     1     -22.580  -4.290 -10.820  1.00  0.00     0.222 C 
ENDROOT
BRANCH   6   7
HETATM    7  C   UNL     1     -21.683  -3.202 -11.446  1.00  0.00     0.177 C 
BRANCH   7   8
HETATM    8  C   UNL     1     -20.215  -3.423 -11.051  1.00  0.00     0.198 C 
BRANCH   8   9
HETATM    9  O   UNL     1     -19.912  -4.815 -11.076  1.00  0.00    -0.398 OA
HETATM   10  H   UNL     1     -18.955  -4.884 -11.265  1.00  0.00     0.209 HD
ENDBRANCH   8   9
ENDBRANCH   7   8
BRANCH   7  11
HETATM   11  O   UNL     1     -21.748  -3.219 -12.885  1.00  0.00    -0.390 OA
HETATM   12  H   UNL     1     -21.404  -2.364 -13.207  1.00  0.00     0.210 HD
ENDBRANCH   7  11
ENDBRANCH   6   7
BRANCH   1  13
HETATM   13  O   UNL     1     -21.511  -4.891  -8.581  1.00  0.00    -0.350 OA
BRANCH  13  14
HETATM   14  C   UNL     1     -20.915  -3.935  -7.697  1.00  0.00     0.171 C 
HETATM   15  C   UNL     1     -20.457  -4.627  -6.426  1.00  0.00     0.034 C 
ENDBRANCH  13  14
ENDBRANCH   1  13
BRANCH   2  16
HETATM   16  O   UNL     1     -24.081  -4.014  -7.497  1.00  0.00    -0.353 OA
HETATM   17  H   UNL     1     -24.101  -3.077  -7.221  1.00  0.00     0.218 HD
ENDBRANCH   2  16
TORSDOF 7
BEGIN_RES ARG D 557
REMARK  4 active torsions:
REMARK  status: ('A' for Active; 'I' for Inactive)
REMARK    1  A    between atoms: CA   and  CB  
REMARK    2  A    between atoms: CB   and  CG  
REMARK    3  A    between atoms: CG   and  CD  
REMARK    4  A    between atoms: CD   and  NE  
REMARK       I    between atoms: NE   and  CZ  
REMARK       I    between atoms: CZ   and  NH1 
REMARK       I    between atoms: CZ   and  NH2 
ROOT
ATOM      1  CA  ARG D 557     -26.217   2.705 -17.014  1.00 35.49     0.159 C 
ENDROOT
BRANCH   1   2
ATOM      2  CB  ARG D 557     -26.789   1.319 -17.183  1.00 35.49     0.034 C 
BRANCH   2   3
ATOM      3  CG  ARG D 557     -25.836   0.203 -17.158  1.00 35.49     0.027 C 
BRANCH   3   4
ATOM      4  CD  ARG D 557     -24.773   0.392 -16.144  1.00 35.49     0.116 C 
BRANCH   4   5
ATOM      5  NE  ARG D 557     -24.944  -0.479 -15.010  1.00 35.49    -0.212 N 
ATOM      6  CZ  ARG D 557     -24.128  -1.445 -14.654  1.00 35.49     0.666 C 
ATOM      7  NH1 ARG D 557     -23.034  -1.736 -15.333  1.00 35.49    -0.235 N 
ATOM      8  NH2 ARG D 557     -24.429  -2.121 -13.584  1.00 35.49    -0.235 N 
ATOM      9  HH  ARG D 557     -22.815  -1.303 -16.039  1.00 35.49     0.174 HD
ATOM     10  HH  ARG D 557     -22.538  -2.376 -15.052  1.00 35.49     0.174 HD
ATOM     11  HH  ARG D 557     -25.138  -1.906 -13.161  1.00 35.49     0.174 HD
ATOM     12  HH  ARG D 557     -23.925  -2.750 -13.320  1.00 35.49     0.174 HD
ATOM     13  HE  ARG D 557     -25.661  -0.409 -14.558  1.00 35.49     0.178 HD
ENDBRANCH   4   5
ENDBRANCH   3   4
ENDBRANCH   2   3
ENDBRANCH   1   2
END_RES ARG D 557
BEGIN_RES GLU D 570
REMARK  3 active torsions:
REMARK  status: ('A' for Active; 'I' for Inactive)
REMARK    5  A    between atoms: CA   and  CB  
REMARK    6  A    between atoms: CB   and  CG  
REMARK    7  A    between atoms: CG   and  CD  
ROOT
ATOM     14  CA  GLU D 570     -18.033  -6.348 -13.375  1.00 32.92     0.160 C 
ENDROOT
BRANCH  14  15
ATOM     15  CB  GLU D 570     -19.500  -6.345 -13.794  1.00 32.92     0.043 C 
BRANCH  15  16
ATOM     16  CG  GLU D 570     -19.827  -5.799 -15.137  1.00 32.92     0.100 C 
BRANCH  16  17
ATOM     17  CD  GLU D 570     -21.308  -5.573 -15.336  1.00 32.92     0.185 C 
ATOM     18  OE1 GLU D 570     -21.701  -4.463 -15.742  1.00 32.92    -0.647 OA
ATOM     19  OE2 GLU D 570     -22.084  -6.511 -15.066  1.00 32.92    -0.647 OA
ENDBRANCH  16  17
ENDBRANCH  15  16
ENDBRANCH  14  15
END_RES GLU D 570
ENDMDL
MODEL 2
REMARK VINA RESULT:      -6.8      2.339      3.860
REMARK  7 active torsions:
REMARK  status: ('A' for Active; 'I' for Inactive)
REMARK    1  A    between atoms: C_2  and  O_3 
REMARK    2  A    between atoms: O_3  and  C_4 
REMARK    3  A    between atoms: C_5  and  O_14 
REMARK    4  A    between atoms: C_9  and  C_10 
REMARK    5  A    between atoms: C_10  and  C_11 
REMARK    6  A    between atoms: C_10  and  O_13 
REMARK    7  A    between atoms: C_11  and  O_12 
ROOT
HETATM    1  C   UNL     1     -22.712  -3.024 -11.737  1.00  0.00     0.117 C 
HETATM    2  C   UNL     1     -23.153  -3.072 -12.992  1.00  0.00     0.174 C 
HETATM    3  C   UNL     1     -24.622  -3.104 -12.934  1.00  0.00     0.320 C 
HETATM    4  O   UNL     1     -25.392  -3.190 -13.874  1.00  0.00    -0.257 OA
HETATM    5  O   UNL     1     -25.009  -3.004 -11.629  1.00  0.00    -0.301 OA
HETATM    6  C   UNL     1     -23.851  -3.066 -10.775  1.00  0.00     0.222 C 
ENDROOT
BRANCH   6   7
HETATM    7  C   UNL     1     -23.976  -4.340  -9.914  1.00  0.00     0.177 C 
BRANCH   7   8
HETATM    8  C   UNL     1     -23.168  -4.193  -8.615  1.00  0.00     0.198 C 
BRANCH   8   9
HETATM    9  O   UNL     1     -24.052  -4.160  -7.497  1.00  0.00    -0.398 OA
HETATM   10  H   UNL     1     -24.279  -5.091  -7.300  1.00  0.00     0.209 HD
ENDBRANCH   8   9
ENDBRANCH   7   8
BRANCH   7  11
HETATM   11  O   UNL     1     -25.343  -4.600  -9.541  1.00  0.00    -0.390 OA
HETATM   12  H   UNL     1     -25.332  -5.068  -8.684  1.00  0.00     0.210 HD
ENDBRANCH   7  11
ENDBRANCH   6   7
BRANCH   1  13
HETATM   13  O   UNL     1     -21.384  -2.872 -11.402  1.00  0.00    -0.350 OA
BRANCH  13  14
HETATM   14  C   UNL     1     -20.629  -4.088 -11.413  1.00  0.00     0.171 C 
HETATM   15  C   UNL     1     -20.079  -4.364 -10.025  1.00  0.00     0.034 C 
ENDBRANCH  13  14
ENDBRANCH   1  13
BRANCH   2  16
HETATM   16  O   UNL     1     -22.410  -3.027 -14.136  1.00  0.00    -0.353 OA
HETATM   17  H   UNL     1     -22.775  -2.299 -14.676  1.00  0.00     0.218 HD
ENDBRANCH   2  16
TORSDOF 7
BEGIN_RES ARG D 557
REMARK  4 active torsions:
REMARK  status: ('A' for Active; 'I' for Inactive)
REMARK    1  A    between atoms: CA   and  CB  
REMARK    2  A    between atoms: CB   and  CG  
REMARK    3  A    between atoms: CG   and  CD  
REMARK    4  A    between atoms: CD   and  NE  
REMARK       I    between atoms: NE   and  CZ  
REMARK       I    between atoms: CZ   and  NH1 
REMARK       I    between atoms: CZ   and  NH2 
ROOT
ATOM      1  CA  ARG D 557     -26.217   2.705 -17.014  1.00 35.49     0.159 C 
ENDROOT
BRANCH   1   2
ATOM      2  CB  ARG D 557     -26.789   1.319 -17.183  1.00 35.49     0.034 C 
BRANCH   2   3
ATOM      3  CG  ARG D 557     -28.234   1.225 -17.423  1.00 35.49     0.027 C 
BRANCH   3   4
ATOM      4  CD  ARG D 557     -28.901   0.286 -16.493  1.00 35.49     0.116 C 
BRANCH   4   5
ATOM      5  NE  ARG D 557     -29.229  -0.964 -17.126  1.00 35.49    -0.212 N 
ATOM      6  CZ  ARG D 557     -28.568  -2.091 -16.988  1.00 35.49     0.666 C 
ATOM      7  NH1 ARG D 557     -27.487  -2.192 -16.237  1.00 35.49    -0.235 N 
ATOM      8  NH2 ARG D 557     -29.021  -3.134 -17.621  1.00 35.49    -0.235 N 
ATOM      9  HH  ARG D 557     -27.173  -1.519 -15.809  1.00 35.49     0.174 HD
ATOM     10  HH  ARG D 557     -27.099  -2.954 -16.182  1.00 35.49     0.174 HD
ATOM     11  HH  ARG D 557     -29.725  -3.041 -18.093  1.00 35.49     0.174 HD
ATOM     12  HH  ARG D 557     -28.623  -3.880 -17.554  1.00 35.49     0.174 HD
ATOM     13  HE  ARG D 557     -29.869  -0.972 -17.686  1.00 35.49     0.178 HD
ENDBRANCH   4   5
ENDBRANCH   3   4
ENDBRANCH   2   3
ENDBRANCH   1   2
END_RES ARG D 557
BEGIN_RES GLU D 570
REMARK  3 active torsions:
REMARK  status: ('A' for Active; 'I' for Inactive)
REMARK    5  A    between atoms: CA   and  CB  
REMARK    6  A    between atoms: CB   and  CG  
REMARK    7  A    between atoms: CG   and  CD  
ROOT
ATOM     14  CA  GLU D 570     -18.033  -6.348 -13.375  1.00 32.92     0.160 C 
ENDROOT
BRANCH  14  15
ATOM     15  CB  GLU D 570     -19.500  -6.345 -13.794  1.00 32.92     0.043 C 
BRANCH  15  16
ATOM     16  CG  GLU D 570     -19.797  -6.229 -15.245  1.00 32.92     0.100 C 
BRANCH  16  17
ATOM     17  CD  GLU D 570     -21.242  -5.886 -15.525  1.00 32.92     0.185 C 
ATOM     18  OE1 GLU D 570     -21.501  -4.918 -16.266  1.00 32.92    -0.647 OA
ATOM     19  OE2 GLU D 570     -22.124  -6.582 -14.984  1.00 32.92    -0.647 OA
ENDBRANCH  16  17
ENDBRANCH  15  16
ENDBRANCH  14  15
END_RES GLU D 570
ENDMDL
MODEL 3
REMARK VINA RESULT:      -6.7      1.860      2.396
REMARK  7 active torsions:
REMARK  status: ('A' for Active; 'I' for Inactive)
REMARK    1  A    between atoms: C_2  and  O_3 
REMARK    2  A    between atoms: O_3  and  C_4 
REMARK    3  A    between atoms: C_5  and  O_14 
REMARK    4  A    between atoms: C_9  and  C_10 
REMARK    5  A    between atoms: C_10  and  C_11 
REMARK    6  A    between atoms: C_10  and  O_13 
REMARK    7  A    between atoms: C_11  and  O_12 
ROOT
HETATM    1  C   UNL     1     -22.541  -4.472 -10.148  1.00  0.00     0.117 C 
HETATM    2  C   UNL     1     -23.460  -3.925  -9.354  1.00  0.00     0.174 C 
HETATM    3  C   UNL     1     -24.615  -3.585 -10.199  1.00  0.00     0.320 C 
HETATM    4  O   UNL     1     -25.643  -3.032  -9.850  1.00  0.00    -0.257 OA
HETATM    5  O   UNL     1     -24.364  -4.011 -11.471  1.00  0.00    -0.301 OA
HETATM    6  C   UNL     1     -23.008  -4.487 -11.564  1.00  0.00     0.222 C 
ENDROOT
BRANCH   6   7
HETATM    7  C   UNL     1     -22.256  -3.563 -12.546  1.00  0.00     0.177 C 
BRANCH   7   8
HETATM    8  C   UNL     1     -23.250  -2.810 -13.442  1.00  0.00     0.198 C 
BRANCH   8   9
HETATM    9  O   UNL     1     -23.744  -3.682 -14.456  1.00  0.00    -0.398 OA
HETATM   10  H   UNL     1     -23.369  -4.565 -14.264  1.00  0.00     0.209 HD
ENDBRANCH   8   9
ENDBRANCH   7   8
BRANCH   7  11
HETATM   11  O   UNL     1     -21.469  -2.576 -11.852  1.00  0.00    -0.390 OA
HETATM   12  H   UNL     1     -21.922  -2.374 -11.010  1.00  0.00     0.210 HD
ENDBRANCH   7  11
ENDBRANCH   6   7
BRANCH   1  13
HETATM   13  O   UNL     1     -21.363  -5.016  -9.685  1.00  0.00    -0.350 OA
BRANCH  13  14
HETATM   14  C   UNL     1     -20.383  -4.051  -9.285  1.00  0.00     0.171 C 
HETATM   15  C   UNL     1     -19.840  -4.410  -7.913  1.00  0.00     0.034 C 
ENDBRANCH  13  14
ENDBRANCH   1  13
BRANCH   2  16
HETATM   16  O   UNL     1     -23.400  -3.764  -8.000  1.00  0.00    -0.353 OA
HETATM   17  H   UNL     1     -22.460  -3.610  -7.781  1.00  0.00     0.218 HD
ENDBRANCH   2  16
TORSDOF 7
BEGIN_RES ARG D 557
REMARK  4 active torsions:
REMARK  status: ('A' for Active; 'I' for Inactive)
REMARK    1  A    between atoms: CA   and  CB  
REMARK    2  A    between atoms: CB   and  CG  
REMARK    3  A    between atoms: CG   and  CD  
REMARK    4  A    between atoms: CD   and  NE  
REMARK       I    between atoms: NE   and  CZ  
REMARK       I    between atoms: CZ   and  NH1 
REMARK       I    between atoms: CZ   and  NH2 
ROOT
ATOM      1  CA  ARG D 557     -26.217   2.705 -17.014  1.00 35.49     0.159 C 
ENDROOT
BRANCH   1   2
ATOM      2  CB  ARG D 557     -26.789   1.319 -17.183  1.00 35.49     0.034 C 
BRANCH   2   3
ATOM      3  CG  ARG D 557     -28.237   1.174 -16.990  1.00 35.49     0.027 C 
BRANCH   3   4
ATOM      4  CD  ARG D 557     -28.632  -0.226 -16.711  1.00 35.49     0.116 C 
BRANCH   4   5
ATOM      5  NE  ARG D 557     -27.604  -0.949 -16.009  1.00 35.49    -0.212 N 
ATOM      6  CZ  ARG D 557     -27.401  -2.246 -16.067  1.00 35.49     0.666 C 
ATOM      7  NH1 ARG D 557     -28.157  -3.050 -16.792  1.00 35.49    -0.235 N 
ATOM      8  NH2 ARG D 557     -26.408  -2.730 -15.380  1.00 35.49    -0.235 N 
ATOM      9  HH  ARG D 557     -28.815  -2.753 -17.254  1.00 35.49     0.174 HD
ATOM     10  HH  ARG D 557     -27.975  -3.887 -16.794  1.00 35.49     0.174 HD
ATOM     11  HH  ARG D 557     -25.932  -2.186 -14.926  1.00 35.49     0.174 HD
ATOM     12  HH  ARG D 557     -26.243  -3.561 -15.395  1.00 35.49     0.174 HD
ATOM     13  HE  ARG D 557     -27.116  -0.519 -15.461  1.00 35.49     0.178 HD
ENDBRANCH   4   5
ENDBRANCH   3   4
ENDBRANCH   2   3
ENDBRANCH   1   2
END_RES ARG D 557
BEGIN_RES GLU D 570
REMARK  3 active torsions:
REMARK  status: ('A' for Active; 'I' for Inactive)
REMARK    5  A    between atoms: CA   and  CB  
REMARK    6  A    between atoms: CB   and  CG  
REMARK    7  A    between atoms: CG   and  CD  
ROOT
ATOM     14  CA  GLU D 570     -18.033  -6.348 -13.375  1.00 32.92     0.160 C 
ENDROOT
BRANCH  14  15
ATOM     15  CB  GLU D 570     -19.500  -6.345 -13.794  1.00 32.92     0.043 C 
BRANCH  15  16
ATOM     16  CG  GLU D 570     -19.808  -5.996 -15.205  1.00 32.92     0.100 C 
BRANCH  16  17
ATOM     17  CD  GLU D 570     -21.268  -5.676 -15.428  1.00 32.92     0.185 C 
ATOM     18  OE1 GLU D 570     -21.575  -4.782 -16.239  1.00 32.92    -0.647 OA
ATOM     19  OE2 GLU D 570     -22.113  -6.316 -14.771  1.00 32.92    -0.647 OA
ENDBRANCH  16  17
ENDBRANCH  15  16
ENDBRANCH  14  15
END_RES GLU D 570
ENDMDL
MODEL 4
REMARK VINA RESULT:      -6.4      8.503     10.930
REMARK  7 active torsions:
REMARK  status: ('A' for Active; 'I' for Inactive)
REMARK    1  A    between atoms: C_2  and  O_3 
REMARK    2  A    between atoms: O_3  and  C_4 
REMARK    3  A    between atoms: C_5  and  O_14 
REMARK    4  A    between atoms: C_9  and  C_10 
REMARK    5  A    between atoms: C_10  and  C_11 
REMARK    6  A    between atoms: C_10  and  O_13 
REMARK    7  A    between atoms: C_11  and  O_12 
ROOT
HETATM    1  C   UNL     1     -35.493  -1.830 -12.072  1.00  0.00     0.117 C 
HETATM    2  C   UNL     1     -35.265  -1.223 -13.235  1.00  0.00     0.174 C 
HETATM    3  C   UNL     1     -35.194   0.220 -12.963  1.00  0.00     0.320 C 
HETATM    4  O   UNL     1     -35.038   1.114 -13.776  1.00  0.00    -0.257 OA
HETATM    5  O   UNL     1     -35.317   0.417 -11.618  1.00  0.00    -0.301 OA
HETATM    6  C   UNL     1     -35.632  -0.832 -10.973  1.00  0.00     0.222 C 
ENDROOT
BRANCH   6   7
HETATM    7  C   UNL     1     -37.034  -0.691 -10.345  1.00  0.00     0.177 C 
BRANCH   7   8
HETATM    8  C   UNL     1     -37.278   0.757  -9.894  1.00  0.00     0.198 C 
BRANCH   8   9
HETATM    9  O   UNL     1     -36.249   1.164  -8.996  1.00  0.00    -0.398 OA
HETATM   10  H   UNL     1     -36.674   1.263  -8.120  1.00  0.00     0.209 HD
ENDBRANCH   8   9
ENDBRANCH   7   8
BRANCH   7  11
HETATM   11  O   UNL     1     -38.075  -1.030 -11.282  1.00  0.00    -0.390 OA
HETATM   12  H   UNL     1     -38.491  -1.859 -10.975  1.00  0.00     0.210 HD
ENDBRANCH   7  11
ENDBRANCH   6   7
BRANCH   1  13
HETATM   13  O   UNL     1     -35.512  -3.200 -11.920  1.00  0.00    -0.350 OA
BRANCH  13  14
HETATM   14  C   UNL     1     -34.616  -3.696 -10.919  1.00  0.00     0.171 C 
HETATM   15  C   UNL     1     -33.182  -3.398 -11.320  1.00  0.00     0.034 C 
ENDBRANCH  13  14
ENDBRANCH   1  13
BRANCH   2  16
HETATM   16  O   UNL     1     -35.059  -1.807 -14.451  1.00  0.00    -0.353 OA
HETATM   17  H   UNL     1     -35.522  -2.666 -14.429  1.00  0.00     0.218 HD
ENDBRANCH   2  16
TORSDOF 7
BEGIN_RES ARG D 557
REMARK  4 active torsions:
REMARK  status: ('A' for Active; 'I' for Inactive)
REMARK    1  A    between atoms: CA   and  CB  
REMARK    2  A    between atoms: CB   and  CG  
REMARK    3  A    between atoms: CG   and  CD  
REMARK    4  A    between atoms: CD   and  NE  
REMARK       I    between atoms: NE   and  CZ  
REMARK       I    between atoms: CZ   and  NH1 
REMARK       I    between atoms: CZ   and  NH2 
ROOT
ATOM      1  CA  ARG D 557     -26.217   2.705 -17.014  1.00 35.49     0.159 C 
ENDROOT
BRANCH   1   2
ATOM      2  CB  ARG D 557     -26.789   1.319 -17.183  1.00 35.49     0.034 C 
BRANCH   2   3
ATOM      3  CG  ARG D 557     -25.872   0.194 -16.962  1.00 35.49     0.027 C 
BRANCH   3   4
ATOM      4  CD  ARG D 557     -26.325  -0.696 -15.869  1.00 35.49     0.116 C 
BRANCH   4   5
ATOM      5  NE  ARG D 557     -25.278  -0.964 -14.918  1.00 35.49    -0.212 N 
ATOM      6  CZ  ARG D 557     -24.999  -2.136 -14.393  1.00 35.49     0.666 C 
ATOM      7  NH1 ARG D 557     -25.685  -3.225 -14.684  1.00 35.49    -0.235 N 
ATOM      8  NH2 ARG D 557     -23.999  -2.198 -13.562  1.00 35.49    -0.235 N 
ATOM      9  HH  ARG D 557     -26.345  -3.208 -15.230  1.00 35.49     0.174 HD
ATOM     10  HH  ARG D 557     -25.455  -3.963 -14.313  1.00 35.49     0.174 HD
ATOM     11  HH  ARG D 557     -23.569  -1.480 -13.398  1.00 35.49     0.174 HD
ATOM     12  HH  ARG D 557     -23.786  -2.938 -13.206  1.00 35.49     0.174 HD
ATOM     13  HE  ARG D 557     -24.832  -0.305 -14.619  1.00 35.49     0.178 HD
ENDBRANCH   4   5
ENDBRANCH   3   4
ENDBRANCH   2   3
ENDBRANCH   1   2
END_RES ARG D 557
BEGIN_RES GLU D 570
REMARK  3 active torsions:
REMARK  status: ('A' for Active; 'I' for Inactive)
REMARK    5  A    between atoms: CA   and  CB  
REMARK    6  A    between atoms: CB   and  CG  
REMARK    7  A    between atoms: CG   and  CD  
ROOT
ATOM     14  CA  GLU D 570     -18.033  -6.348 -13.375  1.00 32.92     0.160 C 
ENDROOT
BRANCH  14  15
ATOM     15  CB  GLU D 570     -19.500  -6.345 -13.794  1.00 32.92     0.043 C 
BRANCH  15  16
ATOM     16  CG  GLU D 570     -20.448  -5.560 -12.962  1.00 32.92     0.100 C 
BRANCH  16  17
ATOM     17  CD  GLU D 570     -21.703  -5.171 -13.707  1.00 32.92     0.185 C 
ATOM     18  OE1 GLU D 570     -22.733  -4.902 -13.059  1.00 32.92    -0.647 OA
ATOM     19  OE2 GLU D 570     -21.661  -5.151 -14.953  1.00 32.92    -0.647 OA
ENDBRANCH  16  17
ENDBRANCH  15  16
ENDBRANCH  14  15
END_RES GLU D 570
ENDMDL
MODEL 5
REMARK VINA RESULT:      -6.3      8.718     11.169
REMARK  7 active torsions:
REMARK  status: ('A' for Active; 'I' for Inactive)
REMARK    1  A    between atoms: C_2  and  O_3 
REMARK    2  A    between atoms: O_3  and  C_4 
REMARK    3  A    between atoms: C_5  and  O_14 
REMARK    4  A    between atoms: C_9  and  C_10 
REMARK    5  A    between atoms: C_10  and  C_11 
REMARK    6  A    between atoms: C_10  and  O_13 
REMARK    7  A    between atoms: C_11  and  O_12 
ROOT
HETATM    1  C   UNL     1     -35.461  -1.798 -12.187  1.00  0.00     0.117 C 
HETATM    2  C   UNL     1     -35.261  -1.158 -13.338  1.00  0.00     0.174 C 
HETATM    3  C   UNL     1     -35.181   0.277 -13.026  1.00  0.00     0.320 C 
HETATM    4  O   UNL     1     -35.043   1.194 -13.817  1.00  0.00    -0.257 OA
HETATM    5  O   UNL     1     -35.269   0.435 -11.673  1.00  0.00    -0.301 OA
HETATM    6  C   UNL     1     -35.570  -0.831 -11.057  1.00  0.00     0.222 C 
ENDROOT
BRANCH   6   7
HETATM    7  C   UNL     1     -36.955  -0.707 -10.389  1.00  0.00     0.177 C 
BRANCH   7   8
HETATM    8  C   UNL     1     -37.228   0.750  -9.984  1.00  0.00     0.198 C 
BRANCH   8   9
HETATM    9  O   UNL     1     -36.224   1.195  -9.075  1.00  0.00    -0.398 OA
HETATM   10  H   UNL     1     -36.699   1.563  -8.303  1.00  0.00     0.209 HD
ENDBRANCH   8   9
ENDBRANCH   7   8
BRANCH   7  11
HETATM   11  O   UNL     1     -38.014  -1.110 -11.279  1.00  0.00    -0.390 OA
HETATM   12  H   UNL     1     -38.818  -0.615 -11.026  1.00  0.00     0.210 HD
ENDBRANCH   7  11
ENDBRANCH   6   7
BRANCH   1  13
HETATM   13  O   UNL     1     -35.479  -3.171 -12.074  1.00  0.00    -0.350 OA
BRANCH  13  14
HETATM   14  C   UNL     1     -34.183  -3.774 -11.988  1.00  0.00     0.171 C 
HETATM   15  C   UNL     1     -33.963  -4.321 -10.589  1.00  0.00     0.034 C 
ENDBRANCH  13  14
ENDBRANCH   1  13
BRANCH   2  16
HETATM   16  O   UNL     1     -35.088  -1.707 -14.575  1.00  0.00    -0.353 OA
HETATM   17  H   UNL     1     -34.126  -1.704 -14.747  1.00  0.00     0.218 HD
ENDBRANCH   2  16
TORSDOF 7
BEGIN_RES ARG D 557
REMARK  4 active torsions:
REMARK  status: ('A' for Active; 'I' for Inactive)
REMARK    1  A    between atoms: CA   and  CB  
REMARK    2  A    between atoms: CB   and  CG  
REMARK    3  A    between atoms: CG   and  CD  
REMARK    4  A    between atoms: CD   and  NE  
REMARK       I    between atoms: NE   and  CZ  
REMARK       I    between atoms: CZ   and  NH1 
REMARK       I    between atoms: CZ   and  NH2 
ROOT
ATOM      1  CA  ARG D 557     -26.217   2.705 -17.014  1.00 35.49     0.159 C 
ENDROOT
BRANCH   1   2
ATOM      2  CB  ARG D 557     -26.789   1.319 -17.183  1.00 35.49     0.034 C 
BRANCH   2   3
ATOM      3  CG  ARG D 557     -28.233   1.226 -17.432  1.00 35.49     0.027 C 
BRANCH   3   4
ATOM      4  CD  ARG D 557     -28.909   0.301 -16.493  1.00 35.49     0.116 C 
BRANCH   4   5
ATOM      5  NE  ARG D 557     -29.302  -0.927 -17.130  1.00 35.49    -0.212 N 
ATOM      6  CZ  ARG D 557     -28.674  -2.078 -17.035  1.00 35.49     0.666 C 
ATOM      7  NH1 ARG D 557     -27.568  -2.226 -16.328  1.00 35.49    -0.235 N 
ATOM      8  NH2 ARG D 557     -29.186  -3.095 -17.664  1.00 35.49    -0.235 N 
ATOM      9  HH  ARG D 557     -27.215  -1.570 -15.904  1.00 35.49     0.174 HD
ATOM     10  HH  ARG D 557     -27.204  -3.001 -16.300  1.00 35.49     0.174 HD
ATOM     11  HH  ARG D 557     -29.904  -2.972 -18.107  1.00 35.49     0.174 HD
ATOM     12  HH  ARG D 557     -28.811  -3.855 -17.623  1.00 35.49     0.174 HD
ATOM     13  HE  ARG D 557     -29.964  -0.906 -17.664  1.00 35.49     0.178 HD
ENDBRANCH   4   5
ENDBRANCH   3   4
ENDBRANCH   2   3
ENDBRANCH   1   2
END_RES ARG D 557
BEGIN_RES GLU D 570
REMARK  3 active torsions:
REMARK  status: ('A' for Active; 'I' for Inactive)
REMARK    5  A    between atoms: CA   and  CB  
REMARK    6  A    between atoms: CB   and  CG  
REMARK    7  A    between atoms: CG   and  CD  
ROOT
ATOM     14  CA  GLU D 570     -18.033  -6.348 -13.375  1.00 32.92     0.160 C 
ENDROOT
BRANCH  14  15
ATOM     15  CB  GLU D 570     -19.500  -6.345 -13.794  1.00 32.92     0.043 C 
BRANCH  15  16
ATOM     16  CG  GLU D 570     -20.441  -5.527 -12.986  1.00 32.92     0.100 C 
BRANCH  16  17
ATOM     17  CD  GLU D 570     -21.709  -5.180 -13.731  1.00 32.92     0.185 C 
ATOM     18  OE1 GLU D 570     -22.782  -5.112 -13.101  1.00 32.92    -0.647 OA
ATOM     19  OE2 GLU D 570     -21.631  -4.989 -14.960  1.00 32.92    -0.647 OA
ENDBRANCH  16  17
ENDBRANCH  15  16
ENDBRANCH  14  15
END_RES GLU D 570
ENDMDL
MODEL 6
REMARK VINA RESULT:      -6.2      7.957     10.177
REMARK  7 active torsions:
REMARK  status: ('A' for Active; 'I' for Inactive)
REMARK    1  A    between atoms: C_2  and  O_3 
REMARK    2  A    between atoms: O_3  and  C_4 
REMARK    3  A    between atoms: C_5  and  O_14 
REMARK    4  A    between atoms: C_9  and  C_10 
REMARK    5  A    between atoms: C_10  and  C_11 
REMARK    6  A    between atoms: C_10  and  O_13 
REMARK    7  A    between atoms: C_11  and  O_12 
ROOT
HETATM    1  C   UNL     1     -35.240  -1.590 -10.862  1.00  0.00     0.117 C 
HETATM    2  C   UNL     1     -35.152  -0.917 -12.007  1.00  0.00     0.174 C 
HETATM    3  C   UNL     1     -35.093  -1.910 -13.089  1.00  0.00     0.320 C 
HETATM    4  O   UNL     1     -34.969  -1.691 -14.281  1.00  0.00    -0.257 OA
HETATM    5  O   UNL     1     -35.219  -3.156 -12.545  1.00  0.00    -0.301 OA
HETATM    6  C   UNL     1     -35.200  -3.060 -11.108  1.00  0.00     0.222 C 
ENDROOT
BRANCH   6   7
HETATM    7  C   UNL     1     -33.946  -3.807 -10.608  1.00  0.00     0.177 C 
BRANCH   7   8
HETATM    8  C   UNL     1     -34.182  -5.325 -10.627  1.00  0.00     0.198 C 
BRANCH   8   9
HETATM    9  O   UNL     1     -34.189  -5.797 -11.972  1.00  0.00    -0.398 OA
HETATM   10  H   UNL     1     -35.108  -5.695 -12.293  1.00  0.00     0.209 HD
ENDBRANCH   8   9
ENDBRANCH   7   8
BRANCH   7  11
HETATM   11  O   UNL     1     -32.800  -3.541 -11.439  1.00  0.00    -0.390 OA
HETATM   12  H   UNL     1     -32.769  -4.231 -12.130  1.00  0.00     0.210 HD
ENDBRANCH   7  11
ENDBRANCH   6   7
BRANCH   1  13
HETATM   13  O   UNL     1     -35.425  -0.986  -9.637  1.00  0.00    -0.350 OA
BRANCH  13  14
HETATM   14  C   UNL     1     -36.787  -0.664  -9.335  1.00  0.00     0.171 C 
HETATM   15  C   UNL     1     -36.857   0.696  -8.664  1.00  0.00     0.034 C 
ENDBRANCH  13  14
ENDBRANCH   1  13
BRANCH   2  16
HETATM   16  O   UNL     1     -35.181   0.437 -12.180  1.00  0.00    -0.353 OA
HETATM   17  H   UNL     1     -35.330   0.591 -13.134  1.00  0.00     0.218 HD
ENDBRANCH   2  16
TORSDOF 7
BEGIN_RES ARG D 557
REMARK  4 active torsions:
REMARK  status: ('A' for Active; 'I' for Inactive)
REMARK    1  A    between atoms: CA   and  CB  
REMARK    2  A    between atoms: CB   and  CG  
REMARK    3  A    between atoms: CG   and  CD  
REMARK    4  A    between atoms: CD   and  NE  
REMARK       I    between atoms: NE   and  CZ  
REMARK       I    between atoms: CZ   and  NH1 
REMARK       I    between atoms: CZ   and  NH2 
ROOT
ATOM      1  CA  ARG D 557     -26.217   2.705 -17.014  1.00 35.49     0.159 C 
ENDROOT
BRANCH   1   2
ATOM      2  CB  ARG D 557     -26.789   1.319 -17.183  1.00 35.49     0.034 C 
BRANCH   2   3
ATOM      3  CG  ARG D 557     -25.835   0.204 -17.163  1.00 35.49     0.027 C 
BRANCH   3   4
ATOM      4  CD  ARG D 557     -24.748   0.409 -16.179  1.00 35.49     0.116 C 
BRANCH   4   5
ATOM      5  NE  ARG D 557     -24.895  -0.436 -15.023  1.00 35.49    -0.212 N 
ATOM      6  CZ  ARG D 557     -24.079  -1.405 -14.671  1.00 35.49     0.666 C 
ATOM      7  NH1 ARG D 557     -23.009  -1.722 -15.375  1.00 35.49    -0.235 N 
ATOM      8  NH2 ARG D 557     -24.357  -2.056 -13.579  1.00 35.49    -0.235 N 
ATOM      9  HH  ARG D 557     -22.806  -1.305 -16.096  1.00 35.49     0.174 HD
ATOM     10  HH  ARG D 557     -22.512  -2.361 -15.095  1.00 35.49     0.174 HD
ATOM     11  HH  ARG D 557     -25.051  -1.824 -13.140  1.00 35.49     0.174 HD
ATOM     12  HH  ARG D 557     -23.852  -2.685 -13.317  1.00 35.49     0.174 HD
ATOM     13  HE  ARG D 557     -25.598  -0.349 -14.552  1.00 35.49     0.178 HD
ENDBRANCH   4   5
ENDBRANCH   3   4
ENDBRANCH   2   3
ENDBRANCH   1   2
END_RES ARG D 557
BEGIN_RES GLU D 570
REMARK  3 active torsions:
REMARK  status: ('A' for Active; 'I' for Inactive)
REMARK    5  A    between atoms: CA   and  CB  
REMARK    6  A    between atoms: CB   and  CG  
REMARK    7  A    between atoms: CG   and  CD  
ROOT
ATOM     14  CA  GLU D 570     -18.033  -6.348 -13.375  1.00 32.92     0.160 C 
ENDROOT
BRANCH  14  15
ATOM     15  CB  GLU D 570     -19.500  -6.345 -13.794  1.00 32.92     0.043 C 
BRANCH  15  16
ATOM     16  CG  GLU D 570     -20.440  -5.522 -12.990  1.00 32.92     0.100 C 
BRANCH  16  17
ATOM     17  CD  GLU D 570     -21.741  -5.245 -13.706  1.00 32.92     0.185 C 
ATOM     18  OE1 GLU D 570     -22.208  -6.111 -14.470  1.00 32.92    -0.647 OA
ATOM     19  OE2 GLU D 570     -22.291  -4.142 -13.513  1.00 32.92    -0.647 OA
ENDBRANCH  16  17
ENDBRANCH  15  16
ENDBRANCH  14  15
END_RES GLU D 570
ENDMDL
MODEL 7
REMARK VINA RESULT:      -5.9      8.196     10.441
REMARK  7 active torsions:
REMARK  status: ('A' for Active; 'I' for Inactive)
REMARK    1  A    between atoms: C_2  and  O_3 
REMARK    2  A    between atoms: O_3  and  C_4 
REMARK    3  A    between atoms: C_5  and  O_14 
REMARK    4  A    between atoms: C_9  and  C_10 
REMARK    5  A    between atoms: C_10  and  C_11 
REMARK    6  A    between atoms: C_10  and  O_13 
REMARK    7  A    between atoms: C_11  and  O_12 
ROOT
HETATM    1  C   UNL     1     -35.244  -1.521 -10.914  1.00  0.00     0.117 C 
HETATM    2  C   UNL     1     -35.147  -0.867 -12.070  1.00  0.00     0.174 C 
HETATM    3  C   UNL     1     -35.090  -1.878 -13.136  1.00  0.00     0.320 C 
HETATM    4  O   UNL     1     -34.959  -1.679 -14.331  1.00  0.00    -0.257 OA
HETATM    5  O   UNL     1     -35.226  -3.114 -12.573  1.00  0.00    -0.301 OA
HETATM    6  C   UNL     1     -35.213  -2.995 -11.137  1.00  0.00     0.222 C 
ENDROOT
BRANCH   6   7
HETATM    7  C   UNL     1     -33.966  -3.743 -10.620  1.00  0.00     0.177 C 
BRANCH   7   8
HETATM    8  C   UNL     1     -34.212  -5.259 -10.613  1.00  0.00     0.198 C 
BRANCH   8   9
HETATM    9  O   UNL     1     -34.095  -5.774 -11.937  1.00  0.00    -0.398 OA
HETATM   10  H   UNL     1     -33.173  -5.602 -12.217  1.00  0.00     0.209 HD
ENDBRANCH   8   9
ENDBRANCH   7   8
BRANCH   7  11
HETATM   11  O   UNL     1     -32.815  -3.498 -11.451  1.00  0.00    -0.390 OA
HETATM   12  H   UNL     1     -32.027  -3.811 -10.965  1.00  0.00     0.210 HD
ENDBRANCH   7  11
ENDBRANCH   6   7
BRANCH   1  13
HETATM   13  O   UNL     1     -35.431  -0.897  -9.700  1.00  0.00    -0.350 OA
BRANCH  13  14
HETATM   14  C   UNL     1     -36.799  -0.625  -9.379  1.00  0.00     0.171 C 
HETATM   15  C   UNL     1     -37.014   0.875  -9.274  1.00  0.00     0.034 C 
ENDBRANCH  13  14
ENDBRANCH   1  13
BRANCH   2  16
HETATM   16  O   UNL     1     -35.167   0.483 -12.265  1.00  0.00    -0.353 OA
HETATM   17  H   UNL     1     -34.386   0.696 -12.813  1.00  0.00     0.218 HD
ENDBRANCH   2  16
TORSDOF 7
BEGIN_RES ARG D 557
REMARK  4 active torsions:
REMARK  status: ('A' for Active; 'I' for Inactive)
REMARK    1  A    between atoms: CA   and  CB  
REMARK    2  A    between atoms: CB   and  CG  
REMARK    3  A    between atoms: CG   and  CD  
REMARK    4  A    between atoms: CD   and  NE  
REMARK       I    between atoms: NE   and  CZ  
REMARK       I    between atoms: CZ   and  NH1 
REMARK       I    between atoms: CZ   and  NH2 
ROOT
ATOM      1  CA  ARG D 557     -26.217   2.705 -17.014  1.00 35.49     0.159 C 
ENDROOT
BRANCH   1   2
ATOM      2  CB  ARG D 557     -26.789   1.319 -17.183  1.00 35.49     0.034 C 
BRANCH   2   3
ATOM      3  CG  ARG D 557     -28.230   1.227 -17.448  1.00 35.49     0.027 C 
BRANCH   3   4
ATOM      4  CD  ARG D 557     -28.918   0.310 -16.510  1.00 35.49     0.116 C 
BRANCH   4   5
ATOM      5  NE  ARG D 557     -29.308  -0.922 -17.144  1.00 35.49    -0.212 N 
ATOM      6  CZ  ARG D 557     -28.682  -2.072 -17.036  1.00 35.49     0.666 C 
ATOM      7  NH1 ARG D 557     -27.583  -2.217 -16.319  1.00 35.49    -0.235 N 
ATOM      8  NH2 ARG D 557     -29.190  -3.093 -17.664  1.00 35.49    -0.235 N 
ATOM      9  HH  ARG D 557     -27.232  -1.559 -15.896  1.00 35.49     0.174 HD
ATOM     10  HH  ARG D 557     -27.219  -2.992 -16.283  1.00 35.49     0.174 HD
ATOM     11  HH  ARG D 557     -29.905  -2.972 -18.113  1.00 35.49     0.174 HD
ATOM     12  HH  ARG D 557     -28.816  -3.853 -17.614  1.00 35.49     0.174 HD
ATOM     13  HE  ARG D 557     -29.965  -0.903 -17.683  1.00 35.49     0.178 HD
ENDBRANCH   4   5
ENDBRANCH   3   4
ENDBRANCH   2   3
ENDBRANCH   1   2
END_RES ARG D 557
BEGIN_RES GLU D 570
REMARK  3 active torsions:
REMARK  status: ('A' for Active; 'I' for Inactive)
REMARK    5  A    between atoms: CA   and  CB  
REMARK    6  A    between atoms: CB   and  CG  
REMARK    7  A    between atoms: CG   and  CD  
ROOT
ATOM     14  CA  GLU D 570     -18.033  -6.348 -13.375  1.00 32.92     0.160 C 
ENDROOT
BRANCH  14  15
ATOM     15  CB  GLU D 570     -19.500  -6.345 -13.794  1.00 32.92     0.043 C 
BRANCH  15  16
ATOM     16  CG  GLU D 570     -19.804  -6.060 -15.220  1.00 32.92     0.100 C 
BRANCH  16  17
ATOM     17  CD  GLU D 570     -21.269  -5.785 -15.467  1.00 32.92     0.185 C 
ATOM     18  OE1 GLU D 570     -21.595  -4.766 -16.106  1.00 32.92    -0.647 OA
ATOM     19  OE2 GLU D 570     -22.101  -6.589 -15.002  1.00 32.92    -0.647 OA
ENDBRANCH  16  17
ENDBRANCH  15  16
ENDBRANCH  14  15
END_RES GLU D 570
ENDMDL
MODEL 8
REMARK VINA RESULT:      -5.9      8.702     11.160
REMARK  7 active torsions:
REMARK  status: ('A' for Active; 'I' for Inactive)
REMARK    1  A    between atoms: C_2  and  O_3 
REMARK    2  A    between atoms: O_3  and  C_4 
REMARK    3  A    between atoms: C_5  and  O_14 
REMARK    4  A    between atoms: C_9  and  C_10 
REMARK    5  A    between atoms: C_10  and  C_11 
REMARK    6  A    between atoms: C_10  and  O_13 
REMARK    7  A    between atoms: C_11  and  O_12 
ROOT
HETATM    1  C   UNL     1     -36.433  -0.884 -11.736  1.00  0.00     0.117 C 
HETATM    2  C   UNL     1     -35.830  -2.065 -11.619  1.00  0.00     0.174 C 
HETATM    3  C   UNL     1     -34.746  -2.098 -12.612  1.00  0.00     0.320 C 
HETATM    4  O   UNL     1     -33.989  -3.024 -12.843  1.00  0.00    -0.257 OA
HETATM    5  O   UNL     1     -34.700  -0.890 -13.247  1.00  0.00    -0.301 OA
HETATM    6  C   UNL     1     -35.821  -0.085 -12.836  1.00  0.00     0.222 C 
ENDROOT
BRANCH   6   7
HETATM    7  C   UNL     1     -36.700   0.160 -14.080  1.00  0.00     0.177 C 
BRANCH   7   8
HETATM    8  C   UNL     1     -35.879  -0.032 -15.364  1.00  0.00     0.198 C 
BRANCH   8   9
HETATM    9  O   UNL     1     -36.030  -1.367 -15.840  1.00  0.00    -0.398 OA
HETATM   10  H   UNL     1     -35.274  -1.532 -16.438  1.00  0.00     0.209 HD
ENDBRANCH   8   9
ENDBRANCH   7   8
BRANCH   7  11
HETATM   11  O   UNL     1     -37.809  -0.758 -14.138  1.00  0.00    -0.390 OA
HETATM   12  H   UNL     1     -37.455  -1.658 -14.002  1.00  0.00     0.210 HD
ENDBRANCH   7  11
ENDBRANCH   6   7
BRANCH   1  13
HETATM   13  O   UNL     1     -37.431  -0.452 -10.889  1.00  0.00    -0.350 OA
BRANCH  13  14
HETATM   14  C   UNL     1     -37.028   0.574  -9.976  1.00  0.00     0.171 C 
HETATM   15  C   UNL     1     -36.766  -0.030  -8.608  1.00  0.00     0.034 C 
ENDBRANCH  13  14
ENDBRANCH   1  13
BRANCH   2  16
HETATM   16  O   UNL     1     -36.097  -3.049 -10.712  1.00  0.00    -0.353 OA
HETATM   17  H   UNL     1     -36.683  -2.653 -10.038  1.00  0.00     0.218 HD
ENDBRANCH   2  16
TORSDOF 7
BEGIN_RES ARG D 557
REMARK  4 active torsions:
REMARK  status: ('A' for Active; 'I' for Inactive)
REMARK    1  A    between atoms: CA   and  CB  
REMARK    2  A    between atoms: CB   and  CG  
REMARK    3  A    between atoms: CG   and  CD  
REMARK    4  A    between atoms: CD   and  NE  
REMARK       I    between atoms: NE   and  CZ  
REMARK       I    between atoms: CZ   and  NH1 
REMARK       I    between atoms: CZ   and  NH2 
ROOT
ATOM      1  CA  ARG D 557     -26.217   2.705 -17.014  1.00 35.49     0.159 C 
ENDROOT
BRANCH   1   2
ATOM      2  CB  ARG D 557     -26.789   1.319 -17.183  1.00 35.49     0.034 C 
BRANCH   2   3
ATOM      3  CG  ARG D 557     -25.836   0.203 -17.154  1.00 35.49     0.027 C 
BRANCH   3   4
ATOM      4  CD  ARG D 557     -24.750   0.413 -16.169  1.00 35.49     0.116 C 
BRANCH   4   5
ATOM      5  NE  ARG D 557     -24.893  -0.434 -15.015  1.00 35.49    -0.212 N 
ATOM      6  CZ  ARG D 557     -24.078  -1.406 -14.671  1.00 35.49     0.666 C 
ATOM      7  NH1 ARG D 557     -23.014  -1.725 -15.383  1.00 35.49    -0.235 N 
ATOM      8  NH2 ARG D 557     -24.351  -2.059 -13.578  1.00 35.49    -0.235 N 
ATOM      9  HH  ARG D 557     -22.814  -1.308 -16.104  1.00 35.49     0.174 HD
ATOM     10  HH  ARG D 557     -22.517  -2.367 -15.107  1.00 35.49     0.174 HD
ATOM     11  HH  ARG D 557     -25.042  -1.827 -13.135  1.00 35.49     0.174 HD
ATOM     12  HH  ARG D 557     -23.847  -2.690 -13.321  1.00 35.49     0.174 HD
ATOM     13  HE  ARG D 557     -25.592  -0.346 -14.539  1.00 35.49     0.178 HD
ENDBRANCH   4   5
ENDBRANCH   3   4
ENDBRANCH   2   3
ENDBRANCH   1   2
END_RES ARG D 557
BEGIN_RES GLU D 570
REMARK  3 active torsions:
REMARK  status: ('A' for Active; 'I' for Inactive)
REMARK    5  A    between atoms: CA   and  CB  
REMARK    6  A    between atoms: CB   and  CG  
REMARK    7  A    between atoms: CG   and  CD  
ROOT
ATOM     14  CA  GLU D 570     -18.033  -6.348 -13.375  1.00 32.92     0.160 C 
ENDROOT
BRANCH  14  15
ATOM     15  CB  GLU D 570     -19.500  -6.345 -13.794  1.00 32.92     0.043 C 
BRANCH  15  16
ATOM     16  CG  GLU D 570     -20.444  -5.542 -12.975  1.00 32.92     0.100 C 
BRANCH  16  17
ATOM     17  CD  GLU D 570     -21.741  -5.245 -13.692  1.00 32.92     0.185 C 
ATOM     18  OE1 GLU D 570     -22.275  -4.130 -13.539  1.00 32.92    -0.647 OA
ATOM     19  OE2 GLU D 570     -22.236  -6.143 -14.401  1.00 32.92    -0.647 OA
ENDBRANCH  16  17
ENDBRANCH  15  16
ENDBRANCH  14  15
END_RES GLU D 570
ENDMDL
MODEL 9
REMARK VINA RESULT:      -5.9      1.194      2.956
REMARK  7 active torsions:
REMARK  status: ('A' for Active; 'I' for Inactive)
REMARK    1  A    between atoms: C_2  and  O_3 
REMARK    2  A    between atoms: O_3  and  C_4 
REMARK    3  A    between atoms: C_5  and  O_14 
REMARK    4  A    between atoms: C_9  and  C_10 
REMARK    5  A    between atoms: C_10  and  C_11 
REMARK    6  A    between atoms: C_10  and  O_13 
REMARK    7  A    between atoms: C_11  and  O_12 
ROOT
HETATM    1  C   UNL     1     -22.539  -4.353 -10.177  1.00  0.00     0.117 C 
HETATM    2  C   UNL     1     -23.685  -4.245 -10.847  1.00  0.00     0.174 C 
HETATM    3  C   UNL     1     -24.624  -3.515  -9.983  1.00  0.00     0.320 C 
HETATM    4  O   UNL     1     -25.788  -3.249 -10.223  1.00  0.00    -0.257 OA
HETATM    5  O   UNL     1     -23.972  -3.151  -8.840  1.00  0.00    -0.301 OA
HETATM    6  C   UNL     1     -22.661  -3.747  -8.821  1.00  0.00     0.222 C 
ENDROOT
BRANCH   6   7
HETATM    7  C   UNL     1     -22.610  -4.720  -7.625  1.00  0.00     0.177 C 
BRANCH   7   8
HETATM    8  C   UNL     1     -21.312  -4.525  -6.827  1.00  0.00     0.198 C 
BRANCH   8   9
HETATM    9  O   UNL     1     -21.322  -5.362  -5.674  1.00  0.00    -0.398 OA
HETATM   10  H   UNL     1     -20.592  -5.050  -5.102  1.00  0.00     0.209 HD
ENDBRANCH   8   9
ENDBRANCH   7   8
BRANCH   7  11
HETATM   11  O   UNL     1     -23.708  -4.507  -6.716  1.00  0.00    -0.390 OA
HETATM   12  H   UNL     1     -24.224  -5.336  -6.677  1.00  0.00     0.210 HD
ENDBRANCH   7  11
ENDBRANCH   6   7
BRANCH   1  13
HETATM   13  O   UNL     1     -21.389  -4.885 -10.718  1.00  0.00    -0.350 OA
BRANCH  13  14
HETATM   14  C   UNL     1     -20.233  -4.050 -10.589  1.00  0.00     0.171 C 
HETATM   15  C   UNL     1     -20.419  -2.786 -11.408  1.00  0.00     0.034 C 
ENDBRANCH  13  14
ENDBRANCH   1  13
BRANCH   2  16
HETATM   16  O   UNL     1     -23.945  -4.658 -12.121  1.00  0.00    -0.353 OA
HETATM   17  H   UNL     1     -24.130  -3.852 -12.642  1.00  0.00     0.218 HD
ENDBRANCH   2  16
TORSDOF 7
BEGIN_RES ARG D 557
REMARK  4 active torsions:
REMARK  status: ('A' for Active; 'I' for Inactive)
REMARK    1  A    between atoms: CA   and  CB  
REMARK    2  A    between atoms: CB   and  CG  
REMARK    3  A    between atoms: CG   and  CD  
REMARK    4  A    between atoms: CD   and  NE  
REMARK       I    between atoms: NE   and  CZ  
REMARK       I    between atoms: CZ   and  NH1 
REMARK       I    between atoms: CZ   and  NH2 
ROOT
ATOM      1  CA  ARG D 557     -26.217   2.705 -17.014  1.00 35.49     0.159 C 
ENDROOT
BRANCH   1   2
ATOM      2  CB  ARG D 557     -26.789   1.319 -17.183  1.00 35.49     0.034 C 
BRANCH   2   3
ATOM      3  CG  ARG D 557     -25.859   0.196 -17.014  1.00 35.49     0.027 C 
BRANCH   3   4
ATOM      4  CD  ARG D 557     -26.233  -0.681 -15.881  1.00 35.49     0.116 C 
BRANCH   4   5
ATOM      5  NE  ARG D 557     -25.144  -0.868 -14.958  1.00 35.49    -0.212 N 
ATOM      6  CZ  ARG D 557     -24.866  -1.979 -14.314  1.00 35.49     0.666 C 
ATOM      7  NH1 ARG D 557     -25.593  -3.074 -14.441  1.00 35.49    -0.235 N 
ATOM      8  NH2 ARG D 557     -23.825  -1.976 -13.532  1.00 35.49    -0.235 N 
ATOM      9  HH  ARG D 557     -26.281  -3.100 -14.952  1.00 35.49     0.174 HD
ATOM     10  HH  ARG D 557     -25.362  -3.770 -13.998  1.00 35.49     0.174 HD
ATOM     11  HH  ARG D 557     -23.370  -1.257 -13.476  1.00 35.49     0.174 HD
ATOM     12  HH  ARG D 557     -23.612  -2.675 -13.103  1.00 35.49     0.174 HD
ATOM     13  HE  ARG D 557     -24.667  -0.193 -14.761  1.00 35.49     0.178 HD
ENDBRANCH   4   5
ENDBRANCH   3   4
ENDBRANCH   2   3
ENDBRANCH   1   2
END_RES ARG D 557
BEGIN_RES GLU D 570
REMARK  3 active torsions:
REMARK  status: ('A' for Active; 'I' for Inactive)
REMARK    5  A    between atoms: CA   and  CB  
REMARK    6  A    between atoms: CB   and  CG  
REMARK    7  A    between atoms: CG   and  CD  
ROOT
ATOM     14  CA  GLU D 570     -18.033  -6.348 -13.375  1.00 32.92     0.160 C 
ENDROOT
BRANCH  14  15
ATOM     15  CB  GLU D 570     -19.500  -6.345 -13.794  1.00 32.92     0.043 C 
BRANCH  15  16
ATOM     16  CG  GLU D 570     -19.812  -5.949 -15.192  1.00 32.92     0.100 C 
BRANCH  16  17
ATOM     17  CD  GLU D 570     -21.158  -5.277 -15.327  1.00 32.92     0.185 C 
ATOM     18  OE1 GLU D 570     -21.595  -5.021 -16.466  1.00 32.92    -0.647 OA
ATOM     19  OE2 GLU D 570     -21.775  -4.988 -14.283  1.00 32.92    -0.647 OA
ENDBRANCH  16  17
ENDBRANCH  15  16
ENDBRANCH  14  15
END_RES GLU D 570
ENDMDL
