MODEL 1
REMARK VINA RESULT:      -5.4      0.000      0.000
REMARK WARNING: 32 MAX_TORS EXCEEDED!!!
REMARK  35 active torsions:
REMARK  status: ('A' for Active; 'I' for Inactive)
REMARK    1  A    between atoms: C_2  and  C_3 
REMARK    2  A    between atoms: C_3  and  C_4 
REMARK    3  A    between atoms: C_4  and  C_5 
REMARK    4  A    between atoms: C_5  and  C_6 
REMARK    5  A    between atoms: C_6  and  C_7 
REMARK    6  A    between atoms: C_7  and  C_8 
REMARK    7  A    between atoms: C_8  and  C_9 
REMARK    8  A    between atoms: C_9  and  C_10 
REMARK    9  A    between atoms: C_10  and  C_11 
REMARK   10  A    between atoms: C_11  and  C_12 
REMARK   11  A    between atoms: C_12  and  O_14 
REMARK   12  A    between atoms: O_14  and  C_15 
REMARK   13  A    between atoms: C_15  and  C_16 
REMARK   14  A    between atoms: C_16  and  O_17 
REMARK   15  A    between atoms: O_17  and  C_18 
REMARK   16  A    between atoms: C_18  and  C_19 
REMARK   17  A    between atoms: C_19  and  O_20 
REMARK   18  A    between atoms: O_20  and  C_21 
REMARK   19  A    between atoms: C_21  and  C_22 
REMARK   20  A    between atoms: C_22  and  O_23 
REMARK   21  A    between atoms: O_23  and  C_24 
REMARK   22  A    between atoms: C_24  and  C_25 
REMARK   23  A    between atoms: C_25  and  O_26 
REMARK   24  A    between atoms: O_26  and  C_27 
REMARK   25  A    between atoms: C_27  and  C_28 
REMARK   26  A    between atoms: C_28  and  O_29 
REMARK   27  A    between atoms: O_29  and  C_30 
REMARK   28  A    between atoms: C_30  and  C_31 
REMARK   29  A    between atoms: C_31  and  O_32 
REMARK   30  A    between atoms: O_32  and  C_33 
REMARK   31  A    between atoms: C_33  and  C_34 
REMARK   32  A    between atoms: C_34  and  O_35 
REMARK   33  A    between atoms: O_35  and  C_36 
REMARK   34  A    between atoms: C_36  and  C_37 
REMARK   35  A    between atoms: C_37  and  O_38 
ROOT
HETATM    1  O   UNL     1     -19.399 -11.501  -7.257  1.00  0.00    -0.387 OA
ENDROOT
BRANCH   1   2
HETATM    2  C   UNL     1     -20.539 -11.768  -6.445  1.00  0.00     0.193 C 
BRANCH   2   3
HETATM    3  C   UNL     1     -20.558 -10.800  -5.274  1.00  0.00     0.193 C 
BRANCH   3   4
HETATM    4  O   UNL     1     -20.209  -9.493  -5.727  1.00  0.00    -0.387 OA
BRANCH   4   5
HETATM    5  C   UNL     1     -21.109  -8.519  -5.188  1.00  0.00     0.194 C 
BRANCH   5   6
HETATM    6  C   UNL     1     -20.328  -7.405  -4.496  1.00  0.00     0.205 C 
BRANCH   6   7
HETATM    7  O   UNL     1     -21.138  -6.217  -4.317  1.00  0.00    -0.319 OA
BRANCH   7   8
HETATM    8  C   UNL     1     -21.300  -5.474  -5.440  1.00  0.00     0.258 C 
HETATM    9  O   UNL     1     -22.366  -5.353  -6.049  1.00  0.00    -0.265 OA
BRANCH   8  10
HETATM   10  C   UNL     1     -20.039  -4.760  -5.860  1.00  0.00     0.111 C 
BRANCH  10  11
HETATM   11  C   UNL     1     -19.628  -5.155  -7.277  1.00  0.00     0.010 C 
BRANCH  11  12
HETATM   12  C   UNL     1     -19.964  -4.059  -8.280  1.00  0.00     0.000 C 
BRANCH  12  13
HETATM   13  C   UNL     1     -20.892  -4.591  -9.359  1.00  0.00     0.000 C 
BRANCH  13  14
HETATM   14  C   UNL     1     -20.341  -4.254 -10.734  1.00  0.00     0.000 C 
BRANCH  14  15
HETATM   15  C   UNL     1     -21.193  -3.184 -11.391  1.00  0.00     0.000 C 
BRANCH  15  16
HETATM   16  C   UNL     1     -22.633  -3.308 -10.927  1.00  0.00     0.000 C 
BRANCH  16  17
HETATM   17  C   UNL     1     -23.535  -3.606 -12.112  1.00  0.00     0.000 C 
BRANCH  17  18
HETATM   18  C   UNL     1     -22.857  -3.182 -13.403  1.00  0.00    -0.000 C 
BRANCH  18  19
HETATM   19  C   UNL     1     -22.678  -4.379 -14.325  1.00  0.00    -0.005 C 
HETATM   20  C   UNL     1     -23.408  -5.583 -13.765  1.00  0.00     0.005 C 
ENDBRANCH  18  19
ENDBRANCH  17  18
ENDBRANCH  16  17
ENDBRANCH  15  16
ENDBRANCH  14  15
ENDBRANCH  13  14
ENDBRANCH  12  13
ENDBRANCH  11  12
ENDBRANCH  10  11
ENDBRANCH   8  10
ENDBRANCH   7   8
ENDBRANCH   6   7
ENDBRANCH   5   6
ENDBRANCH   4   5
ENDBRANCH   3   4
ENDBRANCH   2   3
ENDBRANCH   1   2
BRANCH   1  21
HETATM   21  C   UNL     1     -18.782 -12.722  -7.657  1.00  0.00     0.193 C 
BRANCH  21  22
HETATM   22  C   UNL     1     -17.300 -12.655  -7.348  1.00  0.00     0.193 C 
BRANCH  22  23
HETATM   23  O   UNL     1     -17.087 -11.726  -6.290  1.00  0.00    -0.387 OA
BRANCH  23  24
HETATM   24  C   UNL     1     -15.701 -11.414  -6.180  1.00  0.00     0.193 C 
BRANCH  24  25
HETATM   25  C   UNL     1     -15.016 -12.490  -5.362  1.00  0.00     0.193 C 
BRANCH  25  26
HETATM   26  O   UNL     1     -15.653 -12.581  -4.091  1.00  0.00    -0.387 OA
BRANCH  26  27
HETATM   27  C   UNL     1     -14.972 -11.768  -3.141  1.00  0.00     0.193 C 
BRANCH  27  28
HETATM   28  C   UNL     1     -15.950 -10.779  -2.540  1.00  0.00     0.193 C 
BRANCH  28  29
HETATM   29  O   UNL     1     -16.323 -11.222  -1.240  1.00  0.00    -0.387 OA
BRANCH  29  30
HETATM   30  C   UNL     1     -17.570 -11.907  -1.293  1.00  0.00     0.193 C 
BRANCH  30  31
HETATM   31  C   UNL     1     -18.571 -11.053  -2.045  1.00  0.00     0.193 C 
BRANCH  31  32
HETATM   32  O   UNL     1     -19.879 -11.328  -1.553  1.00  0.00    -0.387 OA
BRANCH  32  33
HETATM   33  C   UNL     1     -20.456 -10.147  -1.008  1.00  0.00     0.193 C 
BRANCH  33  34
HETATM   34  C   UNL     1     -21.908 -10.416  -0.659  1.00  0.00     0.193 C 
BRANCH  34  35
HETATM   35  O   UNL     1     -22.646  -9.196  -0.722  1.00  0.00    -0.387 OA
BRANCH  35  36
HETATM   36  C   UNL     1     -21.858  -8.177  -1.341  1.00  0.00     0.193 C 
BRANCH  36  37
HETATM   37  C   UNL     1     -22.325  -6.816  -0.845  1.00  0.00     0.190 C 
BRANCH  37  38
HETATM   38  O   UNL     1     -22.612  -5.954  -1.945  1.00  0.00    -0.399 OA
HETATM   39  H   UNL     1     -22.468  -6.493  -2.747  1.00  0.00     0.209 HD
ENDBRANCH  37  38
ENDBRANCH  36  37
ENDBRANCH  35  36
ENDBRANCH  34  35
ENDBRANCH  33  34
ENDBRANCH  32  33
ENDBRANCH  31  32
ENDBRANCH  30  31
ENDBRANCH  29  30
ENDBRANCH  28  29
ENDBRANCH  27  28
ENDBRANCH  26  27
ENDBRANCH  25  26
ENDBRANCH  24  25
ENDBRANCH  23  24
ENDBRANCH  22  23
ENDBRANCH  21  22
ENDBRANCH   1  21
TORSDOF 35
BEGIN_RES ARG D 557
REMARK  4 active torsions:
REMARK  status: ('A' for Active; 'I' for Inactive)
REMARK    1  A    between atoms: CA   and  CB  
REMARK    2  A    between atoms: CB   and  CG  
REMARK    3  A    between atoms: CG   and  CD  
REMARK    4  A    between atoms: CD   and  NE  
REMARK       I    between atoms: NE   and  CZ  
REMARK       I    between atoms: CZ   and  NH1 
REMARK       I    between atoms: CZ   and  NH2 
ROOT
ATOM      1  CA  ARG D 557     -26.217   2.705 -17.014  1.00 35.49     0.159 C 
ENDROOT
BRANCH   1   2
ATOM      2  CB  ARG D 557     -26.789   1.319 -17.183  1.00 35.49     0.034 C 
BRANCH   2   3
ATOM      3  CG  ARG D 557     -28.232   1.226 -17.439  1.00 35.49     0.027 C 
BRANCH   3   4
ATOM      4  CD  ARG D 557     -28.912   0.304 -16.502  1.00 35.49     0.116 C 
BRANCH   4   5
ATOM      5  NE  ARG D 557     -28.136  -0.881 -16.247  1.00 35.49    -0.212 N 
ATOM      6  CZ  ARG D 557     -28.385  -2.080 -16.725  1.00 35.49     0.666 C 
ATOM      7  NH1 ARG D 557     -29.420  -2.332 -17.506  1.00 35.49    -0.235 N 
ATOM      8  NH2 ARG D 557     -27.561  -3.036 -16.407  1.00 35.49    -0.235 N 
ATOM      9  HH  ARG D 557     -29.973  -1.717 -17.729  1.00 35.49     0.174 HD
ATOM     10  HH  ARG D 557     -29.530  -3.132 -17.790  1.00 35.49     0.174 HD
ATOM     11  HH  ARG D 557     -26.897  -2.843 -15.908  1.00 35.49     0.174 HD
ATOM     12  HH  ARG D 557     -27.687  -3.822 -16.700  1.00 35.49     0.174 HD
ATOM     13  HE  ARG D 557     -27.492  -0.826 -15.695  1.00 35.49     0.178 HD
ENDBRANCH   4   5
ENDBRANCH   3   4
ENDBRANCH   2   3
ENDBRANCH   1   2
END_RES ARG D 557
BEGIN_RES GLU D 570
REMARK  3 active torsions:
REMARK  status: ('A' for Active; 'I' for Inactive)
REMARK    5  A    between atoms: CA   and  CB  
REMARK    6  A    between atoms: CB   and  CG  
REMARK    7  A    between atoms: CG   and  CD  
ROOT
ATOM     14  CA  GLU D 570     -18.033  -6.348 -13.375  1.00 32.92     0.160 C 
ENDROOT
BRANCH  14  15
ATOM     15  CB  GLU D 570     -19.500  -6.345 -13.794  1.00 32.92     0.043 C 
BRANCH  15  16
ATOM     16  CG  GLU D 570     -20.095  -7.641 -14.212  1.00 32.92     0.100 C 
BRANCH  16  17
ATOM     17  CD  GLU D 570     -20.565  -7.637 -15.648  1.00 32.92     0.185 C 
ATOM     18  OE1 GLU D 570     -20.721  -8.724 -16.237  1.00 32.92    -0.647 OA
ATOM     19  OE2 GLU D 570     -20.764  -6.534 -16.196  1.00 32.92    -0.647 OA
ENDBRANCH  16  17
ENDBRANCH  15  16
ENDBRANCH  14  15
END_RES GLU D 570
ENDMDL
MODEL 2
REMARK VINA RESULT:      -5.4      1.948      9.380
REMARK WARNING: 32 MAX_TORS EXCEEDED!!!
REMARK  35 active torsions:
REMARK  status: ('A' for Active; 'I' for Inactive)
REMARK    1  A    between atoms: C_2  and  C_3 
REMARK    2  A    between atoms: C_3  and  C_4 
REMARK    3  A    between atoms: C_4  and  C_5 
REMARK    4  A    between atoms: C_5  and  C_6 
REMARK    5  A    between atoms: C_6  and  C_7 
REMARK    6  A    between atoms: C_7  and  C_8 
REMARK    7  A    between atoms: C_8  and  C_9 
REMARK    8  A    between atoms: C_9  and  C_10 
REMARK    9  A    between atoms: C_10  and  C_11 
REMARK   10  A    between atoms: C_11  and  C_12 
REMARK   11  A    between atoms: C_12  and  O_14 
REMARK   12  A    between atoms: O_14  and  C_15 
REMARK   13  A    between atoms: C_15  and  C_16 
REMARK   14  A    between atoms: C_16  and  O_17 
REMARK   15  A    between atoms: O_17  and  C_18 
REMARK   16  A    between atoms: C_18  and  C_19 
REMARK   17  A    between atoms: C_19  and  O_20 
REMARK   18  A    between atoms: O_20  and  C_21 
REMARK   19  A    between atoms: C_21  and  C_22 
REMARK   20  A    between atoms: C_22  and  O_23 
REMARK   21  A    between atoms: O_23  and  C_24 
REMARK   22  A    between atoms: C_24  and  C_25 
REMARK   23  A    between atoms: C_25  and  O_26 
REMARK   24  A    between atoms: O_26  and  C_27 
REMARK   25  A    between atoms: C_27  and  C_28 
REMARK   26  A    between atoms: C_28  and  O_29 
REMARK   27  A    between atoms: O_29  and  C_30 
REMARK   28  A    between atoms: C_30  and  C_31 
REMARK   29  A    between atoms: C_31  and  O_32 
REMARK   30  A    between atoms: O_32  and  C_33 
REMARK   31  A    between atoms: C_33  and  C_34 
REMARK   32  A    between atoms: C_34  and  O_35 
REMARK   33  A    between atoms: O_35  and  C_36 
REMARK   34  A    between atoms: C_36  and  C_37 
REMARK   35  A    between atoms: C_37  and  O_38 
ROOT
HETATM    1  O   UNL     1     -18.107 -10.102  -4.871  1.00  0.00    -0.387 OA
ENDROOT
BRANCH   1   2
HETATM    2  C   UNL     1     -17.118 -10.030  -5.894  1.00  0.00     0.193 C 
BRANCH   2   3
HETATM    3  C   UNL     1     -15.811 -10.598  -5.368  1.00  0.00     0.193 C 
BRANCH   3   4
HETATM    4  O   UNL     1     -16.083 -11.615  -4.405  1.00  0.00    -0.387 OA
BRANCH   4   5
HETATM    5  C   UNL     1     -15.164 -11.528  -3.312  1.00  0.00     0.194 C 
BRANCH   5   6
HETATM    6  C   UNL     1     -15.593 -12.466  -2.185  1.00  0.00     0.205 C 
BRANCH   6   7
HETATM    7  O   UNL     1     -16.654 -11.888  -1.386  1.00  0.00    -0.319 OA
BRANCH   7   8
HETATM    8  C   UNL     1     -16.454 -11.970  -0.046  1.00  0.00     0.258 C 
HETATM    9  O   UNL     1     -15.434 -11.588   0.532  1.00  0.00    -0.265 OA
BRANCH   8  10
HETATM   10  C   UNL     1     -17.638 -12.546   0.691  1.00  0.00     0.111 C 
BRANCH  10  11
HETATM   11  C   UNL     1     -18.912 -12.439  -0.145  1.00  0.00     0.010 C 
BRANCH  11  12
HETATM   12  C   UNL     1     -19.792 -11.288   0.326  1.00  0.00     0.000 C 
BRANCH  12  13
HETATM   13  C   UNL     1     -21.099 -11.816   0.893  1.00  0.00     0.000 C 
BRANCH  13  14
HETATM   14  C   UNL     1     -22.087 -12.079  -0.231  1.00  0.00     0.000 C 
BRANCH  14  15
HETATM   15  C   UNL     1     -23.398 -11.364   0.047  1.00  0.00     0.000 C 
BRANCH  15  16
HETATM   16  C   UNL     1     -23.384  -9.987  -0.591  1.00  0.00     0.000 C 
BRANCH  16  17
HETATM   17  C   UNL     1     -23.337  -8.917   0.487  1.00  0.00     0.000 C 
BRANCH  17  18
HETATM   18  C   UNL     1     -22.047  -8.123   0.376  1.00  0.00    -0.000 C 
BRANCH  18  19
HETATM   19  C   UNL     1     -21.836  -7.652  -1.055  1.00  0.00    -0.005 C 
HETATM   20  C   UNL     1     -20.437  -8.005  -1.521  1.00  0.00     0.005 C 
ENDBRANCH  18  19
ENDBRANCH  17  18
ENDBRANCH  16  17
ENDBRANCH  15  16
ENDBRANCH  14  15
ENDBRANCH  13  14
ENDBRANCH  12  13
ENDBRANCH  11  12
ENDBRANCH  10  11
ENDBRANCH   8  10
ENDBRANCH   7   8
ENDBRANCH   6   7
ENDBRANCH   5   6
ENDBRANCH   4   5
ENDBRANCH   3   4
ENDBRANCH   2   3
ENDBRANCH   1   2
BRANCH   1  21
HETATM   21  C   UNL     1     -18.971  -8.971  -4.940  1.00  0.00     0.193 C 
BRANCH  21  22
HETATM   22  C   UNL     1     -20.374  -9.436  -5.277  1.00  0.00     0.193 C 
BRANCH  22  23
HETATM   23  O   UNL     1     -21.121  -8.334  -5.783  1.00  0.00    -0.387 OA
BRANCH  23  24
HETATM   24  C   UNL     1     -22.013  -7.845  -4.787  1.00  0.00     0.193 C 
BRANCH  24  25
HETATM   25  C   UNL     1     -21.983  -6.329  -4.799  1.00  0.00     0.193 C 
BRANCH  25  26
HETATM   26  O   UNL     1     -20.635  -5.895  -4.951  1.00  0.00    -0.387 OA
BRANCH  26  27
HETATM   27  C   UNL     1     -20.554  -4.882  -5.947  1.00  0.00     0.193 C 
BRANCH  27  28
HETATM   28  C   UNL     1     -19.613  -5.336  -7.044  1.00  0.00     0.193 C 
BRANCH  28  29
HETATM   29  O   UNL     1     -20.258  -5.190  -8.304  1.00  0.00    -0.387 OA
BRANCH  29  30
HETATM   30  C   UNL     1     -21.564  -4.650  -8.127  1.00  0.00     0.193 C 
BRANCH  30  31
HETATM   31  C   UNL     1     -22.005  -3.989  -9.417  1.00  0.00     0.193 C 
BRANCH  31  32
HETATM   32  O   UNL     1     -20.940  -4.054 -10.360  1.00  0.00    -0.387 OA
BRANCH  32  33
HETATM   33  C   UNL     1     -21.456  -4.008 -11.686  1.00  0.00     0.193 C 
BRANCH  33  34
HETATM   34  C   UNL     1     -22.896  -3.530 -11.645  1.00  0.00     0.193 C 
BRANCH  34  35
HETATM   35  O   UNL     1     -23.032  -2.360 -12.451  1.00  0.00    -0.387 OA
BRANCH  35  36
HETATM   36  C   UNL     1     -23.245  -2.726 -13.817  1.00  0.00     0.193 C 
BRANCH  36  37
HETATM   37  C   UNL     1     -24.525  -3.543 -13.919  1.00  0.00     0.190 C 
BRANCH  37  38
HETATM   38  O   UNL     1     -24.466  -4.428 -15.036  1.00  0.00    -0.399 OA
HETATM   39  H   UNL     1     -24.661  -3.878 -15.819  1.00  0.00     0.209 HD
ENDBRANCH  37  38
ENDBRANCH  36  37
ENDBRANCH  35  36
ENDBRANCH  34  35
ENDBRANCH  33  34
ENDBRANCH  32  33
ENDBRANCH  31  32
ENDBRANCH  30  31
ENDBRANCH  29  30
ENDBRANCH  28  29
ENDBRANCH  27  28
ENDBRANCH  26  27
ENDBRANCH  25  26
ENDBRANCH  24  25
ENDBRANCH  23  24
ENDBRANCH  22  23
ENDBRANCH  21  22
ENDBRANCH   1  21
TORSDOF 35
BEGIN_RES ARG D 557
REMARK  4 active torsions:
REMARK  status: ('A' for Active; 'I' for Inactive)
REMARK    1  A    between atoms: CA   and  CB  
REMARK    2  A    between atoms: CB   and  CG  
REMARK    3  A    between atoms: CG   and  CD  
REMARK    4  A    between atoms: CD   and  NE  
REMARK       I    between atoms: NE   and  CZ  
REMARK       I    between atoms: CZ   and  NH1 
REMARK       I    between atoms: CZ   and  NH2 
ROOT
ATOM      1  CA  ARG D 557     -26.217   2.705 -17.014  1.00 35.49     0.159 C 
ENDROOT
BRANCH   1   2
ATOM      2  CB  ARG D 557     -26.789   1.319 -17.183  1.00 35.49     0.034 C 
BRANCH   2   3
ATOM      3  CG  ARG D 557     -28.228   1.227 -17.461  1.00 35.49     0.027 C 
BRANCH   3   4
ATOM      4  CD  ARG D 557     -28.906   0.231 -16.600  1.00 35.49     0.116 C 
BRANCH   4   5
ATOM      5  NE  ARG D 557     -28.017  -0.823 -16.187  1.00 35.49    -0.212 N 
ATOM      6  CZ  ARG D 557     -28.085  -2.078 -16.570  1.00 35.49     0.666 C 
ATOM      7  NH1 ARG D 557     -29.018  -2.520 -17.392  1.00 35.49    -0.235 N 
ATOM      8  NH2 ARG D 557     -27.181  -2.895 -16.111  1.00 35.49    -0.235 N 
ATOM      9  HH  ARG D 557     -29.621  -2.000 -17.708  1.00 35.49     0.174 HD
ATOM     10  HH  ARG D 557     -29.010  -3.349 -17.609  1.00 35.49     0.174 HD
ATOM     11  HH  ARG D 557     -26.586  -2.580 -15.587  1.00 35.49     0.174 HD
ATOM     12  HH  ARG D 557     -27.190  -3.712 -16.338  1.00 35.49     0.174 HD
ATOM     13  HE  ARG D 557     -27.429  -0.642 -15.600  1.00 35.49     0.178 HD
ENDBRANCH   4   5
ENDBRANCH   3   4
ENDBRANCH   2   3
ENDBRANCH   1   2
END_RES ARG D 557
BEGIN_RES GLU D 570
REMARK  3 active torsions:
REMARK  status: ('A' for Active; 'I' for Inactive)
REMARK    5  A    between atoms: CA   and  CB  
REMARK    6  A    between atoms: CB   and  CG  
REMARK    7  A    between atoms: CG   and  CD  
ROOT
ATOM     14  CA  GLU D 570     -18.033  -6.348 -13.375  1.00 32.92     0.160 C 
ENDROOT
BRANCH  14  15
ATOM     15  CB  GLU D 570     -19.500  -6.345 -13.794  1.00 32.92     0.043 C 
BRANCH  15  16
ATOM     16  CG  GLU D 570     -19.804  -6.064 -15.221  1.00 32.92     0.100 C 
BRANCH  16  17
ATOM     17  CD  GLU D 570     -21.254  -5.712 -15.456  1.00 32.92     0.185 C 
ATOM     18  OE1 GLU D 570     -21.530  -4.696 -16.123  1.00 32.92    -0.647 OA
ATOM     19  OE2 GLU D 570     -22.124  -6.451 -14.954  1.00 32.92    -0.647 OA
ENDBRANCH  16  17
ENDBRANCH  15  16
ENDBRANCH  14  15
END_RES GLU D 570
ENDMDL
MODEL 3
REMARK VINA RESULT:      -5.3      2.089      9.578
REMARK WARNING: 32 MAX_TORS EXCEEDED!!!
REMARK  35 active torsions:
REMARK  status: ('A' for Active; 'I' for Inactive)
REMARK    1  A    between atoms: C_2  and  C_3 
REMARK    2  A    between atoms: C_3  and  C_4 
REMARK    3  A    between atoms: C_4  and  C_5 
REMARK    4  A    between atoms: C_5  and  C_6 
REMARK    5  A    between atoms: C_6  and  C_7 
REMARK    6  A    between atoms: C_7  and  C_8 
REMARK    7  A    between atoms: C_8  and  C_9 
REMARK    8  A    between atoms: C_9  and  C_10 
REMARK    9  A    between atoms: C_10  and  C_11 
REMARK   10  A    between atoms: C_11  and  C_12 
REMARK   11  A    between atoms: C_12  and  O_14 
REMARK   12  A    between atoms: O_14  and  C_15 
REMARK   13  A    between atoms: C_15  and  C_16 
REMARK   14  A    between atoms: C_16  and  O_17 
REMARK   15  A    between atoms: O_17  and  C_18 
REMARK   16  A    between atoms: C_18  and  C_19 
REMARK   17  A    between atoms: C_19  and  O_20 
REMARK   18  A    between atoms: O_20  and  C_21 
REMARK   19  A    between atoms: C_21  and  C_22 
REMARK   20  A    between atoms: C_22  and  O_23 
REMARK   21  A    between atoms: O_23  and  C_24 
REMARK   22  A    between atoms: C_24  and  C_25 
REMARK   23  A    between atoms: C_25  and  O_26 
REMARK   24  A    between atoms: O_26  and  C_27 
REMARK   25  A    between atoms: C_27  and  C_28 
REMARK   26  A    between atoms: C_28  and  O_29 
REMARK   27  A    between atoms: O_29  and  C_30 
REMARK   28  A    between atoms: C_30  and  C_31 
REMARK   29  A    between atoms: C_31  and  O_32 
REMARK   30  A    between atoms: O_32  and  C_33 
REMARK   31  A    between atoms: C_33  and  C_34 
REMARK   32  A    between atoms: C_34  and  O_35 
REMARK   33  A    between atoms: O_35  and  C_36 
REMARK   34  A    between atoms: C_36  and  C_37 
REMARK   35  A    between atoms: C_37  and  O_38 
ROOT
HETATM    1  O   UNL     1     -17.399  -9.898  -5.681  1.00  0.00    -0.387 OA
ENDROOT
BRANCH   1   2
HETATM    2  C   UNL     1     -17.208 -10.908  -4.695  1.00  0.00     0.193 C 
BRANCH   2   3
HETATM    3  C   UNL     1     -15.781 -11.425  -4.776  1.00  0.00     0.193 C 
BRANCH   3   4
HETATM    4  O   UNL     1     -15.143 -11.270  -3.510  1.00  0.00    -0.387 OA
BRANCH   4   5
HETATM    5  C   UNL     1     -16.095 -10.890  -2.512  1.00  0.00     0.194 C 
BRANCH   5   6
HETATM    6  C   UNL     1     -16.496 -12.104  -1.676  1.00  0.00     0.205 C 
BRANCH   6   7
HETATM    7  O   UNL     1     -17.904 -12.077  -1.337  1.00  0.00    -0.319 OA
BRANCH   7   8
HETATM    8  C   UNL     1     -18.172 -12.330  -0.031  1.00  0.00     0.258 C 
HETATM    9  O   UNL     1     -17.315 -12.579   0.822  1.00  0.00    -0.265 OA
BRANCH   8  10
HETATM   10  C   UNL     1     -19.642 -12.235   0.297  1.00  0.00     0.111 C 
BRANCH  10  11
HETATM   11  C   UNL     1     -20.145 -10.800   0.162  1.00  0.00     0.010 C 
BRANCH  11  12
HETATM   12  C   UNL     1     -20.305 -10.135   1.523  1.00  0.00     0.000 C 
BRANCH  12  13
HETATM   13  C   UNL     1     -21.132  -8.867   1.402  1.00  0.00     0.000 C 
BRANCH  13  14
HETATM   14  C   UNL     1     -21.633  -8.705  -0.024  1.00  0.00     0.000 C 
BRANCH  14  15
HETATM   15  C   UNL     1     -23.143  -8.548  -0.033  1.00  0.00     0.000 C 
BRANCH  15  16
HETATM   16  C   UNL     1     -23.806  -9.892   0.211  1.00  0.00     0.000 C 
BRANCH  16  17
HETATM   17  C   UNL     1     -23.555 -10.815  -0.969  1.00  0.00     0.000 C 
BRANCH  17  18
HETATM   18  C   UNL     1     -23.825 -12.255  -0.569  1.00  0.00    -0.000 C 
BRANCH  18  19
HETATM   19  C   UNL     1     -23.347 -12.508   0.854  1.00  0.00    -0.005 C 
HETATM   20  C   UNL     1     -23.346 -13.995   1.148  1.00  0.00     0.005 C 
ENDBRANCH  18  19
ENDBRANCH  17  18
ENDBRANCH  16  17
ENDBRANCH  15  16
ENDBRANCH  14  15
ENDBRANCH  13  14
ENDBRANCH  12  13
ENDBRANCH  11  12
ENDBRANCH  10  11
ENDBRANCH   8  10
ENDBRANCH   7   8
ENDBRANCH   6   7
ENDBRANCH   5   6
ENDBRANCH   4   5
ENDBRANCH   3   4
ENDBRANCH   2   3
ENDBRANCH   1   2
BRANCH   1  21
HETATM   21  C   UNL     1     -18.543  -9.109  -5.363  1.00  0.00     0.193 C 
BRANCH  21  22
HETATM   22  C   UNL     1     -19.763 -10.006  -5.298  1.00  0.00     0.193 C 
BRANCH  22  23
HETATM   23  O   UNL     1     -20.931  -9.220  -5.515  1.00  0.00    -0.387 OA
BRANCH  23  24
HETATM   24  C   UNL     1     -20.663  -7.851  -5.231  1.00  0.00     0.193 C 
BRANCH  24  25
HETATM   25  C   UNL     1     -21.890  -7.229  -4.595  1.00  0.00     0.193 C 
BRANCH  25  26
HETATM   26  O   UNL     1     -22.031  -5.894  -5.070  1.00  0.00    -0.387 OA
BRANCH  26  27
HETATM   27  C   UNL     1     -20.751  -5.313  -5.290  1.00  0.00     0.193 C 
BRANCH  27  28
HETATM   28  C   UNL     1     -20.826  -4.377  -6.480  1.00  0.00     0.193 C 
BRANCH  28  29
HETATM   29  O   UNL     1     -22.106  -4.498  -7.089  1.00  0.00    -0.387 OA
BRANCH  29  30
HETATM   30  C   UNL     1     -22.123  -3.814  -8.337  1.00  0.00     0.193 C 
BRANCH  30  31
HETATM   31  C   UNL     1     -21.023  -4.368  -9.220  1.00  0.00     0.193 C 
BRANCH  31  32
HETATM   32  O   UNL     1     -21.411  -4.235 -10.583  1.00  0.00    -0.387 OA
BRANCH  32  33
HETATM   33  C   UNL     1     -22.762  -3.798 -10.669  1.00  0.00     0.193 C 
BRANCH  33  34
HETATM   34  C   UNL     1     -22.903  -2.834 -11.832  1.00  0.00     0.193 C 
BRANCH  34  35
HETATM   35  O   UNL     1     -22.974  -3.568 -13.053  1.00  0.00    -0.387 OA
BRANCH  35  36
HETATM   36  C   UNL     1     -24.115  -3.153 -13.810  1.00  0.00     0.193 C 
BRANCH  36  37
HETATM   37  C   UNL     1     -23.769  -1.884 -14.575  1.00  0.00     0.190 C 
BRANCH  37  38
HETATM   38  O   UNL     1     -22.803  -2.158 -15.588  1.00  0.00    -0.399 OA
HETATM   39  H   UNL     1     -22.035  -1.591 -15.380  1.00  0.00     0.209 HD
ENDBRANCH  37  38
ENDBRANCH  36  37
ENDBRANCH  35  36
ENDBRANCH  34  35
ENDBRANCH  33  34
ENDBRANCH  32  33
ENDBRANCH  31  32
ENDBRANCH  30  31
ENDBRANCH  29  30
ENDBRANCH  28  29
ENDBRANCH  27  28
ENDBRANCH  26  27
ENDBRANCH  25  26
ENDBRANCH  24  25
ENDBRANCH  23  24
ENDBRANCH  22  23
ENDBRANCH  21  22
ENDBRANCH   1  21
TORSDOF 35
BEGIN_RES ARG D 557
REMARK  4 active torsions:
REMARK  status: ('A' for Active; 'I' for Inactive)
REMARK    1  A    between atoms: CA   and  CB  
REMARK    2  A    between atoms: CB   and  CG  
REMARK    3  A    between atoms: CG   and  CD  
REMARK    4  A    between atoms: CD   and  NE  
REMARK       I    between atoms: NE   and  CZ  
REMARK       I    between atoms: CZ   and  NH1 
REMARK       I    between atoms: CZ   and  NH2 
ROOT
ATOM      1  CA  ARG D 557     -26.217   2.705 -17.014  1.00 35.49     0.159 C 
ENDROOT
BRANCH   1   2
ATOM      2  CB  ARG D 557     -26.789   1.319 -17.183  1.00 35.49     0.034 C 
BRANCH   2   3
ATOM      3  CG  ARG D 557     -28.238   1.224 -17.396  1.00 35.49     0.027 C 
BRANCH   3   4
ATOM      4  CD  ARG D 557     -28.884   0.272 -16.463  1.00 35.49     0.116 C 
BRANCH   4   5
ATOM      5  NE  ARG D 557     -29.254  -0.958 -17.112  1.00 35.49    -0.212 N 
ATOM      6  CZ  ARG D 557     -28.610  -2.099 -17.019  1.00 35.49     0.666 C 
ATOM      7  NH1 ARG D 557     -27.508  -2.235 -16.304  1.00 35.49    -0.235 N 
ATOM      8  NH2 ARG D 557     -29.101  -3.120 -17.660  1.00 35.49    -0.235 N 
ATOM      9  HH  ARG D 557     -27.169  -1.578 -15.872  1.00 35.49     0.174 HD
ATOM     10  HH  ARG D 557     -27.132  -3.005 -16.278  1.00 35.49     0.174 HD
ATOM     11  HH  ARG D 557     -29.817  -3.004 -18.108  1.00 35.49     0.174 HD
ATOM     12  HH  ARG D 557     -28.715  -3.874 -17.620  1.00 35.49     0.174 HD
ATOM     13  HE  ARG D 557     -29.911  -0.943 -17.652  1.00 35.49     0.178 HD
ENDBRANCH   4   5
ENDBRANCH   3   4
ENDBRANCH   2   3
ENDBRANCH   1   2
END_RES ARG D 557
BEGIN_RES GLU D 570
REMARK  3 active torsions:
REMARK  status: ('A' for Active; 'I' for Inactive)
REMARK    5  A    between atoms: CA   and  CB  
REMARK    6  A    between atoms: CB   and  CG  
REMARK    7  A    between atoms: CG   and  CD  
ROOT
ATOM     14  CA  GLU D 570     -18.033  -6.348 -13.375  1.00 32.92     0.160 C 
ENDROOT
BRANCH  14  15
ATOM     15  CB  GLU D 570     -19.500  -6.345 -13.794  1.00 32.92     0.043 C 
BRANCH  15  16
ATOM     16  CG  GLU D 570     -19.814  -5.921 -15.183  1.00 32.92     0.100 C 
BRANCH  16  17
ATOM     17  CD  GLU D 570     -21.288  -6.002 -15.505  1.00 32.92     0.185 C 
ATOM     18  OE1 GLU D 570     -21.880  -4.978 -15.895  1.00 32.92    -0.647 OA
ATOM     19  OE2 GLU D 570     -21.861  -7.099 -15.348  1.00 32.92    -0.647 OA
ENDBRANCH  16  17
ENDBRANCH  15  16
ENDBRANCH  14  15
END_RES GLU D 570
ENDMDL
MODEL 4
REMARK VINA RESULT:      -5.3      3.774      8.062
REMARK WARNING: 32 MAX_TORS EXCEEDED!!!
REMARK  35 active torsions:
REMARK  status: ('A' for Active; 'I' for Inactive)
REMARK    1  A    between atoms: C_2  and  C_3 
REMARK    2  A    between atoms: C_3  and  C_4 
REMARK    3  A    between atoms: C_4  and  C_5 
REMARK    4  A    between atoms: C_5  and  C_6 
REMARK    5  A    between atoms: C_6  and  C_7 
REMARK    6  A    between atoms: C_7  and  C_8 
REMARK    7  A    between atoms: C_8  and  C_9 
REMARK    8  A    between atoms: C_9  and  C_10 
REMARK    9  A    between atoms: C_10  and  C_11 
REMARK   10  A    between atoms: C_11  and  C_12 
REMARK   11  A    between atoms: C_12  and  O_14 
REMARK   12  A    between atoms: O_14  and  C_15 
REMARK   13  A    between atoms: C_15  and  C_16 
REMARK   14  A    between atoms: C_16  and  O_17 
REMARK   15  A    between atoms: O_17  and  C_18 
REMARK   16  A    between atoms: C_18  and  C_19 
REMARK   17  A    between atoms: C_19  and  O_20 
REMARK   18  A    between atoms: O_20  and  C_21 
REMARK   19  A    between atoms: C_21  and  C_22 
REMARK   20  A    between atoms: C_22  and  O_23 
REMARK   21  A    between atoms: O_23  and  C_24 
REMARK   22  A    between atoms: C_24  and  C_25 
REMARK   23  A    between atoms: C_25  and  O_26 
REMARK   24  A    between atoms: O_26  and  C_27 
REMARK   25  A    between atoms: C_27  and  C_28 
REMARK   26  A    between atoms: C_28  and  O_29 
REMARK   27  A    between atoms: O_29  and  C_30 
REMARK   28  A    between atoms: C_30  and  C_31 
REMARK   29  A    between atoms: C_31  and  O_32 
REMARK   30  A    between atoms: O_32  and  C_33 
REMARK   31  A    between atoms: C_33  and  C_34 
REMARK   32  A    between atoms: C_34  and  O_35 
REMARK   33  A    between atoms: O_35  and  C_36 
REMARK   34  A    between atoms: C_36  and  C_37 
REMARK   35  A    between atoms: C_37  and  O_38 
ROOT
HETATM    1  O   UNL     1     -22.641  -3.713  -8.494  1.00  0.00    -0.387 OA
ENDROOT
BRANCH   1   2
HETATM    2  C   UNL     1     -22.464  -4.568  -9.620  1.00  0.00     0.193 C 
BRANCH   2   3
HETATM    3  C   UNL     1     -22.483  -3.736 -10.890  1.00  0.00     0.193 C 
BRANCH   3   4
HETATM    4  O   UNL     1     -23.408  -4.299 -11.819  1.00  0.00    -0.387 OA
BRANCH   4   5
HETATM    5  C   UNL     1     -22.714  -4.889 -12.922  1.00  0.00     0.194 C 
BRANCH   5   6
HETATM    6  C   UNL     1     -23.698  -5.614 -13.838  1.00  0.00     0.205 C 
BRANCH   6   7
HETATM    7  O   UNL     1     -24.078  -4.793 -14.969  1.00  0.00    -0.319 OA
BRANCH   7   8
HETATM    8  C   UNL     1     -25.383  -4.897 -15.325  1.00  0.00     0.258 C 
HETATM    9  O   UNL     1     -26.181  -3.956 -15.334  1.00  0.00    -0.265 OA
BRANCH   8  10
HETATM   10  C   UNL     1     -25.766  -6.291 -15.757  1.00  0.00     0.111 C 
BRANCH  10  11
HETATM   11  C   UNL     1     -26.401  -6.282 -17.146  1.00  0.00     0.010 C 
BRANCH  11  12
HETATM   12  C   UNL     1     -27.894  -6.575 -17.078  1.00  0.00     0.000 C 
BRANCH  12  13
HETATM   13  C   UNL     1     -28.483  -6.663 -18.475  1.00  0.00     0.000 C 
BRANCH  13  14
HETATM   14  C   UNL     1     -29.859  -7.306 -18.422  1.00  0.00     0.000 C 
BRANCH  14  15
HETATM   15  C   UNL     1     -30.546  -6.965 -17.112  1.00  0.00     0.000 C 
BRANCH  15  16
HETATM   16  C   UNL     1     -31.567  -5.863 -17.332  1.00  0.00     0.000 C 
BRANCH  16  17
HETATM   17  C   UNL     1     -31.099  -4.582 -16.665  1.00  0.00     0.000 C 
BRANCH  17  18
HETATM   18  C   UNL     1     -30.561  -3.617 -17.708  1.00  0.00    -0.000 C 
BRANCH  18  19
HETATM   19  C   UNL     1     -29.098  -3.302 -17.432  1.00  0.00    -0.005 C 
HETATM   20  C   UNL     1     -28.946  -1.855 -17.007  1.00  0.00     0.005 C 
ENDBRANCH  18  19
ENDBRANCH  17  18
ENDBRANCH  16  17
ENDBRANCH  15  16
ENDBRANCH  14  15
ENDBRANCH  13  14
ENDBRANCH  12  13
ENDBRANCH  11  12
ENDBRANCH  10  11
ENDBRANCH   8  10
ENDBRANCH   7   8
ENDBRANCH   6   7
ENDBRANCH   5   6
ENDBRANCH   4   5
ENDBRANCH   3   4
ENDBRANCH   2   3
ENDBRANCH   1   2
BRANCH   1  21
HETATM   21  C   UNL     1     -21.457  -3.689  -7.701  1.00  0.00     0.193 C 
BRANCH  21  22
HETATM   22  C   UNL     1     -21.070  -5.110  -7.344  1.00  0.00     0.193 C 
BRANCH  22  23
HETATM   23  O   UNL     1     -22.018  -5.633  -6.420  1.00  0.00    -0.387 OA
BRANCH  23  24
HETATM   24  C   UNL     1     -21.518  -6.825  -5.822  1.00  0.00     0.193 C 
BRANCH  24  25
HETATM   25  C   UNL     1     -20.901  -6.484  -4.480  1.00  0.00     0.193 C 
BRANCH  25  26
HETATM   26  O   UNL     1     -21.891  -5.872  -3.659  1.00  0.00    -0.387 OA
BRANCH  26  27
HETATM   27  C   UNL     1     -21.577  -6.064  -2.284  1.00  0.00     0.193 C 
BRANCH  27  28
HETATM   28  C   UNL     1     -22.344  -7.261  -1.761  1.00  0.00     0.193 C 
BRANCH  28  29
HETATM   29  O   UNL     1     -22.741  -7.011  -0.418  1.00  0.00    -0.387 OA
BRANCH  29  30
HETATM   30  C   UNL     1     -22.828  -8.234   0.305  1.00  0.00     0.193 C 
BRANCH  30  31
HETATM   31  C   UNL     1     -21.437  -8.808   0.478  1.00  0.00     0.193 C 
BRANCH  31  32
HETATM   32  O   UNL     1     -21.539 -10.200   0.757  1.00  0.00    -0.387 OA
BRANCH  32  33
HETATM   33  C   UNL     1     -21.545 -10.944  -0.456  1.00  0.00     0.193 C 
BRANCH  33  34
HETATM   34  C   UNL     1     -20.670 -12.173  -0.293  1.00  0.00     0.193 C 
BRANCH  34  35
HETATM   35  O   UNL     1     -21.113 -12.926   0.836  1.00  0.00    -0.387 OA
BRANCH  35  36
HETATM   36  C   UNL     1     -20.856 -14.318   0.629  1.00  0.00     0.193 C 
BRANCH  36  37
HETATM   37  C   UNL     1     -22.136 -14.997   0.165  1.00  0.00     0.190 C 
BRANCH  37  38
HETATM   38  O   UNL     1     -22.081 -15.266  -1.235  1.00  0.00    -0.399 OA
HETATM   39  H   UNL     1     -22.617 -16.072  -1.370  1.00  0.00     0.209 HD
ENDBRANCH  37  38
ENDBRANCH  36  37
ENDBRANCH  35  36
ENDBRANCH  34  35
ENDBRANCH  33  34
ENDBRANCH  32  33
ENDBRANCH  31  32
ENDBRANCH  30  31
ENDBRANCH  29  30
ENDBRANCH  28  29
ENDBRANCH  27  28
ENDBRANCH  26  27
ENDBRANCH  25  26
ENDBRANCH  24  25
ENDBRANCH  23  24
ENDBRANCH  22  23
ENDBRANCH  21  22
ENDBRANCH   1  21
TORSDOF 35
BEGIN_RES ARG D 557
REMARK  4 active torsions:
REMARK  status: ('A' for Active; 'I' for Inactive)
REMARK    1  A    between atoms: CA   and  CB  
REMARK    2  A    between atoms: CB   and  CG  
REMARK    3  A    between atoms: CG   and  CD  
REMARK    4  A    between atoms: CD   and  NE  
REMARK       I    between atoms: NE   and  CZ  
REMARK       I    between atoms: CZ   and  NH1 
REMARK       I    between atoms: CZ   and  NH2 
ROOT
ATOM      1  CA  ARG D 557     -26.217   2.705 -17.014  1.00 35.49     0.159 C 
ENDROOT
BRANCH   1   2
ATOM      2  CB  ARG D 557     -26.789   1.319 -17.183  1.00 35.49     0.034 C 
BRANCH   2   3
ATOM      3  CG  ARG D 557     -25.838   0.202 -17.138  1.00 35.49     0.027 C 
BRANCH   3   4
ATOM      4  CD  ARG D 557     -24.735   0.437 -16.178  1.00 35.49     0.116 C 
BRANCH   4   5
ATOM      5  NE  ARG D 557     -24.859  -0.378 -14.999  1.00 35.49    -0.212 N 
ATOM      6  CZ  ARG D 557     -24.070  -1.376 -14.669  1.00 35.49     0.666 C 
ATOM      7  NH1 ARG D 557     -23.053  -1.754 -15.421  1.00 35.49    -0.235 N 
ATOM      8  NH2 ARG D 557     -24.318  -1.993 -13.551  1.00 35.49    -0.235 N 
ATOM      9  HH  ARG D 557     -22.870  -1.361 -16.160  1.00 35.49     0.174 HD
ATOM     10  HH  ARG D 557     -22.571  -2.410 -15.154  1.00 35.49     0.174 HD
ATOM     11  HH  ARG D 557     -24.977  -1.722 -13.082  1.00 35.49     0.174 HD
ATOM     12  HH  ARG D 557     -23.828  -2.639 -13.302  1.00 35.49     0.174 HD
ATOM     13  HE  ARG D 557     -25.531  -0.251 -14.494  1.00 35.49     0.178 HD
ENDBRANCH   4   5
ENDBRANCH   3   4
ENDBRANCH   2   3
ENDBRANCH   1   2
END_RES ARG D 557
BEGIN_RES GLU D 570
REMARK  3 active torsions:
REMARK  status: ('A' for Active; 'I' for Inactive)
REMARK    5  A    between atoms: CA   and  CB  
REMARK    6  A    between atoms: CB   and  CG  
REMARK    7  A    between atoms: CG   and  CD  
ROOT
ATOM     14  CA  GLU D 570     -18.033  -6.348 -13.375  1.00 32.92     0.160 C 
ENDROOT
BRANCH  14  15
ATOM     15  CB  GLU D 570     -19.500  -6.345 -13.794  1.00 32.92     0.043 C 
BRANCH  15  16
ATOM     16  CG  GLU D 570     -19.797  -6.263 -15.248  1.00 32.92     0.100 C 
BRANCH  16  17
ATOM     17  CD  GLU D 570     -20.774  -7.318 -15.710  1.00 32.92     0.185 C 
ATOM     18  OE1 GLU D 570     -20.571  -8.508 -15.402  1.00 32.92    -0.647 OA
ATOM     19  OE2 GLU D 570     -21.744  -6.952 -16.403  1.00 32.92    -0.647 OA
ENDBRANCH  16  17
ENDBRANCH  15  16
ENDBRANCH  14  15
END_RES GLU D 570
ENDMDL
MODEL 5
REMARK VINA RESULT:      -5.2      2.107      8.933
REMARK WARNING: 32 MAX_TORS EXCEEDED!!!
REMARK  35 active torsions:
REMARK  status: ('A' for Active; 'I' for Inactive)
REMARK    1  A    between atoms: C_2  and  C_3 
REMARK    2  A    between atoms: C_3  and  C_4 
REMARK    3  A    between atoms: C_4  and  C_5 
REMARK    4  A    between atoms: C_5  and  C_6 
REMARK    5  A    between atoms: C_6  and  C_7 
REMARK    6  A    between atoms: C_7  and  C_8 
REMARK    7  A    between atoms: C_8  and  C_9 
REMARK    8  A    between atoms: C_9  and  C_10 
REMARK    9  A    between atoms: C_10  and  C_11 
REMARK   10  A    between atoms: C_11  and  C_12 
REMARK   11  A    between atoms: C_12  and  O_14 
REMARK   12  A    between atoms: O_14  and  C_15 
REMARK   13  A    between atoms: C_15  and  C_16 
REMARK   14  A    between atoms: C_16  and  O_17 
REMARK   15  A    between atoms: O_17  and  C_18 
REMARK   16  A    between atoms: C_18  and  C_19 
REMARK   17  A    between atoms: C_19  and  O_20 
REMARK   18  A    between atoms: O_20  and  C_21 
REMARK   19  A    between atoms: C_21  and  C_22 
REMARK   20  A    between atoms: C_22  and  O_23 
REMARK   21  A    between atoms: O_23  and  C_24 
REMARK   22  A    between atoms: C_24  and  C_25 
REMARK   23  A    between atoms: C_25  and  O_26 
REMARK   24  A    between atoms: O_26  and  C_27 
REMARK   25  A    between atoms: C_27  and  C_28 
REMARK   26  A    between atoms: C_28  and  O_29 
REMARK   27  A    between atoms: O_29  and  C_30 
REMARK   28  A    between atoms: C_30  and  C_31 
REMARK   29  A    between atoms: C_31  and  O_32 
REMARK   30  A    between atoms: O_32  and  C_33 
REMARK   31  A    between atoms: C_33  and  C_34 
REMARK   32  A    between atoms: C_34  and  O_35 
REMARK   33  A    between atoms: O_35  and  C_36 
REMARK   34  A    between atoms: C_36  and  C_37 
REMARK   35  A    between atoms: C_37  and  O_38 
ROOT
HETATM    1  O   UNL     1     -16.038 -10.374  -3.511  1.00  0.00    -0.387 OA
ENDROOT
BRANCH   1   2
HETATM    2  C   UNL     1     -15.407 -11.638  -3.332  1.00  0.00     0.193 C 
BRANCH   2   3
HETATM    3  C   UNL     1     -14.929 -12.155  -4.678  1.00  0.00     0.193 C 
BRANCH   3   4
HETATM    4  O   UNL     1     -15.474 -11.349  -5.722  1.00  0.00    -0.387 OA
BRANCH   4   5
HETATM    5  C   UNL     1     -16.016 -12.172  -6.759  1.00  0.00     0.194 C 
BRANCH   5   6
HETATM    6  C   UNL     1     -17.346 -12.775  -6.314  1.00  0.00     0.205 C 
BRANCH   6   7
HETATM    7  O   UNL     1     -18.458 -11.898  -6.617  1.00  0.00    -0.319 OA
BRANCH   7   8
HETATM    8  C   UNL     1     -19.637 -12.536  -6.821  1.00  0.00     0.258 C 
HETATM    9  O   UNL     1     -19.751 -13.630  -7.381  1.00  0.00    -0.265 OA
BRANCH   8  10
HETATM   10  C   UNL     1     -20.817 -11.788  -6.252  1.00  0.00     0.111 C 
BRANCH  10  11
HETATM   11  C   UNL     1     -21.847 -12.750  -5.662  1.00  0.00     0.010 C 
BRANCH  11  12
HETATM   12  C   UNL     1     -22.392 -12.238  -4.335  1.00  0.00     0.000 C 
BRANCH  12  13
HETATM   13  C   UNL     1     -22.001 -10.786  -4.123  1.00  0.00     0.000 C 
BRANCH  13  14
HETATM   14  C   UNL     1     -22.464 -10.315  -2.755  1.00  0.00     0.000 C 
BRANCH  14  15
HETATM   15  C   UNL     1     -23.275 -11.403  -2.074  1.00  0.00     0.000 C 
BRANCH  15  16
HETATM   16  C   UNL     1     -23.761 -10.918  -0.720  1.00  0.00     0.000 C 
BRANCH  16  17
HETATM   17  C   UNL     1     -22.658 -10.143  -0.021  1.00  0.00     0.000 C 
BRANCH  17  18
HETATM   18  C   UNL     1     -23.122  -8.726   0.271  1.00  0.00    -0.000 C 
BRANCH  18  19
HETATM   19  C   UNL     1     -21.994  -7.737   0.019  1.00  0.00    -0.005 C 
HETATM   20  C   UNL     1     -22.351  -6.819  -1.133  1.00  0.00     0.005 C 
ENDBRANCH  18  19
ENDBRANCH  17  18
ENDBRANCH  16  17
ENDBRANCH  15  16
ENDBRANCH  14  15
ENDBRANCH  13  14
ENDBRANCH  12  13
ENDBRANCH  11  12
ENDBRANCH  10  11
ENDBRANCH   8  10
ENDBRANCH   7   8
ENDBRANCH   6   7
ENDBRANCH   5   6
ENDBRANCH   4   5
ENDBRANCH   3   4
ENDBRANCH   2   3
ENDBRANCH   1   2
BRANCH   1  21
HETATM   21  C   UNL     1     -17.167 -10.259  -2.649  1.00  0.00     0.193 C 
BRANCH  21  22
HETATM   22  C   UNL     1     -18.431 -10.243  -3.485  1.00  0.00     0.193 C 
BRANCH  22  23
HETATM   23  O   UNL     1     -18.904  -8.903  -3.586  1.00  0.00    -0.387 OA
BRANCH  23  24
HETATM   24  C   UNL     1     -19.291  -8.617  -4.926  1.00  0.00     0.193 C 
BRANCH  24  25
HETATM   25  C   UNL     1     -20.336  -7.518  -4.915  1.00  0.00     0.193 C 
BRANCH  25  26
HETATM   26  O   UNL     1     -20.787  -7.296  -6.247  1.00  0.00    -0.387 OA
BRANCH  26  27
HETATM   27  C   UNL     1     -20.215  -6.102  -6.767  1.00  0.00     0.193 C 
BRANCH  27  28
HETATM   28  C   UNL     1     -20.708  -4.919  -5.957  1.00  0.00     0.193 C 
BRANCH  28  29
HETATM   29  O   UNL     1     -21.091  -3.874  -6.843  1.00  0.00    -0.387 OA
BRANCH  29  30
HETATM   30  C   UNL     1     -21.982  -4.371  -7.836  1.00  0.00     0.193 C 
BRANCH  30  31
HETATM   31  C   UNL     1     -21.521  -3.896  -9.198  1.00  0.00     0.193 C 
BRANCH  31  32
HETATM   32  O   UNL     1     -22.608  -3.982 -10.113  1.00  0.00    -0.387 OA
BRANCH  32  33
HETATM   33  C   UNL     1     -22.298  -3.279 -11.311  1.00  0.00     0.193 C 
BRANCH  33  34
HETATM   34  C   UNL     1     -23.263  -3.700 -12.403  1.00  0.00     0.193 C 
BRANCH  34  35
HETATM   35  O   UNL     1     -24.375  -2.806 -12.427  1.00  0.00    -0.387 OA
BRANCH  35  36
HETATM   36  C   UNL     1     -24.968  -2.795 -13.728  1.00  0.00     0.193 C 
BRANCH  36  37
HETATM   37  C   UNL     1     -24.245  -1.775 -14.596  1.00  0.00     0.190 C 
BRANCH  37  38
HETATM   38  O   UNL     1     -24.975  -0.551 -14.642  1.00  0.00    -0.399 OA
HETATM   39  H   UNL     1     -25.910  -0.795 -14.496  1.00  0.00     0.209 HD
ENDBRANCH  37  38
ENDBRANCH  36  37
ENDBRANCH  35  36
ENDBRANCH  34  35
ENDBRANCH  33  34
ENDBRANCH  32  33
ENDBRANCH  31  32
ENDBRANCH  30  31
ENDBRANCH  29  30
ENDBRANCH  28  29
ENDBRANCH  27  28
ENDBRANCH  26  27
ENDBRANCH  25  26
ENDBRANCH  24  25
ENDBRANCH  23  24
ENDBRANCH  22  23
ENDBRANCH  21  22
ENDBRANCH   1  21
TORSDOF 35
BEGIN_RES ARG D 557
REMARK  4 active torsions:
REMARK  status: ('A' for Active; 'I' for Inactive)
REMARK    1  A    between atoms: CA   and  CB  
REMARK    2  A    between atoms: CB   and  CG  
REMARK    3  A    between atoms: CG   and  CD  
REMARK    4  A    between atoms: CD   and  NE  
REMARK       I    between atoms: NE   and  CZ  
REMARK       I    between atoms: CZ   and  NH1 
REMARK       I    between atoms: CZ   and  NH2 
ROOT
ATOM      1  CA  ARG D 557     -26.217   2.705 -17.014  1.00 35.49     0.159 C 
ENDROOT
BRANCH   1   2
ATOM      2  CB  ARG D 557     -26.789   1.319 -17.183  1.00 35.49     0.034 C 
BRANCH   2   3
ATOM      3  CG  ARG D 557     -28.225   1.228 -17.474  1.00 35.49     0.027 C 
BRANCH   3   4
ATOM      4  CD  ARG D 557     -28.933   0.322 -16.541  1.00 35.49     0.116 C 
BRANCH   4   5
ATOM      5  NE  ARG D 557     -29.231  -0.951 -17.143  1.00 35.49    -0.212 N 
ATOM      6  CZ  ARG D 557     -28.535  -2.055 -16.989  1.00 35.49     0.666 C 
ATOM      7  NH1 ARG D 557     -27.443  -2.107 -16.249  1.00 35.49    -0.235 N 
ATOM      8  NH2 ARG D 557     -28.965  -3.125 -17.593  1.00 35.49    -0.235 N 
ATOM      9  HH  ARG D 557     -27.143  -1.416 -15.841  1.00 35.49     0.174 HD
ATOM     10  HH  ARG D 557     -27.031  -2.856 -16.183  1.00 35.49     0.174 HD
ATOM     11  HH  ARG D 557     -29.677  -3.063 -18.058  1.00 35.49     0.174 HD
ATOM     12  HH  ARG D 557     -28.544  -3.857 -17.514  1.00 35.49     0.174 HD
ATOM     13  HE  ARG D 557     -29.878  -0.991 -17.694  1.00 35.49     0.178 HD
ENDBRANCH   4   5
ENDBRANCH   3   4
ENDBRANCH   2   3
ENDBRANCH   1   2
END_RES ARG D 557
BEGIN_RES GLU D 570
REMARK  3 active torsions:
REMARK  status: ('A' for Active; 'I' for Inactive)
REMARK    5  A    between atoms: CA   and  CB  
REMARK    6  A    between atoms: CB   and  CG  
REMARK    7  A    between atoms: CG   and  CD  
ROOT
ATOM     14  CA  GLU D 570     -18.033  -6.348 -13.375  1.00 32.92     0.160 C 
ENDROOT
BRANCH  14  15
ATOM     15  CB  GLU D 570     -19.500  -6.345 -13.794  1.00 32.92     0.043 C 
BRANCH  15  16
ATOM     16  CG  GLU D 570     -20.063  -7.614 -14.324  1.00 32.92     0.100 C 
BRANCH  16  17
ATOM     17  CD  GLU D 570     -20.789  -7.433 -15.637  1.00 32.92     0.185 C 
ATOM     18  OE1 GLU D 570     -21.378  -8.409 -16.142  1.00 32.92    -0.647 OA
ATOM     19  OE2 GLU D 570     -20.754  -6.309 -16.174  1.00 32.92    -0.647 OA
ENDBRANCH  16  17
ENDBRANCH  15  16
ENDBRANCH  14  15
END_RES GLU D 570
ENDMDL
MODEL 6
REMARK VINA RESULT:      -5.2      3.477      7.585
REMARK WARNING: 32 MAX_TORS EXCEEDED!!!
REMARK  35 active torsions:
REMARK  status: ('A' for Active; 'I' for Inactive)
REMARK    1  A    between atoms: C_2  and  C_3 
REMARK    2  A    between atoms: C_3  and  C_4 
REMARK    3  A    between atoms: C_4  and  C_5 
REMARK    4  A    between atoms: C_5  and  C_6 
REMARK    5  A    between atoms: C_6  and  C_7 
REMARK    6  A    between atoms: C_7  and  C_8 
REMARK    7  A    between atoms: C_8  and  C_9 
REMARK    8  A    between atoms: C_9  and  C_10 
REMARK    9  A    between atoms: C_10  and  C_11 
REMARK   10  A    between atoms: C_11  and  C_12 
REMARK   11  A    between atoms: C_12  and  O_14 
REMARK   12  A    between atoms: O_14  and  C_15 
REMARK   13  A    between atoms: C_15  and  C_16 
REMARK   14  A    between atoms: C_16  and  O_17 
REMARK   15  A    between atoms: O_17  and  C_18 
REMARK   16  A    between atoms: C_18  and  C_19 
REMARK   17  A    between atoms: C_19  and  O_20 
REMARK   18  A    between atoms: O_20  and  C_21 
REMARK   19  A    between atoms: C_21  and  C_22 
REMARK   20  A    between atoms: C_22  and  O_23 
REMARK   21  A    between atoms: O_23  and  C_24 
REMARK   22  A    between atoms: C_24  and  C_25 
REMARK   23  A    between atoms: C_25  and  O_26 
REMARK   24  A    between atoms: O_26  and  C_27 
REMARK   25  A    between atoms: C_27  and  C_28 
REMARK   26  A    between atoms: C_28  and  O_29 
REMARK   27  A    between atoms: O_29  and  C_30 
REMARK   28  A    between atoms: C_30  and  C_31 
REMARK   29  A    between atoms: C_31  and  O_32 
REMARK   30  A    between atoms: O_32  and  C_33 
REMARK   31  A    between atoms: C_33  and  C_34 
REMARK   32  A    between atoms: C_34  and  O_35 
REMARK   33  A    between atoms: O_35  and  C_36 
REMARK   34  A    between atoms: C_36  and  C_37 
REMARK   35  A    between atoms: C_37  and  O_38 
ROOT
HETATM    1  O   UNL     1     -23.070  -3.410  -9.005  1.00  0.00    -0.387 OA
ENDROOT
BRANCH   1   2
HETATM    2  C   UNL     1     -24.259  -3.577  -9.773  1.00  0.00     0.193 C 
BRANCH   2   3
HETATM    3  C   UNL     1     -23.902  -3.612 -11.249  1.00  0.00     0.193 C 
BRANCH   3   4
HETATM    4  O   UNL     1     -23.717  -4.964 -11.666  1.00  0.00    -0.387 OA
BRANCH   4   5
HETATM    5  C   UNL     1     -22.888  -5.020 -12.831  1.00  0.00     0.194 C 
BRANCH   5   6
HETATM    6  C   UNL     1     -23.482  -5.982 -13.857  1.00  0.00     0.205 C 
BRANCH   6   7
HETATM    7  O   UNL     1     -23.882  -5.292 -15.066  1.00  0.00    -0.319 OA
BRANCH   7   8
HETATM    8  C   UNL     1     -25.221  -5.278 -15.288  1.00  0.00     0.258 C 
HETATM    9  O   UNL     1     -25.954  -4.309 -15.072  1.00  0.00    -0.265 OA
BRANCH   8  10
HETATM   10  C   UNL     1     -25.734  -6.571 -15.873  1.00  0.00     0.111 C 
BRANCH  10  11
HETATM   11  C   UNL     1     -27.251  -6.674 -15.735  1.00  0.00     0.010 C 
BRANCH  11  12
HETATM   12  C   UNL     1     -27.938  -6.640 -17.094  1.00  0.00     0.000 C 
BRANCH  12  13
HETATM   13  C   UNL     1     -27.024  -6.021 -18.138  1.00  0.00     0.000 C 
BRANCH  13  14
HETATM   14  C   UNL     1     -27.581  -6.265 -19.530  1.00  0.00     0.000 C 
BRANCH  14  15
HETATM   15  C   UNL     1     -26.533  -6.931 -20.404  1.00  0.00     0.000 C 
BRANCH  15  16
HETATM   16  C   UNL     1     -25.183  -6.899 -19.711  1.00  0.00     0.000 C 
BRANCH  16  17
HETATM   17  C   UNL     1     -24.198  -7.785 -20.454  1.00  0.00     0.000 C 
BRANCH  17  18
HETATM   18  C   UNL     1     -24.448  -7.700 -21.950  1.00  0.00    -0.000 C 
BRANCH  18  19
HETATM   19  C   UNL     1     -23.259  -8.261 -22.718  1.00  0.00    -0.005 C 
HETATM   20  C   UNL     1     -22.198  -8.749 -21.753  1.00  0.00     0.005 C 
ENDBRANCH  18  19
ENDBRANCH  17  18
ENDBRANCH  16  17
ENDBRANCH  15  16
ENDBRANCH  14  15
ENDBRANCH  13  14
ENDBRANCH  12  13
ENDBRANCH  11  12
ENDBRANCH  10  11
ENDBRANCH   8  10
ENDBRANCH   7   8
ENDBRANCH   6   7
ENDBRANCH   5   6
ENDBRANCH   4   5
ENDBRANCH   3   4
ENDBRANCH   2   3
ENDBRANCH   1   2
BRANCH   1  21
HETATM   21  C   UNL     1     -23.021  -4.373  -7.956  1.00  0.00     0.193 C 
BRANCH  21  22
HETATM   22  C   UNL     1     -21.680  -4.278  -7.256  1.00  0.00     0.193 C 
BRANCH  22  23
HETATM   23  O   UNL     1     -20.777  -5.203  -7.853  1.00  0.00    -0.387 OA
BRANCH  23  24
HETATM   24  C   UNL     1     -19.981  -5.830  -6.853  1.00  0.00     0.193 C 
BRANCH  24  25
HETATM   25  C   UNL     1     -20.445  -5.362  -5.487  1.00  0.00     0.193 C 
BRANCH  25  26
HETATM   26  O   UNL     1     -20.845  -6.495  -4.722  1.00  0.00    -0.387 OA
BRANCH  26  27
HETATM   27  C   UNL     1     -20.096  -7.640  -5.112  1.00  0.00     0.193 C 
BRANCH  27  28
HETATM   28  C   UNL     1     -21.025  -8.833  -5.210  1.00  0.00     0.193 C 
BRANCH  28  29
HETATM   29  O   UNL     1     -21.166  -9.423  -3.923  1.00  0.00    -0.387 OA
BRANCH  29  30
HETATM   30  C   UNL     1     -19.889  -9.776  -3.402  1.00  0.00     0.193 C 
BRANCH  30  31
HETATM   31  C   UNL     1     -19.995 -11.113  -2.697  1.00  0.00     0.193 C 
BRANCH  31  32
HETATM   32  O   UNL     1     -20.453 -10.901  -1.366  1.00  0.00    -0.387 OA
BRANCH  32  33
HETATM   33  C   UNL     1     -21.867 -11.056  -1.304  1.00  0.00     0.193 C 
BRANCH  33  34
HETATM   34  C   UNL     1     -22.446  -9.995  -0.387  1.00  0.00     0.193 C 
BRANCH  34  35
HETATM   35  O   UNL     1     -21.439  -9.033  -0.075  1.00  0.00    -0.387 OA
BRANCH  35  36
HETATM   36  C   UNL     1     -22.044  -7.811   0.356  1.00  0.00     0.193 C 
BRANCH  36  37
HETATM   37  C   UNL     1     -22.419  -6.984  -0.866  1.00  0.00     0.190 C 
BRANCH  37  38
HETATM   38  O   UNL     1     -21.479  -7.192  -1.919  1.00  0.00    -0.399 OA
HETATM   39  H   UNL     1     -21.614  -6.453  -2.543  1.00  0.00     0.209 HD
ENDBRANCH  37  38
ENDBRANCH  36  37
ENDBRANCH  35  36
ENDBRANCH  34  35
ENDBRANCH  33  34
ENDBRANCH  32  33
ENDBRANCH  31  32
ENDBRANCH  30  31
ENDBRANCH  29  30
ENDBRANCH  28  29
ENDBRANCH  27  28
ENDBRANCH  26  27
ENDBRANCH  25  26
ENDBRANCH  24  25
ENDBRANCH  23  24
ENDBRANCH  22  23
ENDBRANCH  21  22
ENDBRANCH   1  21
TORSDOF 35
BEGIN_RES ARG D 557
REMARK  4 active torsions:
REMARK  status: ('A' for Active; 'I' for Inactive)
REMARK    1  A    between atoms: CA   and  CB  
REMARK    2  A    between atoms: CB   and  CG  
REMARK    3  A    between atoms: CG   and  CD  
REMARK    4  A    between atoms: CD   and  NE  
REMARK       I    between atoms: NE   and  CZ  
REMARK       I    between atoms: CZ   and  NH1 
REMARK       I    between atoms: CZ   and  NH2 
ROOT
ATOM      1  CA  ARG D 557     -26.217   2.705 -17.014  1.00 35.49     0.159 C 
ENDROOT
BRANCH   1   2
ATOM      2  CB  ARG D 557     -26.789   1.319 -17.183  1.00 35.49     0.034 C 
BRANCH   2   3
ATOM      3  CG  ARG D 557     -25.908   0.195 -16.844  1.00 35.49     0.027 C 
BRANCH   3   4
ATOM      4  CD  ARG D 557     -26.470  -0.660 -15.773  1.00 35.49     0.116 C 
BRANCH   4   5
ATOM      5  NE  ARG D 557     -25.486  -1.553 -15.220  1.00 35.49    -0.212 N 
ATOM      6  CZ  ARG D 557     -24.225  -1.261 -14.993  1.00 35.49     0.666 C 
ATOM      7  NH1 ARG D 557     -23.710  -0.078 -15.273  1.00 35.49    -0.235 N 
ATOM      8  NH2 ARG D 557     -23.480  -2.188 -14.465  1.00 35.49    -0.235 N 
ATOM      9  HH  ARG D 557     -24.182   0.548 -15.619  1.00 35.49     0.174 HD
ATOM     10  HH  ARG D 557     -22.881   0.056 -15.100  1.00 35.49     0.174 HD
ATOM     11  HH  ARG D 557     -23.842  -2.940 -14.288  1.00 35.49     0.174 HD
ATOM     12  HH  ARG D 557     -22.662  -2.035 -14.300  1.00 35.49     0.174 HD
ATOM     13  HE  ARG D 557     -25.715  -2.359 -15.077  1.00 35.49     0.178 HD
ENDBRANCH   4   5
ENDBRANCH   3   4
ENDBRANCH   2   3
ENDBRANCH   1   2
END_RES ARG D 557
BEGIN_RES GLU D 570
REMARK  3 active torsions:
REMARK  status: ('A' for Active; 'I' for Inactive)
REMARK    5  A    between atoms: CA   and  CB  
REMARK    6  A    between atoms: CB   and  CG  
REMARK    7  A    between atoms: CG   and  CD  
ROOT
ATOM     14  CA  GLU D 570     -18.033  -6.348 -13.375  1.00 32.92     0.160 C 
ENDROOT
BRANCH  14  15
ATOM     15  CB  GLU D 570     -19.500  -6.345 -13.794  1.00 32.92     0.043 C 
BRANCH  15  16
ATOM     16  CG  GLU D 570     -20.080  -7.629 -14.265  1.00 32.92     0.100 C 
BRANCH  16  17
ATOM     17  CD  GLU D 570     -20.674  -7.535 -15.651  1.00 32.92     0.185 C 
ATOM     18  OE1 GLU D 570     -21.212  -8.543 -16.149  1.00 32.92    -0.647 OA
ATOM     19  OE2 GLU D 570     -20.586  -6.446 -16.252  1.00 32.92    -0.647 OA
ENDBRANCH  16  17
ENDBRANCH  15  16
ENDBRANCH  14  15
END_RES GLU D 570
ENDMDL
MODEL 7
REMARK VINA RESULT:      -5.1      2.098      9.702
REMARK WARNING: 32 MAX_TORS EXCEEDED!!!
REMARK  35 active torsions:
REMARK  status: ('A' for Active; 'I' for Inactive)
REMARK    1  A    between atoms: C_2  and  C_3 
REMARK    2  A    between atoms: C_3  and  C_4 
REMARK    3  A    between atoms: C_4  and  C_5 
REMARK    4  A    between atoms: C_5  and  C_6 
REMARK    5  A    between atoms: C_6  and  C_7 
REMARK    6  A    between atoms: C_7  and  C_8 
REMARK    7  A    between atoms: C_8  and  C_9 
REMARK    8  A    between atoms: C_9  and  C_10 
REMARK    9  A    between atoms: C_10  and  C_11 
REMARK   10  A    between atoms: C_11  and  C_12 
REMARK   11  A    between atoms: C_12  and  O_14 
REMARK   12  A    between atoms: O_14  and  C_15 
REMARK   13  A    between atoms: C_15  and  C_16 
REMARK   14  A    between atoms: C_16  and  O_17 
REMARK   15  A    between atoms: O_17  and  C_18 
REMARK   16  A    between atoms: C_18  and  C_19 
REMARK   17  A    between atoms: C_19  and  O_20 
REMARK   18  A    between atoms: O_20  and  C_21 
REMARK   19  A    between atoms: C_21  and  C_22 
REMARK   20  A    between atoms: C_22  and  O_23 
REMARK   21  A    between atoms: O_23  and  C_24 
REMARK   22  A    between atoms: C_24  and  C_25 
REMARK   23  A    between atoms: C_25  and  O_26 
REMARK   24  A    between atoms: O_26  and  C_27 
REMARK   25  A    between atoms: C_27  and  C_28 
REMARK   26  A    between atoms: C_28  and  O_29 
REMARK   27  A    between atoms: O_29  and  C_30 
REMARK   28  A    between atoms: C_30  and  C_31 
REMARK   29  A    between atoms: C_31  and  O_32 
REMARK   30  A    between atoms: O_32  and  C_33 
REMARK   31  A    between atoms: C_33  and  C_34 
REMARK   32  A    between atoms: C_34  and  O_35 
REMARK   33  A    between atoms: O_35  and  C_36 
REMARK   34  A    between atoms: C_36  and  C_37 
REMARK   35  A    between atoms: C_37  and  O_38 
ROOT
HETATM    1  O   UNL     1     -19.187  -8.602  -4.339  1.00  0.00    -0.387 OA
ENDROOT
BRANCH   1   2
HETATM    2  C   UNL     1     -18.383  -9.765  -4.166  1.00  0.00     0.193 C 
BRANCH   2   3
HETATM    3  C   UNL     1     -17.991 -10.311  -5.528  1.00  0.00     0.193 C 
BRANCH   3   4
HETATM    4  O   UNL     1     -17.888 -11.733  -5.462  1.00  0.00    -0.387 OA
BRANCH   4   5
HETATM    5  C   UNL     1     -18.003 -12.304  -6.769  1.00  0.00     0.194 C 
BRANCH   5   6
HETATM    6  C   UNL     1     -19.279 -13.136  -6.871  1.00  0.00     0.205 C 
BRANCH   6   7
HETATM    7  O   UNL     1     -20.175 -12.877  -5.763  1.00  0.00    -0.319 OA
BRANCH   7   8
HETATM    8  C   UNL     1     -21.344 -12.284  -6.114  1.00  0.00     0.258 C 
HETATM    9  O   UNL     1     -21.455 -11.426  -6.994  1.00  0.00    -0.265 OA
BRANCH   8  10
HETATM   10  C   UNL     1     -22.527 -12.812  -5.341  1.00  0.00     0.111 C 
BRANCH  10  11
HETATM   11  C   UNL     1     -22.467 -12.378  -3.878  1.00  0.00     0.010 C 
BRANCH  11  12
HETATM   12  C   UNL     1     -22.585 -13.570  -2.937  1.00  0.00     0.000 C 
BRANCH  12  13
HETATM   13  C   UNL     1     -23.214 -13.149  -1.621  1.00  0.00     0.000 C 
BRANCH  13  14
HETATM   14  C   UNL     1     -23.590 -11.677  -1.669  1.00  0.00     0.000 C 
BRANCH  14  15
HETATM   15  C   UNL     1     -24.074 -11.216  -0.307  1.00  0.00     0.000 C 
BRANCH  15  16
HETATM   16  C   UNL     1     -23.490  -9.853   0.018  1.00  0.00     0.000 C 
BRANCH  16  17
HETATM   17  C   UNL     1     -21.978  -9.949   0.122  1.00  0.00     0.000 C 
BRANCH  17  18
HETATM   18  C   UNL     1     -21.328  -8.892  -0.755  1.00  0.00    -0.000 C 
BRANCH  18  19
HETATM   19  C   UNL     1     -21.667  -7.499  -0.245  1.00  0.00    -0.005 C 
HETATM   20  C   UNL     1     -22.346  -6.694  -1.335  1.00  0.00     0.005 C 
ENDBRANCH  18  19
ENDBRANCH  17  18
ENDBRANCH  16  17
ENDBRANCH  15  16
ENDBRANCH  14  15
ENDBRANCH  13  14
ENDBRANCH  12  13
ENDBRANCH  11  12
ENDBRANCH  10  11
ENDBRANCH   8  10
ENDBRANCH   7   8
ENDBRANCH   6   7
ENDBRANCH   5   6
ENDBRANCH   4   5
ENDBRANCH   3   4
ENDBRANCH   2   3
ENDBRANCH   1   2
BRANCH   1  21
HETATM   21  C   UNL     1     -20.526  -8.970  -4.659  1.00  0.00     0.193 C 
BRANCH  21  22
HETATM   22  C   UNL     1     -21.395  -7.729  -4.669  1.00  0.00     0.193 C 
BRANCH  22  23
HETATM   23  O   UNL     1     -20.573  -6.587  -4.893  1.00  0.00    -0.387 OA
BRANCH  23  24
HETATM   24  C   UNL     1     -20.978  -5.915  -6.081  1.00  0.00     0.193 C 
BRANCH  24  25
HETATM   25  C   UNL     1     -19.890  -4.942  -6.493  1.00  0.00     0.193 C 
BRANCH  25  26
HETATM   26  O   UNL     1     -20.419  -4.039  -7.459  1.00  0.00    -0.387 OA
BRANCH  26  27
HETATM   27  C   UNL     1     -21.468  -4.663  -8.192  1.00  0.00     0.193 C 
BRANCH  27  28
HETATM   28  C   UNL     1     -21.889  -3.755  -9.330  1.00  0.00     0.193 C 
BRANCH  28  29
HETATM   29  O   UNL     1     -23.302  -3.824  -9.483  1.00  0.00    -0.387 OA
BRANCH  29  30
HETATM   30  C   UNL     1     -23.662  -3.589 -10.840  1.00  0.00     0.193 C 
BRANCH  30  31
HETATM   31  C   UNL     1     -22.749  -4.398 -11.740  1.00  0.00     0.193 C 
BRANCH  31  32
HETATM   32  O   UNL     1     -22.477  -3.649 -12.920  1.00  0.00    -0.387 OA
BRANCH  32  33
HETATM   33  C   UNL     1     -22.612  -4.477 -14.069  1.00  0.00     0.193 C 
BRANCH  33  34
HETATM   34  C   UNL     1     -23.994  -5.103 -14.074  1.00  0.00     0.193 C 
BRANCH  34  35
HETATM   35  O   UNL     1     -23.877  -6.515 -14.246  1.00  0.00    -0.387 OA
BRANCH  35  36
HETATM   36  C   UNL     1     -24.254  -6.880 -15.577  1.00  0.00     0.193 C 
BRANCH  36  37
HETATM   37  C   UNL     1     -25.680  -6.417 -15.835  1.00  0.00     0.190 C 
BRANCH  37  38
HETATM   38  O   UNL     1     -26.602  -7.481 -15.601  1.00  0.00    -0.399 OA
HETATM   39  H   UNL     1     -26.522  -8.073 -16.373  1.00  0.00     0.209 HD
ENDBRANCH  37  38
ENDBRANCH  36  37
ENDBRANCH  35  36
ENDBRANCH  34  35
ENDBRANCH  33  34
ENDBRANCH  32  33
ENDBRANCH  31  32
ENDBRANCH  30  31
ENDBRANCH  29  30
ENDBRANCH  28  29
ENDBRANCH  27  28
ENDBRANCH  26  27
ENDBRANCH  25  26
ENDBRANCH  24  25
ENDBRANCH  23  24
ENDBRANCH  22  23
ENDBRANCH  21  22
ENDBRANCH   1  21
TORSDOF 35
BEGIN_RES ARG D 557
REMARK  4 active torsions:
REMARK  status: ('A' for Active; 'I' for Inactive)
REMARK    1  A    between atoms: CA   and  CB  
REMARK    2  A    between atoms: CB   and  CG  
REMARK    3  A    between atoms: CG   and  CD  
REMARK    4  A    between atoms: CD   and  NE  
REMARK       I    between atoms: NE   and  CZ  
REMARK       I    between atoms: CZ   and  NH1 
REMARK       I    between atoms: CZ   and  NH2 
ROOT
ATOM      1  CA  ARG D 557     -26.217   2.705 -17.014  1.00 35.49     0.159 C 
ENDROOT
BRANCH   1   2
ATOM      2  CB  ARG D 557     -26.789   1.319 -17.183  1.00 35.49     0.034 C 
BRANCH   2   3
ATOM      3  CG  ARG D 557     -28.232   1.226 -17.437  1.00 35.49     0.027 C 
BRANCH   3   4
ATOM      4  CD  ARG D 557     -28.911   0.301 -16.502  1.00 35.49     0.116 C 
BRANCH   4   5
ATOM      5  NE  ARG D 557     -29.245  -0.952 -17.125  1.00 35.49    -0.212 N 
ATOM      6  CZ  ARG D 557     -28.584  -2.080 -16.987  1.00 35.49     0.666 C 
ATOM      7  NH1 ARG D 557     -27.496  -2.177 -16.245  1.00 35.49    -0.235 N 
ATOM      8  NH2 ARG D 557     -29.043  -3.125 -17.611  1.00 35.49    -0.235 N 
ATOM      9  HH  ARG D 557     -27.177  -1.502 -15.824  1.00 35.49     0.174 HD
ATOM     10  HH  ARG D 557     -27.108  -2.939 -16.190  1.00 35.49     0.174 HD
ATOM     11  HH  ARG D 557     -29.752  -3.034 -18.077  1.00 35.49     0.174 HD
ATOM     12  HH  ARG D 557     -28.646  -3.871 -17.542  1.00 35.49     0.174 HD
ATOM     13  HE  ARG D 557     -29.891  -0.963 -17.679  1.00 35.49     0.178 HD
ENDBRANCH   4   5
ENDBRANCH   3   4
ENDBRANCH   2   3
ENDBRANCH   1   2
END_RES ARG D 557
BEGIN_RES GLU D 570
REMARK  3 active torsions:
REMARK  status: ('A' for Active; 'I' for Inactive)
REMARK    5  A    between atoms: CA   and  CB  
REMARK    6  A    between atoms: CB   and  CG  
REMARK    7  A    between atoms: CG   and  CD  
ROOT
ATOM     14  CA  GLU D 570     -18.033  -6.348 -13.375  1.00 32.92     0.160 C 
ENDROOT
BRANCH  14  15
ATOM     15  CB  GLU D 570     -19.500  -6.345 -13.794  1.00 32.92     0.043 C 
BRANCH  15  16
ATOM     16  CG  GLU D 570     -20.084  -7.633 -14.250  1.00 32.92     0.100 C 
BRANCH  16  17
ATOM     17  CD  GLU D 570     -20.590  -7.579 -15.673  1.00 32.92     0.185 C 
ATOM     18  OE1 GLU D 570     -20.885  -8.642 -16.251  1.00 32.92    -0.647 OA
ATOM     19  OE2 GLU D 570     -20.677  -6.462 -16.221  1.00 32.92    -0.647 OA
ENDBRANCH  16  17
ENDBRANCH  15  16
ENDBRANCH  14  15
END_RES GLU D 570
ENDMDL
MODEL 8
REMARK VINA RESULT:      -5.1      3.983      7.907
REMARK WARNING: 32 MAX_TORS EXCEEDED!!!
REMARK  35 active torsions:
REMARK  status: ('A' for Active; 'I' for Inactive)
REMARK    1  A    between atoms: C_2  and  C_3 
REMARK    2  A    between atoms: C_3  and  C_4 
REMARK    3  A    between atoms: C_4  and  C_5 
REMARK    4  A    between atoms: C_5  and  C_6 
REMARK    5  A    between atoms: C_6  and  C_7 
REMARK    6  A    between atoms: C_7  and  C_8 
REMARK    7  A    between atoms: C_8  and  C_9 
REMARK    8  A    between atoms: C_9  and  C_10 
REMARK    9  A    between atoms: C_10  and  C_11 
REMARK   10  A    between atoms: C_11  and  C_12 
REMARK   11  A    between atoms: C_12  and  O_14 
REMARK   12  A    between atoms: O_14  and  C_15 
REMARK   13  A    between atoms: C_15  and  C_16 
REMARK   14  A    between atoms: C_16  and  O_17 
REMARK   15  A    between atoms: O_17  and  C_18 
REMARK   16  A    between atoms: C_18  and  C_19 
REMARK   17  A    between atoms: C_19  and  O_20 
REMARK   18  A    between atoms: O_20  and  C_21 
REMARK   19  A    between atoms: C_21  and  C_22 
REMARK   20  A    between atoms: C_22  and  O_23 
REMARK   21  A    between atoms: O_23  and  C_24 
REMARK   22  A    between atoms: C_24  and  C_25 
REMARK   23  A    between atoms: C_25  and  O_26 
REMARK   24  A    between atoms: O_26  and  C_27 
REMARK   25  A    between atoms: C_27  and  C_28 
REMARK   26  A    between atoms: C_28  and  O_29 
REMARK   27  A    between atoms: O_29  and  C_30 
REMARK   28  A    between atoms: C_30  and  C_31 
REMARK   29  A    between atoms: C_31  and  O_32 
REMARK   30  A    between atoms: O_32  and  C_33 
REMARK   31  A    between atoms: C_33  and  C_34 
REMARK   32  A    between atoms: C_34  and  O_35 
REMARK   33  A    between atoms: O_35  and  C_36 
REMARK   34  A    between atoms: C_36  and  C_37 
REMARK   35  A    between atoms: C_37  and  O_38 
ROOT
HETATM    1  O   UNL     1     -22.456  -4.759  -9.577  1.00  0.00    -0.387 OA
ENDROOT
BRANCH   1   2
HETATM    2  C   UNL     1     -21.998  -4.008 -10.698  1.00  0.00     0.193 C 
BRANCH   2   3
HETATM    3  C   UNL     1     -23.183  -3.333 -11.367  1.00  0.00     0.193 C 
BRANCH   3   4
HETATM    4  O   UNL     1     -23.236  -3.710 -12.742  1.00  0.00    -0.387 OA
BRANCH   4   5
HETATM    5  C   UNL     1     -23.434  -5.122 -12.866  1.00  0.00     0.194 C 
BRANCH   5   6
HETATM    6  C   UNL     1     -23.469  -5.522 -14.340  1.00  0.00     0.205 C 
BRANCH   6   7
HETATM    7  O   UNL     1     -24.339  -6.659 -14.563  1.00  0.00    -0.319 OA
BRANCH   7   8
HETATM    8  C   UNL     1     -24.893  -6.706 -15.801  1.00  0.00     0.258 C 
HETATM    9  O   UNL     1     -24.286  -7.030 -16.825  1.00  0.00    -0.265 OA
BRANCH   8  10
HETATM   10  C   UNL     1     -26.361  -6.359 -15.802  1.00  0.00     0.111 C 
BRANCH  10  11
HETATM   11  C   UNL     1     -26.570  -4.848 -15.748  1.00  0.00     0.010 C 
BRANCH  11  12
HETATM   12  C   UNL     1     -28.012  -4.472 -16.065  1.00  0.00     0.000 C 
BRANCH  12  13
HETATM   13  C   UNL     1     -28.973  -5.426 -15.379  1.00  0.00     0.000 C 
BRANCH  13  14
HETATM   14  C   UNL     1     -30.271  -5.514 -16.164  1.00  0.00     0.000 C 
BRANCH  14  15
HETATM   15  C   UNL     1     -30.247  -6.723 -17.081  1.00  0.00     0.000 C 
BRANCH  15  16
HETATM   16  C   UNL     1     -29.747  -6.322 -18.457  1.00  0.00     0.000 C 
BRANCH  16  17
HETATM   17  C   UNL     1     -28.437  -7.028 -18.759  1.00  0.00     0.000 C 
BRANCH  17  18
HETATM   18  C   UNL     1     -27.470  -6.067 -19.429  1.00  0.00    -0.000 C 
BRANCH  18  19
HETATM   19  C   UNL     1     -26.644  -6.794 -20.480  1.00  0.00    -0.005 C 
HETATM   20  C   UNL     1     -25.185  -6.821 -20.071  1.00  0.00     0.005 C 
ENDBRANCH  18  19
ENDBRANCH  17  18
ENDBRANCH  16  17
ENDBRANCH  15  16
ENDBRANCH  14  15
ENDBRANCH  13  14
ENDBRANCH  12  13
ENDBRANCH  11  12
ENDBRANCH  10  11
ENDBRANCH   8  10
ENDBRANCH   7   8
ENDBRANCH   6   7
ENDBRANCH   5   6
ENDBRANCH   4   5
ENDBRANCH   3   4
ENDBRANCH   2   3
ENDBRANCH   1   2
BRANCH   1  21
HETATM   21  C   UNL     1     -21.393  -4.959  -8.649  1.00  0.00     0.193 C 
BRANCH  21  22
HETATM   22  C   UNL     1     -21.277  -3.741  -7.756  1.00  0.00     0.193 C 
BRANCH  22  23
HETATM   23  O   UNL     1     -21.031  -4.165  -6.419  1.00  0.00    -0.387 OA
BRANCH  23  24
HETATM   24  C   UNL     1     -21.807  -5.321  -6.119  1.00  0.00     0.193 C 
BRANCH  24  25
HETATM   25  C   UNL     1     -21.124  -6.100  -5.012  1.00  0.00     0.193 C 
BRANCH  25  26
HETATM   26  O   UNL     1     -22.048  -6.293  -3.945  1.00  0.00    -0.387 OA
BRANCH  26  27
HETATM   27  C   UNL     1     -21.378  -6.201  -2.693  1.00  0.00     0.193 C 
BRANCH  27  28
HETATM   28  C   UNL     1     -22.353  -6.531  -1.581  1.00  0.00     0.193 C 
BRANCH  28  29
HETATM   29  O   UNL     1     -21.725  -7.411  -0.655  1.00  0.00    -0.387 OA
BRANCH  29  30
HETATM   30  C   UNL     1     -21.275  -8.585  -1.322  1.00  0.00     0.193 C 
BRANCH  30  31
HETATM   31  C   UNL     1     -22.342  -9.656  -1.214  1.00  0.00     0.193 C 
BRANCH  31  32
HETATM   32  O   UNL     1     -22.459 -10.060   0.146  1.00  0.00    -0.387 OA
BRANCH  32  33
HETATM   33  C   UNL     1     -21.319 -10.821   0.531  1.00  0.00     0.193 C 
BRANCH  33  34
HETATM   34  C   UNL     1     -21.682 -12.294   0.539  1.00  0.00     0.193 C 
BRANCH  34  35
HETATM   35  O   UNL     1     -23.094 -12.436   0.692  1.00  0.00    -0.387 OA
BRANCH  35  36
HETATM   36  C   UNL     1     -23.383 -13.496   1.608  1.00  0.00     0.193 C 
BRANCH  36  37
HETATM   37  C   UNL     1     -22.078 -14.142   2.051  1.00  0.00     0.190 C 
BRANCH  37  38
HETATM   38  O   UNL     1     -22.211 -14.693   3.360  1.00  0.00    -0.399 OA
HETATM   39  H   UNL     1     -23.147 -14.963   3.438  1.00  0.00     0.209 HD
ENDBRANCH  37  38
ENDBRANCH  36  37
ENDBRANCH  35  36
ENDBRANCH  34  35
ENDBRANCH  33  34
ENDBRANCH  32  33
ENDBRANCH  31  32
ENDBRANCH  30  31
ENDBRANCH  29  30
ENDBRANCH  28  29
ENDBRANCH  27  28
ENDBRANCH  26  27
ENDBRANCH  25  26
ENDBRANCH  24  25
ENDBRANCH  23  24
ENDBRANCH  22  23
ENDBRANCH  21  22
ENDBRANCH   1  21
TORSDOF 35
BEGIN_RES ARG D 557
REMARK  4 active torsions:
REMARK  status: ('A' for Active; 'I' for Inactive)
REMARK    1  A    between atoms: CA   and  CB  
REMARK    2  A    between atoms: CB   and  CG  
REMARK    3  A    between atoms: CG   and  CD  
REMARK    4  A    between atoms: CD   and  NE  
REMARK       I    between atoms: NE   and  CZ  
REMARK       I    between atoms: CZ   and  NH1 
REMARK       I    between atoms: CZ   and  NH2 
ROOT
ATOM      1  CA  ARG D 557     -26.217   2.705 -17.014  1.00 35.49     0.159 C 
ENDROOT
BRANCH   1   2
ATOM      2  CB  ARG D 557     -26.789   1.319 -17.183  1.00 35.49     0.034 C 
BRANCH   2   3
ATOM      3  CG  ARG D 557     -27.500   0.753 -16.030  1.00 35.49     0.027 C 
BRANCH   3   4
ATOM      4  CD  ARG D 557     -27.141  -0.663 -15.786  1.00 35.49     0.116 C 
BRANCH   4   5
ATOM      5  NE  ARG D 557     -25.716  -0.867 -15.778  1.00 35.49    -0.212 N 
ATOM      6  CZ  ARG D 557     -25.035  -1.495 -14.846  1.00 35.49     0.666 C 
ATOM      7  NH1 ARG D 557     -25.609  -2.009 -13.773  1.00 35.49    -0.235 N 
ATOM      8  NH2 ARG D 557     -23.749  -1.606 -15.013  1.00 35.49    -0.235 N 
ATOM      9  HH  ARG D 557     -26.453  -1.950 -13.644  1.00 35.49     0.174 HD
ATOM     10  HH  ARG D 557     -25.114  -2.410 -13.200  1.00 35.49     0.174 HD
ATOM     11  HH  ARG D 557     -23.407  -1.271 -15.719  1.00 35.49     0.174 HD
ATOM     12  HH  ARG D 557     -23.277  -2.007 -14.435  1.00 35.49     0.174 HD
ATOM     13  HE  ARG D 557     -25.257  -0.506 -16.396  1.00 35.49     0.178 HD
ENDBRANCH   4   5
ENDBRANCH   3   4
ENDBRANCH   2   3
ENDBRANCH   1   2
END_RES ARG D 557
BEGIN_RES GLU D 570
REMARK  3 active torsions:
REMARK  status: ('A' for Active; 'I' for Inactive)
REMARK    5  A    between atoms: CA   and  CB  
REMARK    6  A    between atoms: CB   and  CG  
REMARK    7  A    between atoms: CG   and  CD  
ROOT
ATOM     14  CA  GLU D 570     -18.033  -6.348 -13.375  1.00 32.92     0.160 C 
ENDROOT
BRANCH  14  15
ATOM     15  CB  GLU D 570     -19.500  -6.345 -13.794  1.00 32.92     0.043 C 
BRANCH  15  16
ATOM     16  CG  GLU D 570     -20.076  -7.625 -14.280  1.00 32.92     0.100 C 
BRANCH  16  17
ATOM     17  CD  GLU D 570     -20.736  -7.499 -15.634  1.00 32.92     0.185 C 
ATOM     18  OE1 GLU D 570     -20.577  -6.451 -16.289  1.00 32.92    -0.647 OA
ATOM     19  OE2 GLU D 570     -21.433  -8.451 -16.036  1.00 32.92    -0.647 OA
ENDBRANCH  16  17
ENDBRANCH  15  16
ENDBRANCH  14  15
END_RES GLU D 570
ENDMDL
MODEL 9
REMARK VINA RESULT:      -5.1      2.883     10.415
REMARK WARNING: 32 MAX_TORS EXCEEDED!!!
REMARK  35 active torsions:
REMARK  status: ('A' for Active; 'I' for Inactive)
REMARK    1  A    between atoms: C_2  and  C_3 
REMARK    2  A    between atoms: C_3  and  C_4 
REMARK    3  A    between atoms: C_4  and  C_5 
REMARK    4  A    between atoms: C_5  and  C_6 
REMARK    5  A    between atoms: C_6  and  C_7 
REMARK    6  A    between atoms: C_7  and  C_8 
REMARK    7  A    between atoms: C_8  and  C_9 
REMARK    8  A    between atoms: C_9  and  C_10 
REMARK    9  A    between atoms: C_10  and  C_11 
REMARK   10  A    between atoms: C_11  and  C_12 
REMARK   11  A    between atoms: C_12  and  O_14 
REMARK   12  A    between atoms: O_14  and  C_15 
REMARK   13  A    between atoms: C_15  and  C_16 
REMARK   14  A    between atoms: C_16  and  O_17 
REMARK   15  A    between atoms: O_17  and  C_18 
REMARK   16  A    between atoms: C_18  and  C_19 
REMARK   17  A    between atoms: C_19  and  O_20 
REMARK   18  A    between atoms: O_20  and  C_21 
REMARK   19  A    between atoms: C_21  and  C_22 
REMARK   20  A    between atoms: C_22  and  O_23 
REMARK   21  A    between atoms: O_23  and  C_24 
REMARK   22  A    between atoms: C_24  and  C_25 
REMARK   23  A    between atoms: C_25  and  O_26 
REMARK   24  A    between atoms: O_26  and  C_27 
REMARK   25  A    between atoms: C_27  and  C_28 
REMARK   26  A    between atoms: C_28  and  O_29 
REMARK   27  A    between atoms: O_29  and  C_30 
REMARK   28  A    between atoms: C_30  and  C_31 
REMARK   29  A    between atoms: C_31  and  O_32 
REMARK   30  A    between atoms: O_32  and  C_33 
REMARK   31  A    between atoms: C_33  and  C_34 
REMARK   32  A    between atoms: C_34  and  O_35 
REMARK   33  A    between atoms: O_35  and  C_36 
REMARK   34  A    between atoms: C_36  and  C_37 
REMARK   35  A    between atoms: C_37  and  O_38 
ROOT
HETATM    1  O   UNL     1     -22.671  -6.113  -4.314  1.00  0.00    -0.387 OA
ENDROOT
BRANCH   1   2
HETATM    2  C   UNL     1     -21.558  -6.321  -3.450  1.00  0.00     0.193 C 
BRANCH   2   3
HETATM    3  C   UNL     1     -22.034  -6.305  -2.007  1.00  0.00     0.193 C 
BRANCH   3   4
HETATM    4  O   UNL     1     -21.494  -7.427  -1.312  1.00  0.00    -0.387 OA
BRANCH   4   5
HETATM    5  C   UNL     1     -22.297  -7.744  -0.171  1.00  0.00     0.194 C 
BRANCH   5   6
HETATM    6  C   UNL     1     -22.458  -9.257  -0.041  1.00  0.00     0.205 C 
BRANCH   6   7
HETATM    7  O   UNL     1     -21.363  -9.965  -0.671  1.00  0.00    -0.319 OA
BRANCH   7   8
HETATM    8  C   UNL     1     -21.747 -10.969  -1.499  1.00  0.00     0.258 C 
HETATM    9  O   UNL     1     -22.864 -11.493  -1.490  1.00  0.00    -0.265 OA
BRANCH   8  10
HETATM   10  C   UNL     1     -20.672 -11.367  -2.480  1.00  0.00     0.111 C 
BRANCH  10  11
HETATM   11  C   UNL     1     -19.771 -10.181  -2.820  1.00  0.00     0.010 C 
BRANCH  11  12
HETATM   12  C   UNL     1     -18.305 -10.502  -2.560  1.00  0.00     0.000 C 
BRANCH  12  13
HETATM   13  C   UNL     1     -17.449  -9.260  -2.740  1.00  0.00     0.000 C 
BRANCH  13  14
HETATM   14  C   UNL     1     -15.989  -9.651  -2.898  1.00  0.00     0.000 C 
BRANCH  14  15
HETATM   15  C   UNL     1     -15.845 -11.162  -2.856  1.00  0.00     0.000 C 
BRANCH  15  16
HETATM   16  C   UNL     1     -15.025 -11.639  -4.041  1.00  0.00     0.000 C 
BRANCH  16  17
HETATM   17  C   UNL     1     -15.657 -11.159  -5.336  1.00  0.00     0.000 C 
BRANCH  17  18
HETATM   18  C   UNL     1     -15.876 -12.332  -6.275  1.00  0.00    -0.000 C 
BRANCH  18  19
HETATM   19  C   UNL     1     -17.242 -12.232  -6.939  1.00  0.00    -0.005 C 
HETATM   20  C   UNL     1     -18.322 -12.075  -5.888  1.00  0.00     0.005 C 
ENDBRANCH  18  19
ENDBRANCH  17  18
ENDBRANCH  16  17
ENDBRANCH  15  16
ENDBRANCH  14  15
ENDBRANCH  13  14
ENDBRANCH  12  13
ENDBRANCH  11  12
ENDBRANCH  10  11
ENDBRANCH   8  10
ENDBRANCH   7   8
ENDBRANCH   6   7
ENDBRANCH   5   6
ENDBRANCH   4   5
ENDBRANCH   3   4
ENDBRANCH   2   3
ENDBRANCH   1   2
BRANCH   1  21
HETATM   21  C   UNL     1     -22.295  -6.349  -5.668  1.00  0.00     0.193 C 
BRANCH  21  22
HETATM   22  C   UNL     1     -20.906  -5.791  -5.903  1.00  0.00     0.193 C 
BRANCH  22  23
HETATM   23  O   UNL     1     -20.510  -6.076  -7.241  1.00  0.00    -0.387 OA
BRANCH  23  24
HETATM   24  C   UNL     1     -20.465  -4.876  -8.008  1.00  0.00     0.193 C 
BRANCH  24  25
HETATM   25  C   UNL     1     -21.656  -4.844  -8.945  1.00  0.00     0.193 C 
BRANCH  25  26
HETATM   26  O   UNL     1     -21.405  -3.899  -9.980  1.00  0.00    -0.387 OA
BRANCH  26  27
HETATM   27  C   UNL     1     -22.529  -3.811 -10.849  1.00  0.00     0.193 C 
BRANCH  27  28
HETATM   28  C   UNL     1     -22.219  -4.541 -12.139  1.00  0.00     0.193 C 
BRANCH  28  29
HETATM   29  O   UNL     1     -23.425  -4.727 -12.872  1.00  0.00    -0.387 OA
BRANCH  29  30
HETATM   30  C   UNL     1     -23.427  -6.005 -13.499  1.00  0.00     0.193 C 
BRANCH  30  31
HETATM   31  C   UNL     1     -24.109  -5.893 -14.847  1.00  0.00     0.193 C 
BRANCH  31  32
HETATM   32  O   UNL     1     -25.005  -6.988 -15.008  1.00  0.00    -0.387 OA
BRANCH  32  33
HETATM   33  C   UNL     1     -25.902  -6.735 -16.083  1.00  0.00     0.193 C 
BRANCH  33  34
HETATM   34  C   UNL     1     -26.632  -5.429 -15.828  1.00  0.00     0.193 C 
BRANCH  34  35
HETATM   35  O   UNL     1     -28.034  -5.625 -16.006  1.00  0.00    -0.387 OA
BRANCH  35  36
HETATM   36  C   UNL     1     -28.312  -7.011 -16.228  1.00  0.00     0.193 C 
BRANCH  36  37
HETATM   37  C   UNL     1     -29.481  -7.136 -17.194  1.00  0.00     0.190 C 
BRANCH  37  38
HETATM   38  O   UNL     1     -29.497  -8.429 -17.796  1.00  0.00    -0.399 OA
HETATM   39  H   UNL     1     -29.024  -9.015 -17.174  1.00  0.00     0.209 HD
ENDBRANCH  37  38
ENDBRANCH  36  37
ENDBRANCH  35  36
ENDBRANCH  34  35
ENDBRANCH  33  34
ENDBRANCH  32  33
ENDBRANCH  31  32
ENDBRANCH  30  31
ENDBRANCH  29  30
ENDBRANCH  28  29
ENDBRANCH  27  28
ENDBRANCH  26  27
ENDBRANCH  25  26
ENDBRANCH  24  25
ENDBRANCH  23  24
ENDBRANCH  22  23
ENDBRANCH  21  22
ENDBRANCH   1  21
TORSDOF 35
BEGIN_RES ARG D 557
REMARK  4 active torsions:
REMARK  status: ('A' for Active; 'I' for Inactive)
REMARK    1  A    between atoms: CA   and  CB  
REMARK    2  A    between atoms: CB   and  CG  
REMARK    3  A    between atoms: CG   and  CD  
REMARK    4  A    between atoms: CD   and  NE  
REMARK       I    between atoms: NE   and  CZ  
REMARK       I    between atoms: CZ   and  NH1 
REMARK       I    between atoms: CZ   and  NH2 
ROOT
ATOM      1  CA  ARG D 557     -26.217   2.705 -17.014  1.00 35.49     0.159 C 
ENDROOT
BRANCH   1   2
ATOM      2  CB  ARG D 557     -26.789   1.319 -17.183  1.00 35.49     0.034 C 
BRANCH   2   3
ATOM      3  CG  ARG D 557     -25.860   0.195 -17.010  1.00 35.49     0.027 C 
BRANCH   3   4
ATOM      4  CD  ARG D 557     -26.132  -0.577 -15.776  1.00 35.49     0.116 C 
BRANCH   4   5
ATOM      5  NE  ARG D 557     -24.949  -0.759 -14.978  1.00 35.49    -0.212 N 
ATOM      6  CZ  ARG D 557     -24.711  -1.774 -14.178  1.00 35.49     0.666 C 
ATOM      7  NH1 ARG D 557     -25.572  -2.760 -14.008  1.00 35.49    -0.235 N 
ATOM      8  NH2 ARG D 557     -23.573  -1.787 -13.547  1.00 35.49    -0.235 N 
ATOM      9  HH  ARG D 557     -26.325  -2.774 -14.415  1.00 35.49     0.174 HD
ATOM     10  HH  ARG D 557     -25.361  -3.398 -13.475  1.00 35.49     0.174 HD
ATOM     11  HH  ARG D 557     -23.033  -1.140 -13.682  1.00 35.49     0.174 HD
ATOM     12  HH  ARG D 557     -23.382  -2.427 -13.025  1.00 35.49     0.174 HD
ATOM     13  HE  ARG D 557     -24.372  -0.134 -14.971  1.00 35.49     0.178 HD
ENDBRANCH   4   5
ENDBRANCH   3   4
ENDBRANCH   2   3
ENDBRANCH   1   2
END_RES ARG D 557
BEGIN_RES GLU D 570
REMARK  3 active torsions:
REMARK  status: ('A' for Active; 'I' for Inactive)
REMARK    5  A    between atoms: CA   and  CB  
REMARK    6  A    between atoms: CB   and  CG  
REMARK    7  A    between atoms: CG   and  CD  
ROOT
ATOM     14  CA  GLU D 570     -18.033  -6.348 -13.375  1.00 32.92     0.160 C 
ENDROOT
BRANCH  14  15
ATOM     15  CB  GLU D 570     -19.500  -6.345 -13.794  1.00 32.92     0.043 C 
BRANCH  15  16
ATOM     16  CG  GLU D 570     -20.078  -7.628 -14.271  1.00 32.92     0.100 C 
BRANCH  16  17
ATOM     17  CD  GLU D 570     -20.772  -7.501 -15.607  1.00 32.92     0.185 C 
ATOM     18  OE1 GLU D 570     -21.202  -8.528 -16.166  1.00 32.92    -0.647 OA
ATOM     19  OE2 GLU D 570     -20.871  -6.364 -16.109  1.00 32.92    -0.647 OA
ENDBRANCH  16  17
ENDBRANCH  15  16
ENDBRANCH  14  15
END_RES GLU D 570
ENDMDL
