MODEL 1
REMARK VINA RESULT:      -7.8      0.000      0.000
REMARK  15 active torsions:
REMARK  status: ('A' for Active; 'I' for Inactive)
REMARK    1  A    between atoms: C_2  and  C_3 
REMARK    2  A    between atoms: C_3  and  C_4 
REMARK    3  A    between atoms: C_4  and  C_5 
REMARK    4  A    between atoms: C_5  and  C_6 
REMARK    5  A    between atoms: C_6  and  C_7 
REMARK    6  A    between atoms: C_7  and  C_8 
REMARK    7  A    between atoms: C_8  and  C_9 
REMARK    8  A    between atoms: C_9  and  C_10 
REMARK    9  A    between atoms: C_10  and  C_11 
REMARK   10  A    between atoms: C_11  and  C_12 
REMARK   11  A    between atoms: C_12  and  C_13 
REMARK   12  A    between atoms: C_13  and  C_14 
REMARK   13  A    between atoms: C_14  and  O_15 
REMARK   14  A    between atoms: O_15  and  C_16 
REMARK   15  A    between atoms: C_16  and  C_18 
ROOT
HETATM    1  C   UNL     1     -20.590  -5.216  -7.910  1.00  0.00     0.002 C 
ENDROOT
BRANCH   1   2
HETATM    2  C   UNL     1     -20.787  -4.434  -6.614  1.00  0.00     0.000 C 
BRANCH   2   3
HETATM    3  C   UNL     1     -20.701  -5.348  -5.398  1.00  0.00     0.000 C 
BRANCH   3   4
HETATM    4  C   UNL     1     -21.979  -6.140  -5.226  1.00  0.00     0.000 C 
BRANCH   4   5
HETATM    5  C   UNL     1     -21.707  -7.364  -4.369  1.00  0.00     0.000 C 
BRANCH   5   6
HETATM    6  C   UNL     1     -21.126  -6.936  -3.036  1.00  0.00     0.000 C 
BRANCH   6   7
HETATM    7  C   UNL     1     -22.184  -6.222  -2.215  1.00  0.00     0.000 C 
BRANCH   7   8
HETATM    8  C   UNL     1     -22.320  -6.890  -0.860  1.00  0.00     0.000 C 
BRANCH   8   9
HETATM    9  C   UNL     1     -21.293  -8.002  -0.725  1.00  0.00     0.000 C 
BRANCH   9  10
HETATM   10  C   UNL     1     -21.794  -9.058   0.244  1.00  0.00    -0.000 C 
BRANCH  10  11
HETATM   11  C   UNL     1     -23.309  -9.185   0.156  1.00  0.00    -0.005 C 
HETATM   12  C   UNL     1     -23.696 -10.588  -0.276  1.00  0.00     0.005 C 
ENDBRANCH  10  11
ENDBRANCH   9  10
ENDBRANCH   8   9
ENDBRANCH   7   8
ENDBRANCH   6   7
ENDBRANCH   5   6
ENDBRANCH   4   5
ENDBRANCH   3   4
ENDBRANCH   2   3
ENDBRANCH   1   2
BRANCH   1  13
HETATM   13  C   UNL     1     -21.219  -4.490  -9.100  1.00  0.00     0.027 C 
BRANCH  13  14
HETATM   14  C   UNL     1     -22.583  -3.905  -8.770  1.00  0.00     0.179 C 
BRANCH  14  15
HETATM   15  O   UNL     1     -23.617  -4.604  -9.500  1.00  0.00    -0.317 OA
BRANCH  15  16
HETATM   16  C   UNL     1     -24.208  -3.863 -10.477  1.00  0.00     0.294 C 
HETATM   17  O   UNL     1     -25.158  -3.111 -10.298  1.00  0.00    -0.259 OA
BRANCH  16  18
HETATM   18  C   UNL     1     -23.604  -4.051 -11.813  1.00  0.00     0.054 A 
HETATM   19  C   UNL     1     -23.093  -2.921 -12.448  1.00  0.00     0.105 A 
HETATM   20  N   UNL     1     -22.581  -2.912 -13.704  1.00  0.00    -0.374 N 
HETATM   21  C   UNL     1     -22.576  -4.089 -14.361  1.00  0.00     0.087 A 
ATOM     22  HN  UNL     1     -22.218  -2.059 -14.129  1.00  0.00     0.164 HD
HETATM   23  C   UNL     1     -23.032  -5.280 -13.807  1.00  0.00     0.018 A 
HETATM   24  C   UNL     1     -23.547  -5.260 -12.507  1.00  0.00     0.020 A 
ENDBRANCH  16  18
ENDBRANCH  15  16
ENDBRANCH  14  15
ENDBRANCH  13  14
ENDBRANCH   1  13
TORSDOF 15
BEGIN_RES ARG D 557
REMARK  4 active torsions:
REMARK  status: ('A' for Active; 'I' for Inactive)
REMARK    1  A    between atoms: CA   and  CB  
REMARK    2  A    between atoms: CB   and  CG  
REMARK    3  A    between atoms: CG   and  CD  
REMARK    4  A    between atoms: CD   and  NE  
REMARK       I    between atoms: NE   and  CZ  
REMARK       I    between atoms: CZ   and  NH1 
REMARK       I    between atoms: CZ   and  NH2 
ROOT
ATOM      1  CA  ARG D 557     -26.217   2.705 -17.014  1.00 35.49     0.159 C 
ENDROOT
BRANCH   1   2
ATOM      2  CB  ARG D 557     -26.789   1.319 -17.183  1.00 35.49     0.034 C 
BRANCH   2   3
ATOM      3  CG  ARG D 557     -28.194   1.133 -16.800  1.00 35.49     0.027 C 
BRANCH   3   4
ATOM      4  CD  ARG D 557     -28.578  -0.296 -16.743  1.00 35.49     0.116 C 
BRANCH   4   5
ATOM      5  NE  ARG D 557     -27.602  -1.094 -16.050  1.00 35.49    -0.212 N 
ATOM      6  CZ  ARG D 557     -27.477  -2.399 -16.134  1.00 35.49     0.666 C 
ATOM      7  NH1 ARG D 557     -28.274  -3.142 -16.879  1.00 35.49    -0.235 N 
ATOM      8  NH2 ARG D 557     -26.519  -2.956 -15.450  1.00 35.49    -0.235 N 
ATOM      9  HH  ARG D 557     -28.909  -2.796 -17.339  1.00 35.49     0.174 HD
ATOM     10  HH  ARG D 557     -28.143  -3.988 -16.897  1.00 35.49     0.174 HD
ATOM     11  HH  ARG D 557     -26.015  -2.451 -14.983  1.00 35.49     0.174 HD
ATOM     12  HH  ARG D 557     -26.404  -3.795 -15.482  1.00 35.49     0.174 HD
ATOM     13  HE  ARG D 557     -27.093  -0.705 -15.490  1.00 35.49     0.178 HD
ENDBRANCH   4   5
ENDBRANCH   3   4
ENDBRANCH   2   3
ENDBRANCH   1   2
END_RES ARG D 557
BEGIN_RES GLU D 570
REMARK  3 active torsions:
REMARK  status: ('A' for Active; 'I' for Inactive)
REMARK    5  A    between atoms: CA   and  CB  
REMARK    6  A    between atoms: CB   and  CG  
REMARK    7  A    between atoms: CG   and  CD  
ROOT
ATOM     14  CA  GLU D 570     -18.033  -6.348 -13.375  1.00 32.92     0.160 C 
ENDROOT
BRANCH  14  15
ATOM     15  CB  GLU D 570     -19.500  -6.345 -13.794  1.00 32.92     0.043 C 
BRANCH  15  16
ATOM     16  CG  GLU D 570     -20.099  -7.643 -14.198  1.00 32.92     0.100 C 
BRANCH  16  17
ATOM     17  CD  GLU D 570     -20.666  -7.621 -15.598  1.00 32.92     0.185 C 
ATOM     18  OE1 GLU D 570     -21.135  -8.670 -16.078  1.00 32.92    -0.647 OA
ATOM     19  OE2 GLU D 570     -20.624  -6.546 -16.228  1.00 32.92    -0.647 OA
ENDBRANCH  16  17
ENDBRANCH  15  16
ENDBRANCH  14  15
END_RES GLU D 570
ENDMDL
MODEL 2
REMARK VINA RESULT:      -7.6      2.289      4.023
REMARK  15 active torsions:
REMARK  status: ('A' for Active; 'I' for Inactive)
REMARK    1  A    between atoms: C_2  and  C_3 
REMARK    2  A    between atoms: C_3  and  C_4 
REMARK    3  A    between atoms: C_4  and  C_5 
REMARK    4  A    between atoms: C_5  and  C_6 
REMARK    5  A    between atoms: C_6  and  C_7 
REMARK    6  A    between atoms: C_7  and  C_8 
REMARK    7  A    between atoms: C_8  and  C_9 
REMARK    8  A    between atoms: C_9  and  C_10 
REMARK    9  A    between atoms: C_10  and  C_11 
REMARK   10  A    between atoms: C_11  and  C_12 
REMARK   11  A    between atoms: C_12  and  C_13 
REMARK   12  A    between atoms: C_13  and  C_14 
REMARK   13  A    between atoms: C_14  and  O_15 
REMARK   14  A    between atoms: O_15  and  C_16 
REMARK   15  A    between atoms: C_16  and  C_18 
ROOT
HETATM    1  C   UNL     1     -21.975  -7.139  -4.548  1.00  0.00     0.002 C 
ENDROOT
BRANCH   1   2
HETATM    2  C   UNL     1     -21.542  -7.928  -3.316  1.00  0.00     0.000 C 
BRANCH   2   3
HETATM    3  C   UNL     1     -21.162  -7.000  -2.168  1.00  0.00     0.000 C 
BRANCH   3   4
HETATM    4  C   UNL     1     -22.350  -6.740  -1.268  1.00  0.00     0.000 C 
BRANCH   4   5
HETATM    5  C   UNL     1     -22.561  -7.929  -0.347  1.00  0.00     0.000 C 
BRANCH   5   6
HETATM    6  C   UNL     1     -21.370  -8.074   0.580  1.00  0.00     0.000 C 
BRANCH   6   7
HETATM    7  C   UNL     1     -21.084  -9.544   0.830  1.00  0.00     0.000 C 
BRANCH   7   8
HETATM    8  C   UNL     1     -20.619 -10.202  -0.454  1.00  0.00     0.000 C 
BRANCH   8   9
HETATM    9  C   UNL     1     -21.425 -11.465  -0.710  1.00  0.00     0.000 C 
BRANCH   9  10
HETATM   10  C   UNL     1     -22.441 -11.221  -1.811  1.00  0.00    -0.000 C 
BRANCH  10  11
HETATM   11  C   UNL     1     -23.854 -11.237  -1.244  1.00  0.00    -0.005 C 
HETATM   12  C   UNL     1     -23.859 -11.860   0.141  1.00  0.00     0.005 C 
ENDBRANCH  10  11
ENDBRANCH   9  10
ENDBRANCH   8   9
ENDBRANCH   7   8
ENDBRANCH   6   7
ENDBRANCH   5   6
ENDBRANCH   4   5
ENDBRANCH   3   4
ENDBRANCH   2   3
ENDBRANCH   1   2
BRANCH   1  13
HETATM   13  C   UNL     1     -20.966  -6.042  -4.890  1.00  0.00     0.027 C 
BRANCH  13  14
HETATM   14  C   UNL     1     -20.087  -6.408  -6.075  1.00  0.00     0.179 C 
BRANCH  14  15
HETATM   15  O   UNL     1     -20.838  -6.298  -7.307  1.00  0.00    -0.317 OA
BRANCH  15  16
HETATM   16  C   UNL     1     -20.554  -5.182  -8.033  1.00  0.00     0.294 C 
HETATM   17  O   UNL     1     -19.429  -4.728  -8.197  1.00  0.00    -0.259 OA
BRANCH  16  18
HETATM   18  C   UNL     1     -21.748  -4.535  -8.618  1.00  0.00     0.054 A 
HETATM   19  C   UNL     1     -22.869  -4.404  -7.802  1.00  0.00     0.105 A 
HETATM   20  N   UNL     1     -24.063  -3.907  -8.210  1.00  0.00    -0.374 N 
HETATM   21  C   UNL     1     -24.146  -3.522  -9.500  1.00  0.00     0.087 A 
ATOM     22  HN  UNL     1     -24.858  -3.830  -7.576  1.00  0.00     0.164 HD
HETATM   23  C   UNL     1     -23.079  -3.582 -10.389  1.00  0.00     0.018 A 
HETATM   24  C   UNL     1     -21.857  -4.091  -9.936  1.00  0.00     0.020 A 
ENDBRANCH  16  18
ENDBRANCH  15  16
ENDBRANCH  14  15
ENDBRANCH  13  14
ENDBRANCH   1  13
TORSDOF 15
BEGIN_RES ARG D 557
REMARK  4 active torsions:
REMARK  status: ('A' for Active; 'I' for Inactive)
REMARK    1  A    between atoms: CA   and  CB  
REMARK    2  A    between atoms: CB   and  CG  
REMARK    3  A    between atoms: CG   and  CD  
REMARK    4  A    between atoms: CD   and  NE  
REMARK       I    between atoms: NE   and  CZ  
REMARK       I    between atoms: CZ   and  NH1 
REMARK       I    between atoms: CZ   and  NH2 
ROOT
ATOM      1  CA  ARG D 557     -26.217   2.705 -17.014  1.00 35.49     0.159 C 
ENDROOT
BRANCH   1   2
ATOM      2  CB  ARG D 557     -26.789   1.319 -17.183  1.00 35.49     0.034 C 
BRANCH   2   3
ATOM      3  CG  ARG D 557     -25.835   0.203 -17.158  1.00 35.49     0.027 C 
BRANCH   3   4
ATOM      4  CD  ARG D 557     -24.750   0.410 -16.172  1.00 35.49     0.116 C 
BRANCH   4   5
ATOM      5  NE  ARG D 557     -24.898  -0.436 -15.017  1.00 35.49    -0.212 N 
ATOM      6  CZ  ARG D 557     -24.087  -1.410 -14.669  1.00 35.49     0.666 C 
ATOM      7  NH1 ARG D 557     -23.021  -1.732 -15.379  1.00 35.49    -0.235 N 
ATOM      8  NH2 ARG D 557     -24.364  -2.060 -13.577  1.00 35.49    -0.235 N 
ATOM      9  HH  ARG D 557     -22.819  -1.316 -16.100  1.00 35.49     0.174 HD
ATOM     10  HH  ARG D 557     -22.527  -2.375 -15.101  1.00 35.49     0.174 HD
ATOM     11  HH  ARG D 557     -25.055  -1.825 -13.135  1.00 35.49     0.174 HD
ATOM     12  HH  ARG D 557     -23.862  -2.693 -13.318  1.00 35.49     0.174 HD
ATOM     13  HE  ARG D 557     -25.598  -0.345 -14.543  1.00 35.49     0.178 HD
ENDBRANCH   4   5
ENDBRANCH   3   4
ENDBRANCH   2   3
ENDBRANCH   1   2
END_RES ARG D 557
BEGIN_RES GLU D 570
REMARK  3 active torsions:
REMARK  status: ('A' for Active; 'I' for Inactive)
REMARK    5  A    between atoms: CA   and  CB  
REMARK    6  A    between atoms: CB   and  CG  
REMARK    7  A    between atoms: CG   and  CD  
ROOT
ATOM     14  CA  GLU D 570     -18.033  -6.348 -13.375  1.00 32.92     0.160 C 
ENDROOT
BRANCH  14  15
ATOM     15  CB  GLU D 570     -19.500  -6.345 -13.794  1.00 32.92     0.043 C 
BRANCH  15  16
ATOM     16  CG  GLU D 570     -20.418  -5.432 -13.066  1.00 32.92     0.100 C 
BRANCH  16  17
ATOM     17  CD  GLU D 570     -21.750  -5.259 -13.759  1.00 32.92     0.185 C 
ATOM     18  OE1 GLU D 570     -22.206  -6.199 -14.436  1.00 32.92    -0.647 OA
ATOM     19  OE2 GLU D 570     -22.334  -4.164 -13.636  1.00 32.92    -0.647 OA
ENDBRANCH  16  17
ENDBRANCH  15  16
ENDBRANCH  14  15
END_RES GLU D 570
ENDMDL
MODEL 3
REMARK VINA RESULT:      -7.4      2.151      3.869
REMARK  15 active torsions:
REMARK  status: ('A' for Active; 'I' for Inactive)
REMARK    1  A    between atoms: C_2  and  C_3 
REMARK    2  A    between atoms: C_3  and  C_4 
REMARK    3  A    between atoms: C_4  and  C_5 
REMARK    4  A    between atoms: C_5  and  C_6 
REMARK    5  A    between atoms: C_6  and  C_7 
REMARK    6  A    between atoms: C_7  and  C_8 
REMARK    7  A    between atoms: C_8  and  C_9 
REMARK    8  A    between atoms: C_9  and  C_10 
REMARK    9  A    between atoms: C_10  and  C_11 
REMARK   10  A    between atoms: C_11  and  C_12 
REMARK   11  A    between atoms: C_12  and  C_13 
REMARK   12  A    between atoms: C_13  and  C_14 
REMARK   13  A    between atoms: C_14  and  O_15 
REMARK   14  A    between atoms: O_15  and  C_16 
REMARK   15  A    between atoms: C_16  and  C_18 
ROOT
HETATM    1  C   UNL     1     -21.969  -6.638  -4.667  1.00  0.00     0.002 C 
ENDROOT
BRANCH   1   2
HETATM    2  C   UNL     1     -21.689  -7.215  -3.282  1.00  0.00     0.000 C 
BRANCH   2   3
HETATM    3  C   UNL     1     -22.038  -6.217  -2.185  1.00  0.00     0.000 C 
BRANCH   3   4
HETATM    4  C   UNL     1     -22.292  -6.923  -0.872  1.00  0.00     0.000 C 
BRANCH   4   5
HETATM    5  C   UNL     1     -21.251  -8.010  -0.669  1.00  0.00     0.000 C 
BRANCH   5   6
HETATM    6  C   UNL     1     -21.798  -9.074   0.262  1.00  0.00     0.000 C 
BRANCH   6   7
HETATM    7  C   UNL     1     -23.306  -8.939   0.375  1.00  0.00     0.000 C 
BRANCH   7   8
HETATM    8  C   UNL     1     -23.969 -10.252   0.006  1.00  0.00     0.000 C 
BRANCH   8   9
HETATM    9  C   UNL     1     -22.924 -11.351  -0.089  1.00  0.00     0.000 C 
BRANCH   9  10
HETATM   10  C   UNL     1     -23.520 -12.676   0.351  1.00  0.00    -0.000 C 
BRANCH  10  11
HETATM   11  C   UNL     1     -22.675 -13.300   1.454  1.00  0.00    -0.005 C 
HETATM   12  C   UNL     1     -23.545 -14.135   2.376  1.00  0.00     0.005 C 
ENDBRANCH  10  11
ENDBRANCH   9  10
ENDBRANCH   8   9
ENDBRANCH   7   8
ENDBRANCH   6   7
ENDBRANCH   5   6
ENDBRANCH   4   5
ENDBRANCH   3   4
ENDBRANCH   2   3
ENDBRANCH   1   2
BRANCH   1  13
HETATM   13  C   UNL     1     -20.845  -5.706  -5.120  1.00  0.00     0.027 C 
BRANCH  13  14
HETATM   14  C   UNL     1     -20.031  -6.289  -6.264  1.00  0.00     0.179 C 
BRANCH  14  15
HETATM   15  O   UNL     1     -20.746  -6.142  -7.513  1.00  0.00    -0.317 OA
BRANCH  15  16
HETATM   16  C   UNL     1     -20.541  -4.949  -8.135  1.00  0.00     0.294 C 
HETATM   17  O   UNL     1     -19.457  -4.384  -8.213  1.00  0.00    -0.259 OA
BRANCH  16  18
HETATM   18  C   UNL     1     -21.768  -4.364  -8.718  1.00  0.00     0.054 A 
HETATM   19  C   UNL     1     -22.910  -4.347  -7.919  1.00  0.00     0.105 A 
HETATM   20  N   UNL     1     -24.129  -3.920  -8.332  1.00  0.00    -0.374 N 
HETATM   21  C   UNL     1     -24.216  -3.488  -9.606  1.00  0.00     0.087 A 
ATOM     22  HN  UNL     1     -24.938  -3.925  -7.711  1.00  0.00     0.164 HD
HETATM   23  C   UNL     1     -23.132  -3.435 -10.475  1.00  0.00     0.018 A 
HETATM   24  C   UNL     1     -21.885  -3.874 -10.018  1.00  0.00     0.020 A 
ENDBRANCH  16  18
ENDBRANCH  15  16
ENDBRANCH  14  15
ENDBRANCH  13  14
ENDBRANCH   1  13
TORSDOF 15
BEGIN_RES ARG D 557
REMARK  4 active torsions:
REMARK  status: ('A' for Active; 'I' for Inactive)
REMARK    1  A    between atoms: CA   and  CB  
REMARK    2  A    between atoms: CB   and  CG  
REMARK    3  A    between atoms: CG   and  CD  
REMARK    4  A    between atoms: CD   and  NE  
REMARK       I    between atoms: NE   and  CZ  
REMARK       I    between atoms: CZ   and  NH1 
REMARK       I    between atoms: CZ   and  NH2 
ROOT
ATOM      1  CA  ARG D 557     -26.217   2.705 -17.014  1.00 35.49     0.159 C 
ENDROOT
BRANCH   1   2
ATOM      2  CB  ARG D 557     -26.789   1.319 -17.183  1.00 35.49     0.034 C 
BRANCH   2   3
ATOM      3  CG  ARG D 557     -28.232   1.168 -16.959  1.00 35.49     0.027 C 
BRANCH   3   4
ATOM      4  CD  ARG D 557     -28.560  -0.066 -16.209  1.00 35.49     0.116 C 
BRANCH   4   5
ATOM      5  NE  ARG D 557     -29.347  -0.983 -16.991  1.00 35.49    -0.212 N 
ATOM      6  CZ  ARG D 557     -29.098  -2.263 -17.153  1.00 35.49     0.666 C 
ATOM      7  NH1 ARG D 557     -28.054  -2.858 -16.607  1.00 35.49    -0.235 N 
ATOM      8  NH2 ARG D 557     -29.932  -2.949 -17.880  1.00 35.49    -0.235 N 
ATOM      9  HH  ARG D 557     -27.494  -2.426 -16.123  1.00 35.49     0.174 HD
ATOM     10  HH  ARG D 557     -27.944  -3.696 -16.745  1.00 35.49     0.174 HD
ATOM     11  HH  ARG D 557     -30.602  -2.540 -18.214  1.00 35.49     0.174 HD
ATOM     12  HH  ARG D 557     -29.807  -3.778 -18.004  1.00 35.49     0.174 HD
ATOM     13  HE  ARG D 557     -29.999  -0.669 -17.438  1.00 35.49     0.178 HD
ENDBRANCH   4   5
ENDBRANCH   3   4
ENDBRANCH   2   3
ENDBRANCH   1   2
END_RES ARG D 557
BEGIN_RES GLU D 570
REMARK  3 active torsions:
REMARK  status: ('A' for Active; 'I' for Inactive)
REMARK    5  A    between atoms: CA   and  CB  
REMARK    6  A    between atoms: CB   and  CG  
REMARK    7  A    between atoms: CG   and  CD  
ROOT
ATOM     14  CA  GLU D 570     -18.033  -6.348 -13.375  1.00 32.92     0.160 C 
ENDROOT
BRANCH  14  15
ATOM     15  CB  GLU D 570     -19.500  -6.345 -13.794  1.00 32.92     0.043 C 
BRANCH  15  16
ATOM     16  CG  GLU D 570     -20.427  -5.468 -13.033  1.00 32.92     0.100 C 
BRANCH  16  17
ATOM     17  CD  GLU D 570     -21.707  -5.174 -13.781  1.00 32.92     0.185 C 
ATOM     18  OE1 GLU D 570     -22.798  -5.345 -13.204  1.00 32.92    -0.647 OA
ATOM     19  OE2 GLU D 570     -21.618  -4.785 -14.962  1.00 32.92    -0.647 OA
ENDBRANCH  16  17
ENDBRANCH  15  16
ENDBRANCH  14  15
END_RES GLU D 570
ENDMDL
MODEL 4
REMARK VINA RESULT:      -7.3      1.760      2.878
REMARK  15 active torsions:
REMARK  status: ('A' for Active; 'I' for Inactive)
REMARK    1  A    between atoms: C_2  and  C_3 
REMARK    2  A    between atoms: C_3  and  C_4 
REMARK    3  A    between atoms: C_4  and  C_5 
REMARK    4  A    between atoms: C_5  and  C_6 
REMARK    5  A    between atoms: C_6  and  C_7 
REMARK    6  A    between atoms: C_7  and  C_8 
REMARK    7  A    between atoms: C_8  and  C_9 
REMARK    8  A    between atoms: C_9  and  C_10 
REMARK    9  A    between atoms: C_10  and  C_11 
REMARK   10  A    between atoms: C_11  and  C_12 
REMARK   11  A    between atoms: C_12  and  C_13 
REMARK   12  A    between atoms: C_13  and  C_14 
REMARK   13  A    between atoms: C_14  and  O_15 
REMARK   14  A    between atoms: O_15  and  C_16 
REMARK   15  A    between atoms: C_16  and  C_18 
ROOT
HETATM    1  C   UNL     1     -20.369  -6.812  -5.944  1.00  0.00     0.002 C 
ENDROOT
BRANCH   1   2
HETATM    2  C   UNL     1     -21.178  -7.428  -4.806  1.00  0.00     0.000 C 
BRANCH   2   3
HETATM    3  C   UNL     1     -22.082  -6.394  -4.147  1.00  0.00     0.000 C 
BRANCH   3   4
HETATM    4  C   UNL     1     -21.861  -6.359  -2.650  1.00  0.00     0.000 C 
BRANCH   4   5
HETATM    5  C   UNL     1     -20.820  -7.396  -2.265  1.00  0.00     0.000 C 
BRANCH   5   6
HETATM    6  C   UNL     1     -21.151  -7.969  -0.901  1.00  0.00     0.000 C 
BRANCH   6   7
HETATM    7  C   UNL     1     -22.405  -7.312  -0.353  1.00  0.00     0.000 C 
BRANCH   7   8
HETATM    8  C   UNL     1     -23.223  -8.330   0.417  1.00  0.00     0.000 C 
BRANCH   8   9
HETATM    9  C   UNL     1     -22.819  -9.737   0.008  1.00  0.00     0.000 C 
BRANCH   9  10
HETATM   10  C   UNL     1     -24.032 -10.649   0.011  1.00  0.00    -0.000 C 
BRANCH  10  11
HETATM   11  C   UNL     1     -24.024 -11.547  -1.220  1.00  0.00    -0.005 C 
HETATM   12  C   UNL     1     -23.006 -11.048  -2.230  1.00  0.00     0.005 C 
ENDBRANCH  10  11
ENDBRANCH   9  10
ENDBRANCH   8   9
ENDBRANCH   7   8
ENDBRANCH   6   7
ENDBRANCH   5   6
ENDBRANCH   4   5
ENDBRANCH   3   4
ENDBRANCH   2   3
ENDBRANCH   1   2
BRANCH   1  13
HETATM   13  C   UNL     1     -20.184  -5.307  -5.745  1.00  0.00     0.027 C 
BRANCH  13  14
HETATM   14  C   UNL     1     -19.984  -4.565  -7.057  1.00  0.00     0.179 C 
BRANCH  14  15
HETATM   15  O   UNL     1     -21.036  -3.591  -7.246  1.00  0.00    -0.317 OA
BRANCH  15  16
HETATM   16  C   UNL     1     -22.176  -4.101  -7.789  1.00  0.00     0.294 C 
HETATM   17  O   UNL     1     -23.142  -4.482  -7.140  1.00  0.00    -0.259 OA
BRANCH  16  18
HETATM   18  C   UNL     1     -22.152  -4.170  -9.265  1.00  0.00     0.054 A 
HETATM   19  C   UNL     1     -23.298  -4.642  -9.901  1.00  0.00     0.105 A 
HETATM   20  N   UNL     1     -23.408  -4.840 -11.239  1.00  0.00    -0.374 N 
HETATM   21  C   UNL     1     -22.319  -4.553 -11.981  1.00  0.00     0.087 A 
ATOM     22  HN  UNL     1     -24.269  -5.188 -11.661  1.00  0.00     0.164 HD
HETATM   23  C   UNL     1     -21.139  -4.048 -11.449  1.00  0.00     0.018 A 
HETATM   24  C   UNL     1     -21.058  -3.846 -10.068  1.00  0.00     0.020 A 
ENDBRANCH  16  18
ENDBRANCH  15  16
ENDBRANCH  14  15
ENDBRANCH  13  14
ENDBRANCH   1  13
TORSDOF 15
BEGIN_RES ARG D 557
REMARK  4 active torsions:
REMARK  status: ('A' for Active; 'I' for Inactive)
REMARK    1  A    between atoms: CA   and  CB  
REMARK    2  A    between atoms: CB   and  CG  
REMARK    3  A    between atoms: CG   and  CD  
REMARK    4  A    between atoms: CD   and  NE  
REMARK       I    between atoms: NE   and  CZ  
REMARK       I    between atoms: CZ   and  NH1 
REMARK       I    between atoms: CZ   and  NH2 
ROOT
ATOM      1  CA  ARG D 557     -26.217   2.705 -17.014  1.00 35.49     0.159 C 
ENDROOT
BRANCH   1   2
ATOM      2  CB  ARG D 557     -26.789   1.319 -17.183  1.00 35.49     0.034 C 
BRANCH   2   3
ATOM      3  CG  ARG D 557     -25.861   0.195 -17.006  1.00 35.49     0.027 C 
BRANCH   3   4
ATOM      4  CD  ARG D 557     -26.299  -0.735 -15.940  1.00 35.49     0.116 C 
BRANCH   4   5
ATOM      5  NE  ARG D 557     -25.284  -0.930 -14.939  1.00 35.49    -0.212 N 
ATOM      6  CZ  ARG D 557     -25.009  -2.064 -14.334  1.00 35.49     0.666 C 
ATOM      7  NH1 ARG D 557     -25.671  -3.179 -14.583  1.00 35.49    -0.235 N 
ATOM      8  NH2 ARG D 557     -24.039  -2.062 -13.467  1.00 35.49    -0.235 N 
ATOM      9  HH  ARG D 557     -26.311  -3.204 -15.152  1.00 35.49     0.174 HD
ATOM     10  HH  ARG D 557     -25.445  -3.889 -14.160  1.00 35.49     0.174 HD
ATOM     11  HH  ARG D 557     -23.624  -1.329 -13.332  1.00 35.49     0.174 HD
ATOM     12  HH  ARG D 557     -23.830  -2.775 -13.059  1.00 35.49     0.174 HD
ATOM     13  HE  ARG D 557     -24.857  -0.247 -14.665  1.00 35.49     0.178 HD
ENDBRANCH   4   5
ENDBRANCH   3   4
ENDBRANCH   2   3
ENDBRANCH   1   2
END_RES ARG D 557
BEGIN_RES GLU D 570
REMARK  3 active torsions:
REMARK  status: ('A' for Active; 'I' for Inactive)
REMARK    5  A    between atoms: CA   and  CB  
REMARK    6  A    between atoms: CB   and  CG  
REMARK    7  A    between atoms: CG   and  CD  
ROOT
ATOM     14  CA  GLU D 570     -18.033  -6.348 -13.375  1.00 32.92     0.160 C 
ENDROOT
BRANCH  14  15
ATOM     15  CB  GLU D 570     -19.500  -6.345 -13.794  1.00 32.92     0.043 C 
BRANCH  15  16
ATOM     16  CG  GLU D 570     -19.797  -6.448 -15.246  1.00 32.92     0.100 C 
BRANCH  16  17
ATOM     17  CD  GLU D 570     -21.192  -5.984 -15.596  1.00 32.92     0.185 C 
ATOM     18  OE1 GLU D 570     -21.482  -4.780 -15.456  1.00 32.92    -0.647 OA
ATOM     19  OE2 GLU D 570     -22.008  -6.836 -15.999  1.00 32.92    -0.647 OA
ENDBRANCH  16  17
ENDBRANCH  15  16
ENDBRANCH  14  15
END_RES GLU D 570
ENDMDL
MODEL 5
REMARK VINA RESULT:      -7.3      2.356      4.373
REMARK  15 active torsions:
REMARK  status: ('A' for Active; 'I' for Inactive)
REMARK    1  A    between atoms: C_2  and  C_3 
REMARK    2  A    between atoms: C_3  and  C_4 
REMARK    3  A    between atoms: C_4  and  C_5 
REMARK    4  A    between atoms: C_5  and  C_6 
REMARK    5  A    between atoms: C_6  and  C_7 
REMARK    6  A    between atoms: C_7  and  C_8 
REMARK    7  A    between atoms: C_8  and  C_9 
REMARK    8  A    between atoms: C_9  and  C_10 
REMARK    9  A    between atoms: C_10  and  C_11 
REMARK   10  A    between atoms: C_11  and  C_12 
REMARK   11  A    between atoms: C_12  and  C_13 
REMARK   12  A    between atoms: C_13  and  C_14 
REMARK   13  A    between atoms: C_14  and  O_15 
REMARK   14  A    between atoms: O_15  and  C_16 
REMARK   15  A    between atoms: C_16  and  C_18 
ROOT
HETATM    1  C   UNL     1     -21.347  -6.139  -2.951  1.00  0.00     0.002 C 
ENDROOT
BRANCH   1   2
HETATM    2  C   UNL     1     -22.299  -6.375  -1.782  1.00  0.00     0.000 C 
BRANCH   2   3
HETATM    3  C   UNL     1     -21.904  -7.614  -0.988  1.00  0.00     0.000 C 
BRANCH   3   4
HETATM    4  C   UNL     1     -22.721  -7.726   0.281  1.00  0.00     0.000 C 
BRANCH   4   5
HETATM    5  C   UNL     1     -23.428  -9.069   0.315  1.00  0.00     0.000 C 
BRANCH   5   6
HETATM    6  C   UNL     1     -22.710 -10.047  -0.594  1.00  0.00     0.000 C 
BRANCH   6   7
HETATM    7  C   UNL     1     -21.912 -11.036   0.236  1.00  0.00     0.000 C 
BRANCH   7   8
HETATM    8  C   UNL     1     -20.455 -11.000  -0.180  1.00  0.00     0.000 C 
BRANCH   8   9
HETATM    9  C   UNL     1     -20.348 -11.033  -1.695  1.00  0.00     0.000 C 
BRANCH   9  10
HETATM   10  C   UNL     1     -19.357  -9.985  -2.170  1.00  0.00    -0.000 C 
BRANCH  10  11
HETATM   11  C   UNL     1     -19.744  -9.475  -3.553  1.00  0.00    -0.005 C 
HETATM   12  C   UNL     1     -21.137  -9.954  -3.919  1.00  0.00     0.005 C 
ENDBRANCH  10  11
ENDBRANCH   9  10
ENDBRANCH   8   9
ENDBRANCH   7   8
ENDBRANCH   6   7
ENDBRANCH   5   6
ENDBRANCH   4   5
ENDBRANCH   3   4
ENDBRANCH   2   3
ENDBRANCH   1   2
BRANCH   1  13
HETATM   13  C   UNL     1     -22.018  -6.457  -4.288  1.00  0.00     0.027 C 
BRANCH  13  14
HETATM   14  C   UNL     1     -21.032  -6.474  -5.446  1.00  0.00     0.179 C 
BRANCH  14  15
HETATM   15  O   UNL     1     -21.092  -5.225  -6.172  1.00  0.00    -0.317 OA
BRANCH  15  16
HETATM   16  C   UNL     1     -20.874  -5.348  -7.510  1.00  0.00     0.294 C 
HETATM   17  O   UNL     1     -19.943  -5.969  -8.008  1.00  0.00    -0.259 OA
BRANCH  16  18
HETATM   18  C   UNL     1     -21.873  -4.644  -8.342  1.00  0.00     0.054 A 
HETATM   19  C   UNL     1     -23.112  -4.375  -7.763  1.00  0.00     0.105 A 
HETATM   20  N   UNL     1     -24.158  -3.810  -8.415  1.00  0.00    -0.374 N 
HETATM   21  C   UNL     1     -23.962  -3.497  -9.711  1.00  0.00     0.087 A 
ATOM     22  HN  UNL     1     -25.048  -3.632  -7.949  1.00  0.00     0.164 HD
HETATM   23  C   UNL     1     -22.756  -3.695 -10.375  1.00  0.00     0.018 A 
HETATM   24  C   UNL     1     -21.692  -4.271  -9.674  1.00  0.00     0.020 A 
ENDBRANCH  16  18
ENDBRANCH  15  16
ENDBRANCH  14  15
ENDBRANCH  13  14
ENDBRANCH   1  13
TORSDOF 15
BEGIN_RES ARG D 557
REMARK  4 active torsions:
REMARK  status: ('A' for Active; 'I' for Inactive)
REMARK    1  A    between atoms: CA   and  CB  
REMARK    2  A    between atoms: CB   and  CG  
REMARK    3  A    between atoms: CG   and  CD  
REMARK    4  A    between atoms: CD   and  NE  
REMARK       I    between atoms: NE   and  CZ  
REMARK       I    between atoms: CZ   and  NH1 
REMARK       I    between atoms: CZ   and  NH2 
ROOT
ATOM      1  CA  ARG D 557     -26.217   2.705 -17.014  1.00 35.49     0.159 C 
ENDROOT
BRANCH   1   2
ATOM      2  CB  ARG D 557     -26.789   1.319 -17.183  1.00 35.49     0.034 C 
BRANCH   2   3
ATOM      3  CG  ARG D 557     -25.873   0.194 -16.959  1.00 35.49     0.027 C 
BRANCH   3   4
ATOM      4  CD  ARG D 557     -26.373  -0.744 -15.928  1.00 35.49     0.116 C 
BRANCH   4   5
ATOM      5  NE  ARG D 557     -25.413  -0.958 -14.878  1.00 35.49    -0.212 N 
ATOM      6  CZ  ARG D 557     -25.113  -2.117 -14.335  1.00 35.49     0.666 C 
ATOM      7  NH1 ARG D 557     -25.695  -3.244 -14.703  1.00 35.49    -0.235 N 
ATOM      8  NH2 ARG D 557     -24.201  -2.127 -13.407  1.00 35.49    -0.235 N 
ATOM      9  HH  ARG D 557     -26.296  -3.260 -15.313  1.00 35.49     0.174 HD
ATOM     10  HH  ARG D 557     -25.457  -3.970 -14.315  1.00 35.49     0.174 HD
ATOM     11  HH  ARG D 557     -23.837  -1.386 -13.195  1.00 35.49     0.174 HD
ATOM     12  HH  ARG D 557     -23.978  -2.857 -13.036  1.00 35.49     0.174 HD
ATOM     13  HE  ARG D 557     -25.043  -0.276 -14.530  1.00 35.49     0.178 HD
ENDBRANCH   4   5
ENDBRANCH   3   4
ENDBRANCH   2   3
ENDBRANCH   1   2
END_RES ARG D 557
BEGIN_RES GLU D 570
REMARK  3 active torsions:
REMARK  status: ('A' for Active; 'I' for Inactive)
REMARK    5  A    between atoms: CA   and  CB  
REMARK    6  A    between atoms: CB   and  CG  
REMARK    7  A    between atoms: CG   and  CD  
ROOT
ATOM     14  CA  GLU D 570     -18.033  -6.348 -13.375  1.00 32.92     0.160 C 
ENDROOT
BRANCH  14  15
ATOM     15  CB  GLU D 570     -19.500  -6.345 -13.794  1.00 32.92     0.043 C 
BRANCH  15  16
ATOM     16  CG  GLU D 570     -20.439  -5.516 -12.995  1.00 32.92     0.100 C 
BRANCH  16  17
ATOM     17  CD  GLU D 570     -21.731  -5.223 -13.720  1.00 32.92     0.185 C 
ATOM     18  OE1 GLU D 570     -22.139  -4.047 -13.778  1.00 32.92    -0.647 OA
ATOM     19  OE2 GLU D 570     -22.350  -6.181 -14.223  1.00 32.92    -0.647 OA
ENDBRANCH  16  17
ENDBRANCH  15  16
ENDBRANCH  14  15
END_RES GLU D 570
ENDMDL
MODEL 6
REMARK VINA RESULT:      -7.1      1.510      2.684
REMARK  15 active torsions:
REMARK  status: ('A' for Active; 'I' for Inactive)
REMARK    1  A    between atoms: C_2  and  C_3 
REMARK    2  A    between atoms: C_3  and  C_4 
REMARK    3  A    between atoms: C_4  and  C_5 
REMARK    4  A    between atoms: C_5  and  C_6 
REMARK    5  A    between atoms: C_6  and  C_7 
REMARK    6  A    between atoms: C_7  and  C_8 
REMARK    7  A    between atoms: C_8  and  C_9 
REMARK    8  A    between atoms: C_9  and  C_10 
REMARK    9  A    between atoms: C_10  and  C_11 
REMARK   10  A    between atoms: C_11  and  C_12 
REMARK   11  A    between atoms: C_12  and  C_13 
REMARK   12  A    between atoms: C_13  and  C_14 
REMARK   13  A    between atoms: C_14  and  O_15 
REMARK   14  A    between atoms: O_15  and  C_16 
REMARK   15  A    between atoms: C_16  and  C_18 
ROOT
HETATM    1  C   UNL     1     -21.950  -6.624  -5.224  1.00  0.00     0.002 C 
ENDROOT
BRANCH   1   2
HETATM    2  C   UNL     1     -21.352  -7.131  -3.914  1.00  0.00     0.000 C 
BRANCH   2   3
HETATM    3  C   UNL     1     -21.305  -6.028  -2.864  1.00  0.00     0.000 C 
BRANCH   3   4
HETATM    4  C   UNL     1     -22.269  -6.315  -1.734  1.00  0.00     0.000 C 
BRANCH   4   5
HETATM    5  C   UNL     1     -21.976  -7.686  -1.152  1.00  0.00     0.000 C 
BRANCH   5   6
HETATM    6  C   UNL     1     -22.481  -7.753   0.276  1.00  0.00     0.000 C 
BRANCH   6   7
HETATM    7  C   UNL     1     -21.509  -8.543   1.134  1.00  0.00     0.000 C 
BRANCH   7   8
HETATM    8  C   UNL     1     -20.820  -9.598   0.291  1.00  0.00     0.000 C 
BRANCH   8   9
HETATM    9  C   UNL     1     -21.556 -10.922   0.417  1.00  0.00     0.000 C 
BRANCH   9  10
HETATM   10  C   UNL     1     -21.861 -11.481  -0.961  1.00  0.00    -0.000 C 
BRANCH  10  11
HETATM   11  C   UNL     1     -23.302 -11.175  -1.352  1.00  0.00    -0.005 C 
HETATM   12  C   UNL     1     -24.172 -11.068  -0.112  1.00  0.00     0.005 C 
ENDBRANCH  10  11
ENDBRANCH   9  10
ENDBRANCH   8   9
ENDBRANCH   7   8
ENDBRANCH   6   7
ENDBRANCH   5   6
ENDBRANCH   4   5
ENDBRANCH   3   4
ENDBRANCH   2   3
ENDBRANCH   1   2
BRANCH   1  13
HETATM   13  C   UNL     1     -20.861  -6.155  -6.189  1.00  0.00     0.027 C 
BRANCH  13  14
HETATM   14  C   UNL     1     -20.818  -4.641  -6.327  1.00  0.00     0.179 C 
BRANCH  14  15
HETATM   15  O   UNL     1     -20.907  -4.264  -7.720  1.00  0.00    -0.317 OA
BRANCH  15  16
HETATM   16  C   UNL     1     -22.173  -4.270  -8.219  1.00  0.00     0.294 C 
HETATM   17  O   UNL     1     -23.189  -4.255  -7.535  1.00  0.00    -0.259 OA
BRANCH  16  18
HETATM   18  C   UNL     1     -22.230  -4.308  -9.696  1.00  0.00     0.054 A 
HETATM   19  C   UNL     1     -21.107  -3.863 -10.390  1.00  0.00     0.105 A 
HETATM   20  N   UNL     1     -21.030  -3.759 -11.740  1.00  0.00    -0.374 N 
HETATM   21  C   UNL     1     -22.128  -4.118 -12.436  1.00  0.00     0.087 A 
ATOM     22  HN  UNL     1     -20.185  -3.428 -12.206  1.00  0.00     0.164 HD
HETATM   23  C   UNL     1     -23.287  -4.604 -11.842  1.00  0.00     0.018 A 
HETATM   24  C   UNL     1     -23.334  -4.708 -10.448  1.00  0.00     0.020 A 
ENDBRANCH  16  18
ENDBRANCH  15  16
ENDBRANCH  14  15
ENDBRANCH  13  14
ENDBRANCH   1  13
TORSDOF 15
BEGIN_RES ARG D 557
REMARK  4 active torsions:
REMARK  status: ('A' for Active; 'I' for Inactive)
REMARK    1  A    between atoms: CA   and  CB  
REMARK    2  A    between atoms: CB   and  CG  
REMARK    3  A    between atoms: CG   and  CD  
REMARK    4  A    between atoms: CD   and  NE  
REMARK       I    between atoms: NE   and  CZ  
REMARK       I    between atoms: CZ   and  NH1 
REMARK       I    between atoms: CZ   and  NH2 
ROOT
ATOM      1  CA  ARG D 557     -26.217   2.705 -17.014  1.00 35.49     0.159 C 
ENDROOT
BRANCH   1   2
ATOM      2  CB  ARG D 557     -26.789   1.319 -17.183  1.00 35.49     0.034 C 
BRANCH   2   3
ATOM      3  CG  ARG D 557     -28.153   1.102 -16.685  1.00 35.49     0.027 C 
BRANCH   3   4
ATOM      4  CD  ARG D 557     -28.786  -0.098 -17.279  1.00 35.49     0.116 C 
BRANCH   4   5
ATOM      5  NE  ARG D 557     -28.161  -1.316 -16.837  1.00 35.49    -0.212 N 
ATOM      6  CZ  ARG D 557     -28.635  -2.530 -17.010  1.00 35.49     0.666 C 
ATOM      7  NH1 ARG D 557     -29.784  -2.762 -17.619  1.00 35.49    -0.235 N 
ATOM      8  NH2 ARG D 557     -27.923  -3.522 -16.562  1.00 35.49    -0.235 N 
ATOM      9  HH  ARG D 557     -30.268  -2.124 -17.924  1.00 35.49     0.174 HD
ATOM     10  HH  ARG D 557     -30.041  -3.574 -17.705  1.00 35.49     0.174 HD
ATOM     11  HH  ARG D 557     -27.182  -3.343 -16.180  1.00 35.49     0.174 HD
ATOM     12  HH  ARG D 557     -28.194  -4.320 -16.659  1.00 35.49     0.174 HD
ATOM     13  HE  ARG D 557     -27.452  -1.255 -16.372  1.00 35.49     0.178 HD
ENDBRANCH   4   5
ENDBRANCH   3   4
ENDBRANCH   2   3
ENDBRANCH   1   2
END_RES ARG D 557
BEGIN_RES GLU D 570
REMARK  3 active torsions:
REMARK  status: ('A' for Active; 'I' for Inactive)
REMARK    5  A    between atoms: CA   and  CB  
REMARK    6  A    between atoms: CB   and  CG  
REMARK    7  A    between atoms: CG   and  CD  
ROOT
ATOM     14  CA  GLU D 570     -18.033  -6.348 -13.375  1.00 32.92     0.160 C 
ENDROOT
BRANCH  14  15
ATOM     15  CB  GLU D 570     -19.500  -6.345 -13.794  1.00 32.92     0.043 C 
BRANCH  15  16
ATOM     16  CG  GLU D 570     -19.803  -6.078 -15.224  1.00 32.92     0.100 C 
BRANCH  16  17
ATOM     17  CD  GLU D 570     -21.273  -5.841 -15.480  1.00 32.92     0.185 C 
ATOM     18  OE1 GLU D 570     -22.105  -6.643 -15.016  1.00 32.92    -0.647 OA
ATOM     19  OE2 GLU D 570     -21.595  -4.851 -16.167  1.00 32.92    -0.647 OA
ENDBRANCH  16  17
ENDBRANCH  15  16
ENDBRANCH  14  15
END_RES GLU D 570
ENDMDL
MODEL 7
REMARK VINA RESULT:      -6.8      3.311      8.617
REMARK  15 active torsions:
REMARK  status: ('A' for Active; 'I' for Inactive)
REMARK    1  A    between atoms: C_2  and  C_3 
REMARK    2  A    between atoms: C_3  and  C_4 
REMARK    3  A    between atoms: C_4  and  C_5 
REMARK    4  A    between atoms: C_5  and  C_6 
REMARK    5  A    between atoms: C_6  and  C_7 
REMARK    6  A    between atoms: C_7  and  C_8 
REMARK    7  A    between atoms: C_8  and  C_9 
REMARK    8  A    between atoms: C_9  and  C_10 
REMARK    9  A    between atoms: C_10  and  C_11 
REMARK   10  A    between atoms: C_11  and  C_12 
REMARK   11  A    between atoms: C_12  and  C_13 
REMARK   12  A    between atoms: C_13  and  C_14 
REMARK   13  A    between atoms: C_14  and  O_15 
REMARK   14  A    between atoms: O_15  and  C_16 
REMARK   15  A    between atoms: C_16  and  C_18 
ROOT
HETATM    1  C   UNL     1     -20.675  -4.907  -5.705  1.00  0.00     0.002 C 
ENDROOT
BRANCH   1   2
HETATM    2  C   UNL     1     -19.523  -4.951  -6.706  1.00  0.00     0.000 C 
BRANCH   2   3
HETATM    3  C   UNL     1     -19.772  -4.010  -7.878  1.00  0.00     0.000 C 
BRANCH   3   4
HETATM    4  C   UNL     1     -20.025  -4.787  -9.152  1.00  0.00     0.000 C 
BRANCH   4   5
HETATM    5  C   UNL     1     -21.042  -4.048 -10.005  1.00  0.00     0.000 C 
BRANCH   5   6
HETATM    6  C   UNL     1     -22.241  -3.671  -9.158  1.00  0.00     0.000 C 
BRANCH   6   7
HETATM    7  C   UNL     1     -23.391  -4.624  -9.435  1.00  0.00     0.000 C 
BRANCH   7   8
HETATM    8  C   UNL     1     -23.728  -4.607 -10.912  1.00  0.00     0.000 C 
BRANCH   8   9
HETATM    9  C   UNL     1     -24.397  -3.292 -11.277  1.00  0.00     0.000 C 
BRANCH   9  10
HETATM   10  C   UNL     1     -24.005  -2.881 -12.684  1.00  0.00    -0.000 C 
BRANCH  10  11
HETATM   11  C   UNL     1     -22.852  -3.741 -13.188  1.00  0.00    -0.005 C 
HETATM   12  C   UNL     1     -22.577  -3.447 -14.651  1.00  0.00     0.005 C 
ENDBRANCH  10  11
ENDBRANCH   9  10
ENDBRANCH   8   9
ENDBRANCH   7   8
ENDBRANCH   6   7
ENDBRANCH   5   6
ENDBRANCH   4   5
ENDBRANCH   3   4
ENDBRANCH   2   3
ENDBRANCH   1   2
BRANCH   1  13
HETATM   13  C   UNL     1     -21.753  -5.934  -6.051  1.00  0.00     0.027 C 
BRANCH  13  14
HETATM   14  C   UNL     1     -22.029  -6.897  -4.907  1.00  0.00     0.179 C 
BRANCH  14  15
HETATM   15  O   UNL     1     -21.005  -6.775  -3.893  1.00  0.00    -0.317 OA
BRANCH  15  16
HETATM   16  C   UNL     1     -20.702  -7.944  -3.264  1.00  0.00     0.294 C 
HETATM   17  O   UNL     1     -19.879  -8.756  -3.668  1.00  0.00    -0.259 OA
BRANCH  16  18
HETATM   18  C   UNL     1     -21.473  -8.167  -2.023  1.00  0.00     0.054 A 
HETATM   19  C   UNL     1     -21.807  -9.482  -1.706  1.00  0.00     0.105 A 
HETATM   20  N   UNL     1     -22.576  -9.846  -0.649  1.00  0.00    -0.374 N 
HETATM   21  C   UNL     1     -23.037  -8.848   0.132  1.00  0.00     0.087 A 
ATOM     22  HN  UNL     1     -22.794 -10.823  -0.455  1.00  0.00     0.164 HD
HETATM   23  C   UNL     1     -22.737  -7.507  -0.079  1.00  0.00     0.018 A 
HETATM   24  C   UNL     1     -21.935  -7.163  -1.172  1.00  0.00     0.020 A 
ENDBRANCH  16  18
ENDBRANCH  15  16
ENDBRANCH  14  15
ENDBRANCH  13  14
ENDBRANCH   1  13
TORSDOF 15
BEGIN_RES ARG D 557
REMARK  4 active torsions:
REMARK  status: ('A' for Active; 'I' for Inactive)
REMARK    1  A    between atoms: CA   and  CB  
REMARK    2  A    between atoms: CB   and  CG  
REMARK    3  A    between atoms: CG   and  CD  
REMARK    4  A    between atoms: CD   and  NE  
REMARK       I    between atoms: NE   and  CZ  
REMARK       I    between atoms: CZ   and  NH1 
REMARK       I    between atoms: CZ   and  NH2 
ROOT
ATOM      1  CA  ARG D 557     -26.217   2.705 -17.014  1.00 35.49     0.159 C 
ENDROOT
BRANCH   1   2
ATOM      2  CB  ARG D 557     -26.789   1.319 -17.183  1.00 35.49     0.034 C 
BRANCH   2   3
ATOM      3  CG  ARG D 557     -28.151   1.100 -16.680  1.00 35.49     0.027 C 
BRANCH   3   4
ATOM      4  CD  ARG D 557     -28.791  -0.090 -17.285  1.00 35.49     0.116 C 
BRANCH   4   5
ATOM      5  NE  ARG D 557     -28.172  -1.316 -16.856  1.00 35.49    -0.212 N 
ATOM      6  CZ  ARG D 557     -28.653  -2.525 -17.040  1.00 35.49     0.666 C 
ATOM      7  NH1 ARG D 557     -29.805  -2.745 -17.647  1.00 35.49    -0.235 N 
ATOM      8  NH2 ARG D 557     -27.945  -3.526 -16.603  1.00 35.49    -0.235 N 
ATOM      9  HH  ARG D 557     -30.286  -2.102 -17.944  1.00 35.49     0.174 HD
ATOM     10  HH  ARG D 557     -30.067  -3.555 -17.740  1.00 35.49     0.174 HD
ATOM     11  HH  ARG D 557     -27.202  -3.354 -16.222  1.00 35.49     0.174 HD
ATOM     12  HH  ARG D 557     -28.221  -4.321 -16.707  1.00 35.49     0.174 HD
ATOM     13  HE  ARG D 557     -27.461  -1.263 -16.392  1.00 35.49     0.178 HD
ENDBRANCH   4   5
ENDBRANCH   3   4
ENDBRANCH   2   3
ENDBRANCH   1   2
END_RES ARG D 557
BEGIN_RES GLU D 570
REMARK  3 active torsions:
REMARK  status: ('A' for Active; 'I' for Inactive)
REMARK    5  A    between atoms: CA   and  CB  
REMARK    6  A    between atoms: CB   and  CG  
REMARK    7  A    between atoms: CG   and  CD  
ROOT
ATOM     14  CA  GLU D 570     -18.033  -6.348 -13.375  1.00 32.92     0.160 C 
ENDROOT
BRANCH  14  15
ATOM     15  CB  GLU D 570     -19.500  -6.345 -13.794  1.00 32.92     0.043 C 
BRANCH  15  16
ATOM     16  CG  GLU D 570     -19.797  -6.413 -15.248  1.00 32.92     0.100 C 
BRANCH  16  17
ATOM     17  CD  GLU D 570     -20.925  -7.363 -15.576  1.00 32.92     0.185 C 
ATOM     18  OE1 GLU D 570     -20.699  -8.588 -15.594  1.00 32.92    -0.647 OA
ATOM     19  OE2 GLU D 570     -22.043  -6.875 -15.834  1.00 32.92    -0.647 OA
ENDBRANCH  16  17
ENDBRANCH  15  16
ENDBRANCH  14  15
END_RES GLU D 570
ENDMDL
MODEL 8
REMARK VINA RESULT:      -6.7      2.571      4.861
REMARK  15 active torsions:
REMARK  status: ('A' for Active; 'I' for Inactive)
REMARK    1  A    between atoms: C_2  and  C_3 
REMARK    2  A    between atoms: C_3  and  C_4 
REMARK    3  A    between atoms: C_4  and  C_5 
REMARK    4  A    between atoms: C_5  and  C_6 
REMARK    5  A    between atoms: C_6  and  C_7 
REMARK    6  A    between atoms: C_7  and  C_8 
REMARK    7  A    between atoms: C_8  and  C_9 
REMARK    8  A    between atoms: C_9  and  C_10 
REMARK    9  A    between atoms: C_10  and  C_11 
REMARK   10  A    between atoms: C_11  and  C_12 
REMARK   11  A    between atoms: C_12  and  C_13 
REMARK   12  A    between atoms: C_13  and  C_14 
REMARK   13  A    between atoms: C_14  and  O_15 
REMARK   14  A    between atoms: O_15  and  C_16 
REMARK   15  A    between atoms: C_16  and  C_18 
ROOT
HETATM    1  C   UNL     1     -22.115  -6.139  -2.106  1.00  0.00     0.002 C 
ENDROOT
BRANCH   1   2
HETATM    2  C   UNL     1     -22.340  -7.062  -0.911  1.00  0.00     0.000 C 
BRANCH   2   3
HETATM    3  C   UNL     1     -21.150  -7.990  -0.697  1.00  0.00     0.000 C 
BRANCH   3   4
HETATM    4  C   UNL     1     -21.602  -9.336  -0.175  1.00  0.00     0.000 C 
BRANCH   4   5
HETATM    5  C   UNL     1     -23.119  -9.377  -0.118  1.00  0.00     0.000 C 
BRANCH   5   6
HETATM    6  C   UNL     1     -23.593 -10.817  -0.129  1.00  0.00     0.000 C 
BRANCH   6   7
HETATM    7  C   UNL     1     -22.415 -11.748  -0.358  1.00  0.00     0.000 C 
BRANCH   7   8
HETATM    8  C   UNL     1     -22.253 -12.674   0.831  1.00  0.00     0.000 C 
BRANCH   8   9
HETATM    9  C   UNL     1     -23.616 -13.035   1.397  1.00  0.00     0.000 C 
BRANCH   9  10
HETATM   10  C   UNL     1     -23.488 -14.200   2.362  1.00  0.00    -0.000 C 
BRANCH  10  11
HETATM   11  C   UNL     1     -23.287 -15.503   1.597  1.00  0.00    -0.005 C 
HETATM   12  C   UNL     1     -24.629 -16.112   1.234  1.00  0.00     0.005 C 
ENDBRANCH  10  11
ENDBRANCH   9  10
ENDBRANCH   8   9
ENDBRANCH   7   8
ENDBRANCH   6   7
ENDBRANCH   5   6
ENDBRANCH   4   5
ENDBRANCH   3   4
ENDBRANCH   2   3
ENDBRANCH   1   2
BRANCH   1  13
HETATM   13  C   UNL     1     -21.305  -6.834  -3.201  1.00  0.00     0.027 C 
BRANCH  13  14
HETATM   14  C   UNL     1     -22.047  -6.892  -4.527  1.00  0.00     0.179 C 
BRANCH  14  15
HETATM   15  O   UNL     1     -21.845  -5.666  -5.267  1.00  0.00    -0.317 OA
BRANCH  15  16
HETATM   16  C   UNL     1     -21.228  -5.835  -6.468  1.00  0.00     0.294 C 
HETATM   17  O   UNL     1     -20.278  -6.584  -6.661  1.00  0.00    -0.259 OA
BRANCH  16  18
HETATM   18  C   UNL     1     -21.804  -5.013  -7.553  1.00  0.00     0.054 A 
HETATM   19  C   UNL     1     -23.094  -4.522  -7.367  1.00  0.00     0.105 A 
HETATM   20  N   UNL     1     -23.791  -3.821  -8.297  1.00  0.00    -0.374 N 
HETATM   21  C   UNL     1     -23.170  -3.598  -9.473  1.00  0.00     0.087 A 
ATOM     22  HN  UNL     1     -24.735  -3.481  -8.116  1.00  0.00     0.164 HD
HETATM   23  C   UNL     1     -21.874  -4.017  -9.748  1.00  0.00     0.018 A 
HETATM   24  C   UNL     1     -21.177  -4.730  -8.767  1.00  0.00     0.020 A 
ENDBRANCH  16  18
ENDBRANCH  15  16
ENDBRANCH  14  15
ENDBRANCH  13  14
ENDBRANCH   1  13
TORSDOF 15
BEGIN_RES ARG D 557
REMARK  4 active torsions:
REMARK  status: ('A' for Active; 'I' for Inactive)
REMARK    1  A    between atoms: CA   and  CB  
REMARK    2  A    between atoms: CB   and  CG  
REMARK    3  A    between atoms: CG   and  CD  
REMARK    4  A    between atoms: CD   and  NE  
REMARK       I    between atoms: NE   and  CZ  
REMARK       I    between atoms: CZ   and  NH1 
REMARK       I    between atoms: CZ   and  NH2 
ROOT
ATOM      1  CA  ARG D 557     -26.217   2.705 -17.014  1.00 35.49     0.159 C 
ENDROOT
BRANCH   1   2
ATOM      2  CB  ARG D 557     -26.789   1.319 -17.183  1.00 35.49     0.034 C 
BRANCH   2   3
ATOM      3  CG  ARG D 557     -28.180   1.122 -16.758  1.00 35.49     0.027 C 
BRANCH   3   4
ATOM      4  CD  ARG D 557     -28.722  -0.187 -17.188  1.00 35.49     0.116 C 
BRANCH   4   5
ATOM      5  NE  ARG D 557     -27.998  -1.289 -16.611  1.00 35.49    -0.212 N 
ATOM      6  CZ  ARG D 557     -28.262  -2.563 -16.798  1.00 35.49     0.666 C 
ATOM      7  NH1 ARG D 557     -29.264  -2.977 -17.551  1.00 35.49    -0.235 N 
ATOM      8  NH2 ARG D 557     -27.486  -3.429 -16.212  1.00 35.49    -0.235 N 
ATOM      9  HH  ARG D 557     -29.786  -2.425 -17.947  1.00 35.49     0.174 HD
ATOM     10  HH  ARG D 557     -29.386  -3.821 -17.638  1.00 35.49     0.174 HD
ATOM     11  HH  ARG D 557     -26.842  -3.133 -15.738  1.00 35.49     0.174 HD
ATOM     12  HH  ARG D 557     -27.622  -4.260 -16.312  1.00 35.49     0.174 HD
ATOM     13  HE  ARG D 557     -27.380  -1.113 -16.054  1.00 35.49     0.178 HD
ENDBRANCH   4   5
ENDBRANCH   3   4
ENDBRANCH   2   3
ENDBRANCH   1   2
END_RES ARG D 557
BEGIN_RES GLU D 570
REMARK  3 active torsions:
REMARK  status: ('A' for Active; 'I' for Inactive)
REMARK    5  A    between atoms: CA   and  CB  
REMARK    6  A    between atoms: CB   and  CG  
REMARK    7  A    between atoms: CG   and  CD  
ROOT
ATOM     14  CA  GLU D 570     -18.033  -6.348 -13.375  1.00 32.92     0.160 C 
ENDROOT
BRANCH  14  15
ATOM     15  CB  GLU D 570     -19.500  -6.345 -13.794  1.00 32.92     0.043 C 
BRANCH  15  16
ATOM     16  CG  GLU D 570     -20.442  -5.531 -12.983  1.00 32.92     0.100 C 
BRANCH  16  17
ATOM     17  CD  GLU D 570     -21.702  -5.165 -13.733  1.00 32.92     0.185 C 
ATOM     18  OE1 GLU D 570     -21.635  -4.951 -14.958  1.00 32.92    -0.647 OA
ATOM     19  OE2 GLU D 570     -22.763  -5.076 -13.085  1.00 32.92    -0.647 OA
ENDBRANCH  16  17
ENDBRANCH  15  16
ENDBRANCH  14  15
END_RES GLU D 570
ENDMDL
MODEL 9
REMARK VINA RESULT:      -6.7      2.476      3.878
REMARK  15 active torsions:
REMARK  status: ('A' for Active; 'I' for Inactive)
REMARK    1  A    between atoms: C_2  and  C_3 
REMARK    2  A    between atoms: C_3  and  C_4 
REMARK    3  A    between atoms: C_4  and  C_5 
REMARK    4  A    between atoms: C_5  and  C_6 
REMARK    5  A    between atoms: C_6  and  C_7 
REMARK    6  A    between atoms: C_7  and  C_8 
REMARK    7  A    between atoms: C_8  and  C_9 
REMARK    8  A    between atoms: C_9  and  C_10 
REMARK    9  A    between atoms: C_10  and  C_11 
REMARK   10  A    between atoms: C_11  and  C_12 
REMARK   11  A    between atoms: C_12  and  C_13 
REMARK   12  A    between atoms: C_13  and  C_14 
REMARK   13  A    between atoms: C_14  and  O_15 
REMARK   14  A    between atoms: O_15  and  C_16 
REMARK   15  A    between atoms: C_16  and  C_18 
ROOT
HETATM    1  C   UNL     1     -21.280  -6.463  -5.742  1.00  0.00     0.002 C 
ENDROOT
BRANCH   1   2
HETATM    2  C   UNL     1     -21.959  -6.941  -4.461  1.00  0.00     0.000 C 
BRANCH   2   3
HETATM    3  C   UNL     1     -21.376  -6.250  -3.235  1.00  0.00     0.000 C 
BRANCH   3   4
HETATM    4  C   UNL     1     -22.369  -6.247  -2.093  1.00  0.00     0.000 C 
BRANCH   4   5
HETATM    5  C   UNL     1     -21.855  -7.129  -0.969  1.00  0.00     0.000 C 
BRANCH   5   6
HETATM    6  C   UNL     1     -21.938  -8.585  -1.384  1.00  0.00     0.000 C 
BRANCH   6   7
HETATM    7  C   UNL     1     -20.636  -9.293  -1.053  1.00  0.00     0.000 C 
BRANCH   7   8
HETATM    8  C   UNL     1     -20.095  -9.979  -2.292  1.00  0.00     0.000 C 
BRANCH   8   9
HETATM    9  C   UNL     1     -19.224  -9.014  -3.080  1.00  0.00     0.000 C 
BRANCH   9  10
HETATM   10  C   UNL     1     -18.014  -9.741  -3.638  1.00  0.00    -0.000 C 
BRANCH  10  11
HETATM   11  C   UNL     1     -17.233 -10.413  -2.515  1.00  0.00    -0.005 C 
HETATM   12  C   UNL     1     -15.755 -10.091  -2.636  1.00  0.00     0.005 C 
ENDBRANCH  10  11
ENDBRANCH   9  10
ENDBRANCH   8   9
ENDBRANCH   7   8
ENDBRANCH   6   7
ENDBRANCH   5   6
ENDBRANCH   4   5
ENDBRANCH   3   4
ENDBRANCH   2   3
ENDBRANCH   1   2
BRANCH   1  13
HETATM   13  C   UNL     1     -20.543  -5.141  -5.522  1.00  0.00     0.027 C 
BRANCH  13  14
HETATM   14  C   UNL     1     -19.611  -4.796  -6.672  1.00  0.00     0.179 C 
BRANCH  14  15
HETATM   15  O   UNL     1     -20.263  -3.886  -7.588  1.00  0.00    -0.317 OA
BRANCH  15  16
HETATM   16  C   UNL     1     -20.532  -4.424  -8.809  1.00  0.00     0.294 C 
HETATM   17  O   UNL     1     -19.716  -5.022  -9.499  1.00  0.00    -0.259 OA
BRANCH  16  18
HETATM   18  C   UNL     1     -21.925  -4.214  -9.257  1.00  0.00     0.054 A 
HETATM   19  C   UNL     1     -22.880  -3.958  -8.275  1.00  0.00     0.105 A 
HETATM   20  N   UNL     1     -24.209  -3.823  -8.513  1.00  0.00    -0.374 N 
HETATM   21  C   UNL     1     -24.607  -3.948  -9.795  1.00  0.00     0.087 A 
ATOM     22  HN  UNL     1     -24.872  -3.635  -7.761  1.00  0.00     0.164 HD
HETATM   23  C   UNL     1     -23.732  -4.172 -10.852  1.00  0.00     0.018 A 
HETATM   24  C   UNL     1     -22.367  -4.299 -10.577  1.00  0.00     0.020 A 
ENDBRANCH  16  18
ENDBRANCH  15  16
ENDBRANCH  14  15
ENDBRANCH  13  14
ENDBRANCH   1  13
TORSDOF 15
BEGIN_RES ARG D 557
REMARK  4 active torsions:
REMARK  status: ('A' for Active; 'I' for Inactive)
REMARK    1  A    between atoms: CA   and  CB  
REMARK    2  A    between atoms: CB   and  CG  
REMARK    3  A    between atoms: CG   and  CD  
REMARK    4  A    between atoms: CD   and  NE  
REMARK       I    between atoms: NE   and  CZ  
REMARK       I    between atoms: CZ   and  NH1 
REMARK       I    between atoms: CZ   and  NH2 
ROOT
ATOM      1  CA  ARG D 557     -26.217   2.705 -17.014  1.00 35.49     0.159 C 
ENDROOT
BRANCH   1   2
ATOM      2  CB  ARG D 557     -26.789   1.319 -17.183  1.00 35.49     0.034 C 
BRANCH   2   3
ATOM      3  CG  ARG D 557     -25.855   0.196 -17.035  1.00 35.49     0.027 C 
BRANCH   3   4
ATOM      4  CD  ARG D 557     -26.233  -0.710 -15.927  1.00 35.49     0.116 C 
BRANCH   4   5
ATOM      5  NE  ARG D 557     -25.172  -0.865 -14.967  1.00 35.49    -0.212 N 
ATOM      6  CZ  ARG D 557     -24.842  -1.984 -14.362  1.00 35.49     0.666 C 
ATOM      7  NH1 ARG D 557     -25.483  -3.119 -14.570  1.00 35.49    -0.235 N 
ATOM      8  NH2 ARG D 557     -23.837  -1.945 -13.535  1.00 35.49    -0.235 N 
ATOM      9  HH  ARG D 557     -26.145  -3.169 -15.111  1.00 35.49     0.174 HD
ATOM     10  HH  ARG D 557     -25.220  -3.818 -14.149  1.00 35.49     0.174 HD
ATOM     11  HH  ARG D 557     -23.437  -1.200 -13.426  1.00 35.49     0.174 HD
ATOM     12  HH  ARG D 557     -23.592  -2.648 -13.129  1.00 35.49     0.174 HD
ATOM     13  HE  ARG D 557     -24.754  -0.168 -14.719  1.00 35.49     0.178 HD
ENDBRANCH   4   5
ENDBRANCH   3   4
ENDBRANCH   2   3
ENDBRANCH   1   2
END_RES ARG D 557
BEGIN_RES GLU D 570
REMARK  3 active torsions:
REMARK  status: ('A' for Active; 'I' for Inactive)
REMARK    5  A    between atoms: CA   and  CB  
REMARK    6  A    between atoms: CB   and  CG  
REMARK    7  A    between atoms: CG   and  CD  
ROOT
ATOM     14  CA  GLU D 570     -18.033  -6.348 -13.375  1.00 32.92     0.160 C 
ENDROOT
BRANCH  14  15
ATOM     15  CB  GLU D 570     -19.500  -6.345 -13.794  1.00 32.92     0.043 C 
BRANCH  15  16
ATOM     16  CG  GLU D 570     -20.013  -7.548 -14.499  1.00 32.92     0.100 C 
BRANCH  16  17
ATOM     17  CD  GLU D 570     -20.727  -7.216 -15.788  1.00 32.92     0.185 C 
ATOM     18  OE1 GLU D 570     -20.412  -6.180 -16.406  1.00 32.92    -0.647 OA
ATOM     19  OE2 GLU D 570     -21.624  -7.990 -16.176  1.00 32.92    -0.647 OA
ENDBRANCH  16  17
ENDBRANCH  15  16
ENDBRANCH  14  15
END_RES GLU D 570
ENDMDL
