MODEL 1
REMARK VINA RESULT:      -3.4      0.000      0.000
REMARK  1 active torsions:
REMARK  status: ('A' for Active; 'I' for Inactive)
REMARK    1  A    between atoms: C_2  and  O_4 
ROOT
HETATM    1  C   UNL     1     -22.776  -3.781 -10.235  1.00  0.00     0.125 C 
HETATM    2  C   UNL     1     -24.221  -3.473  -9.982  1.00  0.00     0.135 C 
HETATM    3  O   UNL     1     -25.028  -3.201 -10.855  1.00  0.00    -0.650 OA
ENDROOT
BRANCH   2   4
HETATM    4  O   UNL     1     -24.548  -3.526  -8.672  1.00  0.00    -0.777 OA
HETATM    5  H   UNL     1     -24.598  -2.650  -8.244  1.00  0.00     0.167 HD
ENDBRANCH   2   4
TORSDOF 1
BEGIN_RES ARG D 557
REMARK  4 active torsions:
REMARK  status: ('A' for Active; 'I' for Inactive)
REMARK    1  A    between atoms: CA   and  CB  
REMARK    2  A    between atoms: CB   and  CG  
REMARK    3  A    between atoms: CG   and  CD  
REMARK    4  A    between atoms: CD   and  NE  
REMARK       I    between atoms: NE   and  CZ  
REMARK       I    between atoms: CZ   and  NH1 
REMARK       I    between atoms: CZ   and  NH2 
ROOT
ATOM      1  CA  ARG D 557     -26.217   2.705 -17.014  1.00 35.49     0.159 C 
ENDROOT
BRANCH   1   2
ATOM      2  CB  ARG D 557     -26.789   1.319 -17.183  1.00 35.49     0.034 C 
BRANCH   2   3
ATOM      3  CG  ARG D 557     -25.836   0.203 -17.157  1.00 35.49     0.027 C 
BRANCH   3   4
ATOM      4  CD  ARG D 557     -24.748   0.413 -16.174  1.00 35.49     0.116 C 
BRANCH   4   5
ATOM      5  NE  ARG D 557     -24.891  -0.433 -15.019  1.00 35.49    -0.212 N 
ATOM      6  CZ  ARG D 557     -24.075  -1.402 -14.671  1.00 35.49     0.666 C 
ATOM      7  NH1 ARG D 557     -23.008  -1.721 -15.381  1.00 35.49    -0.235 N 
ATOM      8  NH2 ARG D 557     -24.348  -2.054 -13.578  1.00 35.49    -0.235 N 
ATOM      9  HH  ARG D 557     -22.808  -1.304 -16.102  1.00 35.49     0.174 HD
ATOM     10  HH  ARG D 557     -22.511  -2.361 -15.103  1.00 35.49     0.174 HD
ATOM     11  HH  ARG D 557     -25.039  -1.822 -13.135  1.00 35.49     0.174 HD
ATOM     12  HH  ARG D 557     -23.842  -2.683 -13.319  1.00 35.49     0.174 HD
ATOM     13  HE  ARG D 557     -25.591  -0.345 -14.544  1.00 35.49     0.178 HD
ENDBRANCH   4   5
ENDBRANCH   3   4
ENDBRANCH   2   3
ENDBRANCH   1   2
END_RES ARG D 557
BEGIN_RES GLU D 570
REMARK  3 active torsions:
REMARK  status: ('A' for Active; 'I' for Inactive)
REMARK    5  A    between atoms: CA   and  CB  
REMARK    6  A    between atoms: CB   and  CG  
REMARK    7  A    between atoms: CG   and  CD  
ROOT
ATOM     14  CA  GLU D 570     -18.033  -6.348 -13.375  1.00 32.92     0.160 C 
ENDROOT
BRANCH  14  15
ATOM     15  CB  GLU D 570     -19.500  -6.345 -13.794  1.00 32.92     0.043 C 
BRANCH  15  16
ATOM     16  CG  GLU D 570     -20.438  -5.514 -12.996  1.00 32.92     0.100 C 
BRANCH  16  17
ATOM     17  CD  GLU D 570     -21.740  -5.242 -13.712  1.00 32.92     0.185 C 
ATOM     18  OE1 GLU D 570     -22.256  -4.111 -13.623  1.00 32.92    -0.647 OA
ATOM     19  OE2 GLU D 570     -22.259  -6.176 -14.356  1.00 32.92    -0.647 OA
ENDBRANCH  16  17
ENDBRANCH  15  16
ENDBRANCH  14  15
END_RES GLU D 570
ENDMDL
MODEL 2
REMARK VINA RESULT:      -3.0      8.586     10.180
REMARK  1 active torsions:
REMARK  status: ('A' for Active; 'I' for Inactive)
REMARK    1  A    between atoms: C_2  and  O_4 
ROOT
HETATM    1  C   UNL     1      -9.685   6.034 -20.383  1.00  0.00     0.125 C 
HETATM    2  C   UNL     1     -10.358   5.681 -19.092  1.00  0.00     0.135 C 
HETATM    3  O   UNL     1     -11.524   5.335 -18.997  1.00  0.00    -0.650 OA
ENDROOT
BRANCH   2   4
HETATM    4  O   UNL     1      -9.536   5.786 -18.025  1.00  0.00    -0.777 OA
HETATM    5  H   UNL     1      -8.669   6.178 -18.234  1.00  0.00     0.167 HD
ENDBRANCH   2   4
TORSDOF 1
BEGIN_RES ARG D 557
REMARK  4 active torsions:
REMARK  status: ('A' for Active; 'I' for Inactive)
REMARK    1  A    between atoms: CA   and  CB  
REMARK    2  A    between atoms: CB   and  CG  
REMARK    3  A    between atoms: CG   and  CD  
REMARK    4  A    between atoms: CD   and  NE  
REMARK       I    between atoms: NE   and  CZ  
REMARK       I    between atoms: CZ   and  NH1 
REMARK       I    between atoms: CZ   and  NH2 
ROOT
ATOM      1  CA  ARG D 557     -26.217   2.705 -17.014  1.00 35.49     0.159 C 
ENDROOT
BRANCH   1   2
ATOM      2  CB  ARG D 557     -26.789   1.319 -17.183  1.00 35.49     0.034 C 
BRANCH   2   3
ATOM      3  CG  ARG D 557     -25.834   0.204 -17.170  1.00 35.49     0.027 C 
BRANCH   3   4
ATOM      4  CD  ARG D 557     -24.747   0.404 -16.184  1.00 35.49     0.116 C 
BRANCH   4   5
ATOM      5  NE  ARG D 557     -24.899  -0.441 -15.029  1.00 35.49    -0.212 N 
ATOM      6  CZ  ARG D 557     -24.083  -1.407 -14.671  1.00 35.49     0.666 C 
ATOM      7  NH1 ARG D 557     -23.007  -1.721 -15.369  1.00 35.49    -0.235 N 
ATOM      8  NH2 ARG D 557     -24.366  -2.058 -13.580  1.00 35.49    -0.235 N 
ATOM      9  HH  ARG D 557     -22.801  -1.305 -16.088  1.00 35.49     0.174 HD
ATOM     10  HH  ARG D 557     -22.510  -2.359 -15.085  1.00 35.49     0.174 HD
ATOM     11  HH  ARG D 557     -25.063  -1.828 -13.146  1.00 35.49     0.174 HD
ATOM     12  HH  ARG D 557     -23.861  -2.685 -13.315  1.00 35.49     0.174 HD
ATOM     13  HE  ARG D 557     -25.605  -0.355 -14.563  1.00 35.49     0.178 HD
ENDBRANCH   4   5
ENDBRANCH   3   4
ENDBRANCH   2   3
ENDBRANCH   1   2
END_RES ARG D 557
BEGIN_RES GLU D 570
REMARK  3 active torsions:
REMARK  status: ('A' for Active; 'I' for Inactive)
REMARK    5  A    between atoms: CA   and  CB  
REMARK    6  A    between atoms: CB   and  CG  
REMARK    7  A    between atoms: CG   and  CD  
ROOT
ATOM     14  CA  GLU D 570     -18.033  -6.348 -13.375  1.00 32.92     0.160 C 
ENDROOT
BRANCH  14  15
ATOM     15  CB  GLU D 570     -19.500  -6.345 -13.794  1.00 32.92     0.043 C 
BRANCH  15  16
ATOM     16  CG  GLU D 570     -20.438  -5.511 -12.998  1.00 32.92     0.100 C 
BRANCH  16  17
ATOM     17  CD  GLU D 570     -21.741  -5.244 -13.713  1.00 32.92     0.185 C 
ATOM     18  OE1 GLU D 570     -22.320  -4.156 -13.532  1.00 32.92    -0.647 OA
ATOM     19  OE2 GLU D 570     -22.198  -6.141 -14.450  1.00 32.92    -0.647 OA
ENDBRANCH  16  17
ENDBRANCH  15  16
ENDBRANCH  14  15
END_RES GLU D 570
ENDMDL
MODEL 3
REMARK VINA RESULT:      -2.9      3.255      4.356
REMARK  1 active torsions:
REMARK  status: ('A' for Active; 'I' for Inactive)
REMARK    1  A    between atoms: C_2  and  O_4 
ROOT
HETATM    1  C   UNL     1     -23.569  -1.991 -14.620  1.00  0.00     0.125 C 
HETATM    2  C   UNL     1     -24.502  -0.885 -15.013  1.00  0.00     0.135 C 
HETATM    3  O   UNL     1     -24.140   0.219 -15.385  1.00  0.00    -0.650 OA
ENDROOT
BRANCH   2   4
HETATM    4  O   UNL     1     -25.803  -1.234 -14.911  1.00  0.00    -0.777 OA
HETATM    5  H   UNL     1     -25.957  -2.014 -14.346  1.00  0.00     0.167 HD
ENDBRANCH   2   4
TORSDOF 1
BEGIN_RES ARG D 557
REMARK  4 active torsions:
REMARK  status: ('A' for Active; 'I' for Inactive)
REMARK    1  A    between atoms: CA   and  CB  
REMARK    2  A    between atoms: CB   and  CG  
REMARK    3  A    between atoms: CG   and  CD  
REMARK    4  A    between atoms: CD   and  NE  
REMARK       I    between atoms: NE   and  CZ  
REMARK       I    between atoms: CZ   and  NH1 
REMARK       I    between atoms: CZ   and  NH2 
ROOT
ATOM      1  CA  ARG D 557     -26.217   2.705 -17.014  1.00 35.49     0.159 C 
ENDROOT
BRANCH   1   2
ATOM      2  CB  ARG D 557     -26.789   1.319 -17.183  1.00 35.49     0.034 C 
BRANCH   2   3
ATOM      3  CG  ARG D 557     -28.188   1.128 -16.782  1.00 35.49     0.027 C 
BRANCH   3   4
ATOM      4  CD  ARG D 557     -28.737  -0.166 -17.246  1.00 35.49     0.116 C 
BRANCH   4   5
ATOM      5  NE  ARG D 557     -28.034  -1.288 -16.680  1.00 35.49    -0.212 N 
ATOM      6  CZ  ARG D 557     -28.340  -2.554 -16.856  1.00 35.49     0.666 C 
ATOM      7  NH1 ARG D 557     -29.370  -2.940 -17.584  1.00 35.49    -0.235 N 
ATOM      8  NH2 ARG D 557     -27.578  -3.440 -16.283  1.00 35.49    -0.235 N 
ATOM      9  HH  ARG D 557     -29.884  -2.374 -17.972  1.00 35.49     0.174 HD
ATOM     10  HH  ARG D 557     -29.520  -3.780 -17.665  1.00 35.49     0.174 HD
ATOM     11  HH  ARG D 557     -26.915  -3.162 -15.824  1.00 35.49     0.174 HD
ATOM     12  HH  ARG D 557     -27.741  -4.267 -16.376  1.00 35.49     0.174 HD
ATOM     13  HE  ARG D 557     -27.399  -1.128 -16.138  1.00 35.49     0.178 HD
ENDBRANCH   4   5
ENDBRANCH   3   4
ENDBRANCH   2   3
ENDBRANCH   1   2
END_RES ARG D 557
BEGIN_RES GLU D 570
REMARK  3 active torsions:
REMARK  status: ('A' for Active; 'I' for Inactive)
REMARK    5  A    between atoms: CA   and  CB  
REMARK    6  A    between atoms: CB   and  CG  
REMARK    7  A    between atoms: CG   and  CD  
ROOT
ATOM     14  CA  GLU D 570     -18.033  -6.348 -13.375  1.00 32.92     0.160 C 
ENDROOT
BRANCH  14  15
ATOM     15  CB  GLU D 570     -19.500  -6.345 -13.794  1.00 32.92     0.043 C 
BRANCH  15  16
ATOM     16  CG  GLU D 570     -20.446  -5.552 -12.967  1.00 32.92     0.100 C 
BRANCH  16  17
ATOM     17  CD  GLU D 570     -21.711  -5.185 -13.708  1.00 32.92     0.185 C 
ATOM     18  OE1 GLU D 570     -22.779  -5.090 -13.073  1.00 32.92    -0.647 OA
ATOM     19  OE2 GLU D 570     -21.636  -5.005 -14.940  1.00 32.92    -0.647 OA
ENDBRANCH  16  17
ENDBRANCH  15  16
ENDBRANCH  14  15
END_RES GLU D 570
ENDMDL
MODEL 4
REMARK VINA RESULT:      -2.9      4.302      5.542
REMARK  1 active torsions:
REMARK  status: ('A' for Active; 'I' for Inactive)
REMARK    1  A    between atoms: C_2  and  O_4 
ROOT
HETATM    1  C   UNL     1     -30.880  -4.994 -16.947  1.00  0.00     0.125 C 
HETATM    2  C   UNL     1     -30.905  -3.626 -17.559  1.00  0.00     0.135 C 
HETATM    3  O   UNL     1     -31.924  -2.998 -17.796  1.00  0.00    -0.650 OA
ENDROOT
BRANCH   2   4
HETATM    4  O   UNL     1     -29.671  -3.149 -17.831  1.00  0.00    -0.777 OA
HETATM    5  H   UNL     1     -29.459  -2.320 -17.364  1.00  0.00     0.167 HD
ENDBRANCH   2   4
TORSDOF 1
BEGIN_RES ARG D 557
REMARK  4 active torsions:
REMARK  status: ('A' for Active; 'I' for Inactive)
REMARK    1  A    between atoms: CA   and  CB  
REMARK    2  A    between atoms: CB   and  CG  
REMARK    3  A    between atoms: CG   and  CD  
REMARK    4  A    between atoms: CD   and  NE  
REMARK       I    between atoms: NE   and  CZ  
REMARK       I    between atoms: CZ   and  NH1 
REMARK       I    between atoms: CZ   and  NH2 
ROOT
ATOM      1  CA  ARG D 557     -26.217   2.705 -17.014  1.00 35.49     0.159 C 
ENDROOT
BRANCH   1   2
ATOM      2  CB  ARG D 557     -26.789   1.319 -17.183  1.00 35.49     0.034 C 
BRANCH   2   3
ATOM      3  CG  ARG D 557     -25.835   0.203 -17.159  1.00 35.49     0.027 C 
BRANCH   3   4
ATOM      4  CD  ARG D 557     -24.749   0.411 -16.175  1.00 35.49     0.116 C 
BRANCH   4   5
ATOM      5  NE  ARG D 557     -24.895  -0.434 -15.019  1.00 35.49    -0.212 N 
ATOM      6  CZ  ARG D 557     -24.083  -1.407 -14.670  1.00 35.49     0.666 C 
ATOM      7  NH1 ARG D 557     -23.016  -1.728 -15.379  1.00 35.49    -0.235 N 
ATOM      8  NH2 ARG D 557     -24.359  -2.057 -13.577  1.00 35.49    -0.235 N 
ATOM      9  HH  ARG D 557     -22.814  -1.312 -16.101  1.00 35.49     0.174 HD
ATOM     10  HH  ARG D 557     -22.521  -2.370 -15.102  1.00 35.49     0.174 HD
ATOM     11  HH  ARG D 557     -25.050  -1.822 -13.136  1.00 35.49     0.174 HD
ATOM     12  HH  ARG D 557     -23.855  -2.688 -13.318  1.00 35.49     0.174 HD
ATOM     13  HE  ARG D 557     -25.595  -0.344 -14.545  1.00 35.49     0.178 HD
ENDBRANCH   4   5
ENDBRANCH   3   4
ENDBRANCH   2   3
ENDBRANCH   1   2
END_RES ARG D 557
BEGIN_RES GLU D 570
REMARK  3 active torsions:
REMARK  status: ('A' for Active; 'I' for Inactive)
REMARK    5  A    between atoms: CA   and  CB  
REMARK    6  A    between atoms: CB   and  CG  
REMARK    7  A    between atoms: CG   and  CD  
ROOT
ATOM     14  CA  GLU D 570     -18.033  -6.348 -13.375  1.00 32.92     0.160 C 
ENDROOT
BRANCH  14  15
ATOM     15  CB  GLU D 570     -19.500  -6.345 -13.794  1.00 32.92     0.043 C 
BRANCH  15  16
ATOM     16  CG  GLU D 570     -20.442  -5.531 -12.983  1.00 32.92     0.100 C 
BRANCH  16  17
ATOM     17  CD  GLU D 570     -21.741  -5.244 -13.700  1.00 32.92     0.185 C 
ATOM     18  OE1 GLU D 570     -22.205  -6.100 -14.477  1.00 32.92    -0.647 OA
ATOM     19  OE2 GLU D 570     -22.291  -4.144 -13.495  1.00 32.92    -0.647 OA
ENDBRANCH  16  17
ENDBRANCH  15  16
ENDBRANCH  14  15
END_RES GLU D 570
ENDMDL
MODEL 5
REMARK VINA RESULT:      -2.9      1.532      1.718
REMARK  1 active torsions:
REMARK  status: ('A' for Active; 'I' for Inactive)
REMARK    1  A    between atoms: C_2  and  O_4 
ROOT
HETATM    1  C   UNL     1     -22.963  -3.891  -9.740  1.00  0.00     0.125 C 
HETATM    2  C   UNL     1     -24.362  -3.699 -10.243  1.00  0.00     0.135 C 
HETATM    3  O   UNL     1     -24.661  -2.986 -11.187  1.00  0.00    -0.650 OA
ENDROOT
BRANCH   2   4
HETATM    4  O   UNL     1     -25.276  -4.399  -9.537  1.00  0.00    -0.777 OA
HETATM    5  H   UNL     1     -24.978  -4.643  -8.641  1.00  0.00     0.167 HD
ENDBRANCH   2   4
TORSDOF 1
BEGIN_RES ARG D 557
REMARK  4 active torsions:
REMARK  status: ('A' for Active; 'I' for Inactive)
REMARK    1  A    between atoms: CA   and  CB  
REMARK    2  A    between atoms: CB   and  CG  
REMARK    3  A    between atoms: CG   and  CD  
REMARK    4  A    between atoms: CD   and  NE  
REMARK       I    between atoms: NE   and  CZ  
REMARK       I    between atoms: CZ   and  NH1 
REMARK       I    between atoms: CZ   and  NH2 
ROOT
ATOM      1  CA  ARG D 557     -26.217   2.705 -17.014  1.00 35.49     0.159 C 
ENDROOT
BRANCH   1   2
ATOM      2  CB  ARG D 557     -26.789   1.319 -17.183  1.00 35.49     0.034 C 
BRANCH   2   3
ATOM      3  CG  ARG D 557     -25.936   0.198 -16.770  1.00 35.49     0.027 C 
BRANCH   3   4
ATOM      4  CD  ARG D 557     -26.695  -0.855 -16.057  1.00 35.49     0.116 C 
BRANCH   4   5
ATOM      5  NE  ARG D 557     -25.868  -1.590 -15.136  1.00 35.49    -0.212 N 
ATOM      6  CZ  ARG D 557     -25.955  -2.877 -14.885  1.00 35.49     0.666 C 
ATOM      7  NH1 ARG D 557     -26.853  -3.654 -15.463  1.00 35.49    -0.235 N 
ATOM      8  NH2 ARG D 557     -25.108  -3.382 -14.036  1.00 35.49    -0.235 N 
ATOM      9  HH  ARG D 557     -27.419  -3.343 -16.027  1.00 35.49     0.174 HD
ATOM     10  HH  ARG D 557     -26.861  -4.487 -15.262  1.00 35.49     0.174 HD
ATOM     11  HH  ARG D 557     -24.534  -2.858 -13.684  1.00 35.49     0.174 HD
ATOM     12  HH  ARG D 557     -25.130  -4.209 -13.852  1.00 35.49     0.174 HD
ATOM     13  HE  ARG D 557     -25.309  -1.155 -14.666  1.00 35.49     0.178 HD
ENDBRANCH   4   5
ENDBRANCH   3   4
ENDBRANCH   2   3
ENDBRANCH   1   2
END_RES ARG D 557
BEGIN_RES GLU D 570
REMARK  3 active torsions:
REMARK  status: ('A' for Active; 'I' for Inactive)
REMARK    5  A    between atoms: CA   and  CB  
REMARK    6  A    between atoms: CB   and  CG  
REMARK    7  A    between atoms: CG   and  CD  
ROOT
ATOM     14  CA  GLU D 570     -18.033  -6.348 -13.375  1.00 32.92     0.160 C 
ENDROOT
BRANCH  14  15
ATOM     15  CB  GLU D 570     -19.500  -6.345 -13.794  1.00 32.92     0.043 C 
BRANCH  15  16
ATOM     16  CG  GLU D 570     -20.443  -5.538 -12.978  1.00 32.92     0.100 C 
BRANCH  16  17
ATOM     17  CD  GLU D 570     -21.708  -5.177 -13.723  1.00 32.92     0.185 C 
ATOM     18  OE1 GLU D 570     -22.786  -5.134 -13.100  1.00 32.92    -0.647 OA
ATOM     19  OE2 GLU D 570     -21.621  -4.952 -14.946  1.00 32.92    -0.647 OA
ENDBRANCH  16  17
ENDBRANCH  15  16
ENDBRANCH  14  15
END_RES GLU D 570
ENDMDL
MODEL 6
REMARK VINA RESULT:      -2.8      6.801      8.232
REMARK  1 active torsions:
REMARK  status: ('A' for Active; 'I' for Inactive)
REMARK    1  A    between atoms: C_2  and  O_4 
ROOT
HETATM    1  C   UNL     1     -28.934 -14.778 -18.159  1.00  0.00     0.125 C 
HETATM    2  C   UNL     1     -29.588 -14.042 -19.290  1.00  0.00     0.135 C 
HETATM    3  O   UNL     1     -29.031 -13.754 -20.336  1.00  0.00    -0.650 OA
ENDROOT
BRANCH   2   4
HETATM    4  O   UNL     1     -30.875 -13.721 -19.033  1.00  0.00    -0.777 OA
HETATM    5  H   UNL     1     -31.119 -12.820 -19.316  1.00  0.00     0.167 HD
ENDBRANCH   2   4
TORSDOF 1
BEGIN_RES ARG D 557
REMARK  4 active torsions:
REMARK  status: ('A' for Active; 'I' for Inactive)
REMARK    1  A    between atoms: CA   and  CB  
REMARK    2  A    between atoms: CB   and  CG  
REMARK    3  A    between atoms: CG   and  CD  
REMARK    4  A    between atoms: CD   and  NE  
REMARK       I    between atoms: NE   and  CZ  
REMARK       I    between atoms: CZ   and  NH1 
REMARK       I    between atoms: CZ   and  NH2 
ROOT
ATOM      1  CA  ARG D 557     -26.217   2.705 -17.014  1.00 35.49     0.159 C 
ENDROOT
BRANCH   1   2
ATOM      2  CB  ARG D 557     -26.789   1.319 -17.183  1.00 35.49     0.034 C 
BRANCH   2   3
ATOM      3  CG  ARG D 557     -25.931   0.197 -16.783  1.00 35.49     0.027 C 
BRANCH   3   4
ATOM      4  CD  ARG D 557     -26.686  -0.871 -16.088  1.00 35.49     0.116 C 
BRANCH   4   5
ATOM      5  NE  ARG D 557     -25.951  -1.423 -14.981  1.00 35.49    -0.212 N 
ATOM      6  CZ  ARG D 557     -25.926  -2.689 -14.630  1.00 35.49     0.666 C 
ATOM      7  NH1 ARG D 557     -26.611  -3.617 -15.274  1.00 35.49    -0.235 N 
ATOM      8  NH2 ARG D 557     -25.187  -3.015 -13.611  1.00 35.49    -0.235 N 
ATOM      9  HH  ARG D 557     -27.103  -3.425 -15.949  1.00 35.49     0.174 HD
ATOM     10  HH  ARG D 557     -26.554  -4.427 -15.001  1.00 35.49     0.174 HD
ATOM     11  HH  ARG D 557     -24.750  -2.396 -13.219  1.00 35.49     0.174 HD
ATOM     12  HH  ARG D 557     -25.142  -3.823 -13.357  1.00 35.49     0.174 HD
ATOM     13  HE  ARG D 557     -25.539  -0.885 -14.467  1.00 35.49     0.178 HD
ENDBRANCH   4   5
ENDBRANCH   3   4
ENDBRANCH   2   3
ENDBRANCH   1   2
END_RES ARG D 557
BEGIN_RES GLU D 570
REMARK  3 active torsions:
REMARK  status: ('A' for Active; 'I' for Inactive)
REMARK    5  A    between atoms: CA   and  CB  
REMARK    6  A    between atoms: CB   and  CG  
REMARK    7  A    between atoms: CG   and  CD  
ROOT
ATOM     14  CA  GLU D 570     -18.033  -6.348 -13.375  1.00 32.92     0.160 C 
ENDROOT
BRANCH  14  15
ATOM     15  CB  GLU D 570     -19.500  -6.345 -13.794  1.00 32.92     0.043 C 
BRANCH  15  16
ATOM     16  CG  GLU D 570     -20.440  -5.523 -12.989  1.00 32.92     0.100 C 
BRANCH  16  17
ATOM     17  CD  GLU D 570     -21.732  -5.226 -13.713  1.00 32.92     0.185 C 
ATOM     18  OE1 GLU D 570     -22.450  -4.290 -13.312  1.00 32.92    -0.647 OA
ATOM     19  OE2 GLU D 570     -22.038  -5.948 -14.683  1.00 32.92    -0.647 OA
ENDBRANCH  16  17
ENDBRANCH  15  16
ENDBRANCH  14  15
END_RES GLU D 570
ENDMDL
MODEL 7
REMARK VINA RESULT:      -2.7      5.296      5.683
REMARK  1 active torsions:
REMARK  status: ('A' for Active; 'I' for Inactive)
REMARK    1  A    between atoms: C_2  and  O_4 
ROOT
HETATM    1  C   UNL     1     -33.157  -3.660 -11.655  1.00  0.00     0.125 C 
HETATM    2  C   UNL     1     -34.089  -3.939 -12.795  1.00  0.00     0.135 C 
HETATM    3  O   UNL     1     -34.405  -3.118 -13.641  1.00  0.00    -0.650 OA
ENDROOT
BRANCH   2   4
HETATM    4  O   UNL     1     -34.554  -5.207 -12.796  1.00  0.00    -0.777 OA
HETATM    5  H   UNL     1     -33.991  -5.833 -12.303  1.00  0.00     0.167 HD
ENDBRANCH   2   4
TORSDOF 1
BEGIN_RES ARG D 557
REMARK  4 active torsions:
REMARK  status: ('A' for Active; 'I' for Inactive)
REMARK    1  A    between atoms: CA   and  CB  
REMARK    2  A    between atoms: CB   and  CG  
REMARK    3  A    between atoms: CG   and  CD  
REMARK    4  A    between atoms: CD   and  NE  
REMARK       I    between atoms: NE   and  CZ  
REMARK       I    between atoms: CZ   and  NH1 
REMARK       I    between atoms: CZ   and  NH2 
ROOT
ATOM      1  CA  ARG D 557     -26.217   2.705 -17.014  1.00 35.49     0.159 C 
ENDROOT
BRANCH   1   2
ATOM      2  CB  ARG D 557     -26.789   1.319 -17.183  1.00 35.49     0.034 C 
BRANCH   2   3
ATOM      3  CG  ARG D 557     -25.861   0.195 -17.006  1.00 35.49     0.027 C 
BRANCH   3   4
ATOM      4  CD  ARG D 557     -26.265  -0.701 -15.898  1.00 35.49     0.116 C 
BRANCH   4   5
ATOM      5  NE  ARG D 557     -25.202  -0.906 -14.951  1.00 35.49    -0.212 N 
ATOM      6  CZ  ARG D 557     -24.907  -2.043 -14.362  1.00 35.49     0.666 C 
ATOM      7  NH1 ARG D 557     -25.591  -3.152 -14.577  1.00 35.49    -0.235 N 
ATOM      8  NH2 ARG D 557     -23.893  -2.051 -13.546  1.00 35.49    -0.235 N 
ATOM      9  HH  ARG D 557     -26.260  -3.170 -15.111  1.00 35.49     0.174 HD
ATOM     10  HH  ARG D 557     -25.351  -3.864 -14.166  1.00 35.49     0.174 HD
ATOM     11  HH  ARG D 557     -23.465  -1.323 -13.432  1.00 35.49     0.174 HD
ATOM     12  HH  ARG D 557     -23.670  -2.767 -13.150  1.00 35.49     0.174 HD
ATOM     13  HE  ARG D 557     -24.755  -0.228 -14.699  1.00 35.49     0.178 HD
ENDBRANCH   4   5
ENDBRANCH   3   4
ENDBRANCH   2   3
ENDBRANCH   1   2
END_RES ARG D 557
BEGIN_RES GLU D 570
REMARK  3 active torsions:
REMARK  status: ('A' for Active; 'I' for Inactive)
REMARK    5  A    between atoms: CA   and  CB  
REMARK    6  A    between atoms: CB   and  CG  
REMARK    7  A    between atoms: CG   and  CD  
ROOT
ATOM     14  CA  GLU D 570     -18.033  -6.348 -13.375  1.00 32.92     0.160 C 
ENDROOT
BRANCH  14  15
ATOM     15  CB  GLU D 570     -19.500  -6.345 -13.794  1.00 32.92     0.043 C 
BRANCH  15  16
ATOM     16  CG  GLU D 570     -20.441  -5.528 -12.986  1.00 32.92     0.100 C 
BRANCH  16  17
ATOM     17  CD  GLU D 570     -21.681  -5.127 -13.751  1.00 32.92     0.185 C 
ATOM     18  OE1 GLU D 570     -21.615  -5.008 -14.989  1.00 32.92    -0.647 OA
ATOM     19  OE2 GLU D 570     -22.724  -4.913 -13.103  1.00 32.92    -0.647 OA
ENDBRANCH  16  17
ENDBRANCH  15  16
ENDBRANCH  14  15
END_RES GLU D 570
ENDMDL
MODEL 8
REMARK VINA RESULT:      -2.6      4.885      5.261
REMARK  1 active torsions:
REMARK  status: ('A' for Active; 'I' for Inactive)
REMARK    1  A    between atoms: C_2  and  O_4 
ROOT
HETATM    1  C   UNL     1     -21.096  -7.639  -1.679  1.00  0.00     0.125 C 
HETATM    2  C   UNL     1     -22.293  -6.864  -1.217  1.00  0.00     0.135 C 
HETATM    3  O   UNL     1     -22.996  -7.184  -0.273  1.00  0.00    -0.650 OA
ENDROOT
BRANCH   2   4
HETATM    4  O   UNL     1     -22.523  -5.760  -1.961  1.00  0.00    -0.777 OA
HETATM    5  H   UNL     1     -21.737  -5.195  -2.079  1.00  0.00     0.167 HD
ENDBRANCH   2   4
TORSDOF 1
BEGIN_RES ARG D 557
REMARK  4 active torsions:
REMARK  status: ('A' for Active; 'I' for Inactive)
REMARK    1  A    between atoms: CA   and  CB  
REMARK    2  A    between atoms: CB   and  CG  
REMARK    3  A    between atoms: CG   and  CD  
REMARK    4  A    between atoms: CD   and  NE  
REMARK       I    between atoms: NE   and  CZ  
REMARK       I    between atoms: CZ   and  NH1 
REMARK       I    between atoms: CZ   and  NH2 
ROOT
ATOM      1  CA  ARG D 557     -26.217   2.705 -17.014  1.00 35.49     0.159 C 
ENDROOT
BRANCH   1   2
ATOM      2  CB  ARG D 557     -26.789   1.319 -17.183  1.00 35.49     0.034 C 
BRANCH   2   3
ATOM      3  CG  ARG D 557     -25.865   0.195 -16.992  1.00 35.49     0.027 C 
BRANCH   3   4
ATOM      4  CD  ARG D 557     -26.287  -0.702 -15.892  1.00 35.49     0.116 C 
BRANCH   4   5
ATOM      5  NE  ARG D 557     -25.233  -0.922 -14.936  1.00 35.49    -0.212 N 
ATOM      6  CZ  ARG D 557     -24.947  -2.067 -14.359  1.00 35.49     0.666 C 
ATOM      7  NH1 ARG D 557     -25.631  -3.171 -14.595  1.00 35.49    -0.235 N 
ATOM      8  NH2 ARG D 557     -23.942  -2.088 -13.532  1.00 35.49    -0.235 N 
ATOM      9  HH  ARG D 557     -26.295  -3.181 -15.137  1.00 35.49     0.174 HD
ATOM     10  HH  ARG D 557     -25.396  -3.890 -14.192  1.00 35.49     0.174 HD
ATOM     11  HH  ARG D 557     -23.513  -1.361 -13.405  1.00 35.49     0.174 HD
ATOM     12  HH  ARG D 557     -23.724  -2.809 -13.144  1.00 35.49     0.174 HD
ATOM     13  HE  ARG D 557     -24.788  -0.248 -14.671  1.00 35.49     0.178 HD
ENDBRANCH   4   5
ENDBRANCH   3   4
ENDBRANCH   2   3
ENDBRANCH   1   2
END_RES ARG D 557
BEGIN_RES GLU D 570
REMARK  3 active torsions:
REMARK  status: ('A' for Active; 'I' for Inactive)
REMARK    5  A    between atoms: CA   and  CB  
REMARK    6  A    between atoms: CB   and  CG  
REMARK    7  A    between atoms: CG   and  CD  
ROOT
ATOM     14  CA  GLU D 570     -18.033  -6.348 -13.375  1.00 32.92     0.160 C 
ENDROOT
BRANCH  14  15
ATOM     15  CB  GLU D 570     -19.500  -6.345 -13.794  1.00 32.92     0.043 C 
BRANCH  15  16
ATOM     16  CG  GLU D 570     -20.447  -5.554 -12.966  1.00 32.92     0.100 C 
BRANCH  16  17
ATOM     17  CD  GLU D 570     -21.681  -5.127 -13.727  1.00 32.92     0.185 C 
ATOM     18  OE1 GLU D 570     -22.734  -4.909 -13.098  1.00 32.92    -0.647 OA
ATOM     19  OE2 GLU D 570     -21.597  -5.027 -14.967  1.00 32.92    -0.647 OA
ENDBRANCH  16  17
ENDBRANCH  15  16
ENDBRANCH  14  15
END_RES GLU D 570
ENDMDL
MODEL 9
REMARK VINA RESULT:      -2.5      1.634      2.188
REMARK  1 active torsions:
REMARK  status: ('A' for Active; 'I' for Inactive)
REMARK    1  A    between atoms: C_2  and  O_4 
ROOT
HETATM    1  C   UNL     1     -22.261  -3.663 -10.439  1.00  0.00     0.125 C 
HETATM    2  C   UNL     1     -23.019  -3.045 -11.574  1.00  0.00     0.135 C 
HETATM    3  O   UNL     1     -24.211  -2.785 -11.543  1.00  0.00    -0.650 OA
ENDROOT
BRANCH   2   4
HETATM    4  O   UNL     1     -22.244  -2.801 -12.653  1.00  0.00    -0.777 OA
HETATM    5  H   UNL     1     -21.831  -3.600 -13.029  1.00  0.00     0.167 HD
ENDBRANCH   2   4
TORSDOF 1
BEGIN_RES ARG D 557
REMARK  4 active torsions:
REMARK  status: ('A' for Active; 'I' for Inactive)
REMARK    1  A    between atoms: CA   and  CB  
REMARK    2  A    between atoms: CB   and  CG  
REMARK    3  A    between atoms: CG   and  CD  
REMARK    4  A    between atoms: CD   and  NE  
REMARK       I    between atoms: NE   and  CZ  
REMARK       I    between atoms: CZ   and  NH1 
REMARK       I    between atoms: CZ   and  NH2 
ROOT
ATOM      1  CA  ARG D 557     -26.217   2.705 -17.014  1.00 35.49     0.159 C 
ENDROOT
BRANCH   1   2
ATOM      2  CB  ARG D 557     -26.789   1.319 -17.183  1.00 35.49     0.034 C 
BRANCH   2   3
ATOM      3  CG  ARG D 557     -26.010   0.210 -16.620  1.00 35.49     0.027 C 
BRANCH   3   4
ATOM      4  CD  ARG D 557     -26.858  -0.767 -15.899  1.00 35.49     0.116 C 
BRANCH   4   5
ATOM      5  NE  ARG D 557     -26.144  -1.975 -15.581  1.00 35.49    -0.212 N 
ATOM      6  CZ  ARG D 557     -25.091  -2.063 -14.800  1.00 35.49     0.666 C 
ATOM      7  NH1 ARG D 557     -24.552  -1.008 -14.216  1.00 35.49    -0.235 N 
ATOM      8  NH2 ARG D 557     -24.584  -3.245 -14.606  1.00 35.49    -0.235 N 
ATOM      9  HH  ARG D 557     -24.871  -0.221 -14.327  1.00 35.49     0.174 HD
ATOM     10  HH  ARG D 557     -23.868  -1.127 -13.714  1.00 35.49     0.174 HD
ATOM     11  HH  ARG D 557     -24.957  -3.909 -14.990  1.00 35.49     0.174 HD
ATOM     12  HH  ARG D 557     -23.907  -3.342 -14.105  1.00 35.49     0.174 HD
ATOM     13  HE  ARG D 557     -26.380  -2.693 -15.973  1.00 35.49     0.178 HD
ENDBRANCH   4   5
ENDBRANCH   3   4
ENDBRANCH   2   3
ENDBRANCH   1   2
END_RES ARG D 557
BEGIN_RES GLU D 570
REMARK  3 active torsions:
REMARK  status: ('A' for Active; 'I' for Inactive)
REMARK    5  A    between atoms: CA   and  CB  
REMARK    6  A    between atoms: CB   and  CG  
REMARK    7  A    between atoms: CG   and  CD  
ROOT
ATOM     14  CA  GLU D 570     -18.033  -6.348 -13.375  1.00 32.92     0.160 C 
ENDROOT
BRANCH  14  15
ATOM     15  CB  GLU D 570     -19.500  -6.345 -13.794  1.00 32.92     0.043 C 
BRANCH  15  16
ATOM     16  CG  GLU D 570     -19.803  -6.075 -15.223  1.00 32.92     0.100 C 
BRANCH  16  17
ATOM     17  CD  GLU D 570     -21.116  -5.354 -15.421  1.00 32.92     0.185 C 
ATOM     18  OE1 GLU D 570     -21.489  -5.082 -16.578  1.00 32.92    -0.647 OA
ATOM     19  OE2 GLU D 570     -21.770  -5.042 -14.407  1.00 32.92    -0.647 OA
ENDBRANCH  16  17
ENDBRANCH  15  16
ENDBRANCH  14  15
END_RES GLU D 570
ENDMDL
