MODEL 1
REMARK VINA RESULT:      -6.0      0.000      0.000
REMARK WARNING: 32 MAX_TORS EXCEEDED!!!
REMARK  46 active torsions:
REMARK  status: ('A' for Active; 'I' for Inactive)
REMARK    1  A    between atoms: C_3  and  O_78 
REMARK    2  A    between atoms: C_4  and  O_70 
REMARK    3  A    between atoms: C_5  and  O_62 
REMARK    4  A    between atoms: C_6  and  O_8 
REMARK    5  A    between atoms: O_8  and  C_9 
REMARK    6  A    between atoms: C_9  and  C_10 
REMARK    7  A    between atoms: C_11  and  O_54 
REMARK    8  A    between atoms: C_12  and  O_46 
REMARK    9  A    between atoms: C_13  and  O_38 
REMARK   10  A    between atoms: C_14  and  O_16 
REMARK   11  A    between atoms: O_16  and  C_17 
REMARK   12  A    between atoms: C_18  and  C_30 
REMARK   13  A    between atoms: C_22  and  O_29 
REMARK   14  A    between atoms: C_24  and  O_28 
REMARK   15  A    between atoms: C_32  and  O_37 
REMARK   16  A    between atoms: C_33  and  O_36 
REMARK   17  A    between atoms: O_38  and  C_39 
REMARK   18  A    between atoms: C_39  and  C_41 
REMARK   19  A    between atoms: C_41  and  C_42 
REMARK   20  A    between atoms: C_42  and  C_43 
REMARK   21  A    between atoms: C_43  and  O_45 
REMARK   22  A    between atoms: O_46  and  C_47 
REMARK   23  A    between atoms: C_47  and  C_49 
REMARK   24  A    between atoms: C_49  and  C_50 
REMARK   25  A    between atoms: C_50  and  C_51 
REMARK   26  A    between atoms: C_51  and  O_53 
REMARK   27  A    between atoms: O_54  and  C_55 
REMARK   28  A    between atoms: C_55  and  C_57 
REMARK   29  A    between atoms: C_57  and  C_58 
REMARK   30  A    between atoms: C_58  and  C_59 
REMARK   31  A    between atoms: C_59  and  O_61 
REMARK   32  A    between atoms: O_62  and  C_63 
REMARK   33  A    between atoms: C_63  and  C_65 
REMARK   34  A    between atoms: C_65  and  C_66 
REMARK   35  A    between atoms: C_66  and  C_67 
REMARK   36  A    between atoms: C_67  and  O_69 
REMARK   37  A    between atoms: O_70  and  C_71 
REMARK   38  A    between atoms: C_71  and  C_73 
REMARK   39  A    between atoms: C_73  and  C_74 
REMARK   40  A    between atoms: C_74  and  C_75 
REMARK   41  A    between atoms: C_75  and  O_77 
REMARK   42  A    between atoms: O_78  and  C_79 
REMARK   43  A    between atoms: C_79  and  C_81 
REMARK   44  A    between atoms: C_81  and  C_82 
REMARK   45  A    between atoms: C_82  and  C_83 
REMARK   46  A    between atoms: C_83  and  O_85 
ROOT
HETATM    1  C   UNL     1     -22.802 -12.708  -2.151  1.00  0.00     0.180 C 
HETATM    2  C   UNL     1     -21.626 -12.540  -1.151  1.00  0.00     0.195 C 
HETATM    3  C   UNL     1     -21.034 -13.898  -0.781  1.00  0.00     0.198 C 
HETATM    4  C   UNL     1     -22.139 -14.898  -0.366  1.00  0.00     0.219 C 
HETATM    5  C   UNL     1     -23.070 -15.058  -1.578  1.00  0.00     0.299 C 
HETATM    6  O   UNL     1     -23.713 -13.786  -1.811  1.00  0.00    -0.348 OA
ENDROOT
BRANCH   1   7
HETATM    7  C   UNL     1     -22.315 -12.856  -3.617  1.00  0.00     0.205 C 
BRANCH   7   8
HETATM    8  O   UNL     1     -20.881 -12.918  -3.686  1.00  0.00    -0.356 OA
BRANCH   8   9
HETATM    9  C   UNL     1     -20.258 -11.644  -3.516  1.00  0.00     0.292 C 
HETATM   10  C   UNL     1     -20.519 -10.682  -4.738  1.00  0.00     0.219 C 
HETATM   11  C   UNL     1     -19.713  -9.395  -4.422  1.00  0.00     0.198 C 
HETATM   12  C   UNL     1     -18.232  -9.687  -4.177  1.00  0.00     0.192 C 
HETATM   13  C   UNL     1     -18.105 -10.668  -3.000  1.00  0.00     0.152 C 
HETATM   14  C   UNL     1     -18.442 -10.022  -1.652  1.00  0.00     0.042 C 
HETATM   15  O   UNL     1     -18.877 -11.851  -3.240  1.00  0.00    -0.351 OA
BRANCH  10  16
HETATM   16  O   UNL     1     -20.181 -11.273  -6.059  1.00  0.00    -0.308 OA
BRANCH  16  17
HETATM   17  C   UNL     1     -21.133 -11.922  -6.803  1.00  0.00     0.259 C 
HETATM   18  O   UNL     1     -22.158 -11.417  -7.264  1.00  0.00    -0.265 OA
BRANCH  17  19
HETATM   19  C   UNL     1     -20.878 -13.374  -7.130  1.00  0.00     0.121 C 
BRANCH  19  20
HETATM   20  C   UNL     1     -19.361 -13.630  -7.176  1.00  0.00     0.119 C 
BRANCH  20  21
HETATM   21  C   UNL     1     -18.470 -13.335  -8.364  1.00  0.00     0.139 C 
HETATM   22  O   UNL     1     -18.454 -12.339  -9.060  1.00  0.00    -0.650 OA
BRANCH  21  23
HETATM   23  O   UNL     1     -17.566 -14.336  -8.557  1.00  0.00    -0.776 OA
HETATM   24  H   UNL     1     -17.963 -15.214  -8.722  1.00  0.00     0.167 HD
ENDBRANCH  21  23
ENDBRANCH  20  21
ENDBRANCH  19  20
ENDBRANCH  17  19
ENDBRANCH  16  17
ENDBRANCH  10  16
BRANCH  11  25
HETATM   25  O   UNL     1     -19.910  -8.463  -5.513  1.00  0.00    -0.310 OA
BRANCH  25  26
HETATM   26  C   UNL     1     -20.502  -7.284  -5.250  1.00  0.00     0.259 C 
HETATM   27  O   UNL     1     -21.093  -7.004  -4.197  1.00  0.00    -0.265 OA
BRANCH  26  28
HETATM   28  C   UNL     1     -20.375  -6.386  -6.451  1.00  0.00     0.121 C 
BRANCH  28  29
HETATM   29  C   UNL     1     -21.243  -5.142  -6.301  1.00  0.00     0.119 C 
BRANCH  29  30
HETATM   30  C   UNL     1     -21.034  -4.105  -7.384  1.00  0.00     0.139 C 
HETATM   31  O   UNL     1     -19.954  -3.787  -7.856  1.00  0.00    -0.650 OA
BRANCH  30  32
HETATM   32  O   UNL     1     -22.161  -3.458  -7.733  1.00  0.00    -0.776 OA
HETATM   33  H   UNL     1     -22.875  -4.056  -8.038  1.00  0.00     0.167 HD
ENDBRANCH  30  32
ENDBRANCH  29  30
ENDBRANCH  28  29
ENDBRANCH  26  28
ENDBRANCH  25  26
ENDBRANCH  11  25
BRANCH  12  34
HETATM   34  O   UNL     1     -17.692 -10.248  -5.401  1.00  0.00    -0.311 OA
BRANCH  34  35
HETATM   35  C   UNL     1     -16.390 -10.007  -5.647  1.00  0.00     0.259 C 
HETATM   36  O   UNL     1     -15.967  -9.242  -6.505  1.00  0.00    -0.265 OA
BRANCH  35  37
HETATM   37  C   UNL     1     -15.510 -10.769  -4.689  1.00  0.00     0.121 C 
BRANCH  37  38
HETATM   38  C   UNL     1     -14.474 -11.622  -5.406  1.00  0.00     0.119 C 
BRANCH  38  39
HETATM   39  C   UNL     1     -15.070 -12.408  -6.542  1.00  0.00     0.139 C 
HETATM   40  O   UNL     1     -15.736 -13.421  -6.375  1.00  0.00    -0.650 OA
BRANCH  39  41
HETATM   41  O   UNL     1     -14.821 -11.921  -7.776  1.00  0.00    -0.776 OA
HETATM   42  H   UNL     1     -13.921 -11.577  -7.933  1.00  0.00     0.167 HD
ENDBRANCH  39  41
ENDBRANCH  38  39
ENDBRANCH  37  38
ENDBRANCH  35  37
ENDBRANCH  34  35
ENDBRANCH  12  34
ENDBRANCH   8   9
ENDBRANCH   7   8
ENDBRANCH   1   7
BRANCH   2  43
HETATM   43  O   UNL     1     -21.925 -11.969   0.148  1.00  0.00    -0.311 OA
BRANCH  43  44
HETATM   44  C   UNL     1     -21.738 -10.673   0.438  1.00  0.00     0.259 C 
HETATM   45  O   UNL     1     -20.804 -10.200   1.061  1.00  0.00    -0.265 OA
BRANCH  44  46
HETATM   46  C   UNL     1     -22.936  -9.913  -0.070  1.00  0.00     0.121 C 
BRANCH  46  47
HETATM   47  C   UNL     1     -22.844  -8.450   0.323  1.00  0.00     0.119 C 
BRANCH  47  48
HETATM   48  C   UNL     1     -22.401  -7.615  -0.855  1.00  0.00     0.139 C 
HETATM   49  O   UNL     1     -22.443  -6.398  -0.891  1.00  0.00    -0.650 OA
BRANCH  48  50
HETATM   50  O   UNL     1     -21.931  -8.358  -1.882  1.00  0.00    -0.776 OA
HETATM   51  H   UNL     1     -21.614  -9.244  -1.624  1.00  0.00     0.167 HD
ENDBRANCH  48  50
ENDBRANCH  47  48
ENDBRANCH  46  47
ENDBRANCH  44  46
ENDBRANCH  43  44
ENDBRANCH   2  43
BRANCH   3  52
HETATM   52  O   UNL     1     -20.128 -13.809   0.343  1.00  0.00    -0.310 OA
BRANCH  52  53
HETATM   53  C   UNL     1     -19.070 -14.652   0.412  1.00  0.00     0.259 C 
HETATM   54  O   UNL     1     -19.060 -15.710   1.019  1.00  0.00    -0.265 OA
BRANCH  53  55
HETATM   55  C   UNL     1     -17.871 -13.935  -0.208  1.00  0.00     0.121 C 
BRANCH  55  56
HETATM   56  C   UNL     1     -17.603 -12.666   0.610  1.00  0.00     0.119 C 
BRANCH  56  57
HETATM   57  C   UNL     1     -16.131 -12.603   0.556  1.00  0.00     0.139 C 
HETATM   58  O   UNL     1     -15.550 -11.524   0.538  1.00  0.00    -0.650 OA
BRANCH  57  59
HETATM   59  O   UNL     1     -15.506 -13.774   0.344  1.00  0.00    -0.776 OA
HETATM   60  H   UNL     1     -14.581 -13.801   0.015  1.00  0.00     0.167 HD
ENDBRANCH  57  59
ENDBRANCH  56  57
ENDBRANCH  55  56
ENDBRANCH  53  55
ENDBRANCH  52  53
ENDBRANCH   3  52
BRANCH   5  61
HETATM   61  O   UNL     1     -24.025 -16.112  -1.368  1.00  0.00    -0.311 OA
BRANCH  61  62
HETATM   62  C   UNL     1     -24.960 -16.381  -2.381  1.00  0.00     0.157 C 
HETATM   63  C   UNL     1     -26.188 -16.843  -2.074  1.00  0.00     0.124 C 
HETATM   64  O   UNL     1     -27.196 -17.182  -2.928  1.00  0.00    -0.306 OA
HETATM   65  C   UNL     1     -27.059 -16.863  -4.236  1.00  0.00     0.096 A 
HETATM   66  C   UNL     1     -28.232 -16.978  -4.988  1.00  0.00     0.075 A 
HETATM   67  C   UNL     1     -25.856 -16.436  -4.778  1.00  0.00     0.084 A 
HETATM   68  C   UNL     1     -28.198 -16.674  -6.332  1.00  0.00     0.071 A 
HETATM   69  C   UNL     1     -27.004 -16.334  -6.932  1.00  0.00     0.074 A 
HETATM   70  C   UNL     1     -25.853 -16.205  -6.150  1.00  0.00     0.085 A 
HETATM   71  C   UNL     1     -24.690 -16.212  -3.854  1.00  0.00     0.223 C 
HETATM   72  O   UNL     1     -23.583 -15.867  -4.256  1.00  0.00    -0.284 OA
BRANCH  63  73
HETATM   73  C   UNL     1     -26.670 -16.891  -0.712  1.00  0.00     0.004 C 
HETATM   74  C   UNL     1     -28.038 -16.659  -0.519  1.00  0.00     0.053 C 
HETATM   75  C   UNL     1     -28.522 -16.561   0.768  1.00  0.00     0.099 C 
HETATM   76  C   UNL     1     -27.648 -16.748   1.836  1.00  0.00     0.098 C 
HETATM   77  C   UNL     1     -26.316 -17.112   1.639  1.00  0.00     0.040 C 
HETATM   78  C   UNL     1     -25.816 -17.181   0.349  1.00  0.00     0.017 C 
BRANCH  75  79
HETATM   79  O   UNL     1     -29.824 -16.221   0.984  1.00  0.00    -0.358 OA
HETATM   80  H   UNL     1     -29.850 -15.382   1.473  1.00  0.00     0.217 HD
ENDBRANCH  75  79
BRANCH  76  81
HETATM   81  O   UNL     1     -28.054 -16.473   3.107  1.00  0.00    -0.358 OA
HETATM   82  H   UNL     1     -28.173 -17.355   3.504  1.00  0.00     0.217 HD
ENDBRANCH  76  81
ENDBRANCH  63  73
BRANCH  68  83
HETATM   83  O   UNL     1     -29.340 -16.559  -7.066  1.00  0.00    -0.361 OA
HETATM   84  H   UNL     1     -29.313 -15.714  -7.555  1.00  0.00     0.217 HD
ENDBRANCH  68  83
BRANCH  70  85
HETATM   85  O   UNL     1     -24.739 -15.835  -6.812  1.00  0.00    -0.360 OA
HETATM   86  H   UNL     1     -24.114 -16.596  -6.781  1.00  0.00     0.217 HD
ENDBRANCH  70  85
ENDBRANCH  61  62
ENDBRANCH   5  61
BRANCH   4  87
HETATM   87  O   UNL     1     -22.889 -14.426   0.806  1.00  0.00    -0.308 OA
BRANCH  87  88
HETATM   88  C   UNL     1     -22.887 -15.237   1.897  1.00  0.00     0.259 C 
HETATM   89  O   UNL     1     -22.570 -16.423   1.877  1.00  0.00    -0.265 OA
BRANCH  88  90
HETATM   90  C   UNL     1     -23.330 -14.581   3.186  1.00  0.00     0.121 C 
BRANCH  90  91
HETATM   91  C   UNL     1     -24.409 -15.280   3.992  1.00  0.00     0.119 C 
BRANCH  91  92
HETATM   92  C   UNL     1     -23.913 -15.684   5.354  1.00  0.00     0.139 C 
HETATM   93  O   UNL     1     -22.758 -16.013   5.587  1.00  0.00    -0.650 OA
BRANCH  92  94
HETATM   94  O   UNL     1     -24.861 -15.637   6.313  1.00  0.00    -0.776 OA
HETATM   95  H   UNL     1     -25.697 -15.212   6.034  1.00  0.00     0.167 HD
ENDBRANCH  92  94
ENDBRANCH  91  92
ENDBRANCH  90  91
ENDBRANCH  88  90
ENDBRANCH  87  88
ENDBRANCH   4  87
TORSDOF 46
BEGIN_RES ARG D 557
REMARK  4 active torsions:
REMARK  status: ('A' for Active; 'I' for Inactive)
REMARK    1  A    between atoms: CA   and  CB  
REMARK    2  A    between atoms: CB   and  CG  
REMARK    3  A    between atoms: CG   and  CD  
REMARK    4  A    between atoms: CD   and  NE  
REMARK       I    between atoms: NE   and  CZ  
REMARK       I    between atoms: CZ   and  NH1 
REMARK       I    between atoms: CZ   and  NH2 
ROOT
ATOM      1  CA  ARG D 557     -26.217   2.705 -17.014  1.00 35.49     0.159 C 
ENDROOT
BRANCH   1   2
ATOM      2  CB  ARG D 557     -26.789   1.319 -17.183  1.00 35.49     0.034 C 
BRANCH   2   3
ATOM      3  CG  ARG D 557     -25.902   0.194 -16.861  1.00 35.49     0.027 C 
BRANCH   3   4
ATOM      4  CD  ARG D 557     -26.584  -0.854 -16.069  1.00 35.49     0.116 C 
BRANCH   4   5
ATOM      5  NE  ARG D 557     -25.736  -1.395 -15.040  1.00 35.49    -0.212 N 
ATOM      6  CZ  ARG D 557     -25.706  -2.649 -14.649  1.00 35.49     0.666 C 
ATOM      7  NH1 ARG D 557     -26.492  -3.573 -15.171  1.00 35.49    -0.235 N 
ATOM      8  NH2 ARG D 557     -24.857  -2.967 -13.716  1.00 35.49    -0.235 N 
ATOM      9  HH  ARG D 557     -27.057  -3.386 -15.788  1.00 35.49     0.174 HD
ATOM     10  HH  ARG D 557     -26.426  -4.376 -14.878  1.00 35.49     0.174 HD
ATOM     11  HH  ARG D 557     -24.357  -2.351 -13.403  1.00 35.49     0.174 HD
ATOM     12  HH  ARG D 557     -24.806  -3.768 -13.441  1.00 35.49     0.174 HD
ATOM     13  HE  ARG D 557     -25.248  -0.855 -14.600  1.00 35.49     0.178 HD
ENDBRANCH   4   5
ENDBRANCH   3   4
ENDBRANCH   2   3
ENDBRANCH   1   2
END_RES ARG D 557
BEGIN_RES GLU D 570
REMARK  3 active torsions:
REMARK  status: ('A' for Active; 'I' for Inactive)
REMARK    5  A    between atoms: CA   and  CB  
REMARK    6  A    between atoms: CB   and  CG  
REMARK    7  A    between atoms: CG   and  CD  
ROOT
ATOM     14  CA  GLU D 570     -18.033  -6.348 -13.375  1.00 32.92     0.160 C 
ENDROOT
BRANCH  14  15
ATOM     15  CB  GLU D 570     -19.500  -6.345 -13.794  1.00 32.92     0.043 C 
BRANCH  15  16
ATOM     16  CG  GLU D 570     -20.416  -5.424 -13.072  1.00 32.92     0.100 C 
BRANCH  16  17
ATOM     17  CD  GLU D 570     -21.710  -5.179 -13.814  1.00 32.92     0.185 C 
ATOM     18  OE1 GLU D 570     -22.791  -5.393 -13.232  1.00 32.92    -0.647 OA
ATOM     19  OE2 GLU D 570     -21.641  -4.785 -14.995  1.00 32.92    -0.647 OA
ENDBRANCH  16  17
ENDBRANCH  15  16
ENDBRANCH  14  15
END_RES GLU D 570
ENDMDL
MODEL 2
REMARK VINA RESULT:      -6.0      1.540      2.382
REMARK WARNING: 32 MAX_TORS EXCEEDED!!!
REMARK  46 active torsions:
REMARK  status: ('A' for Active; 'I' for Inactive)
REMARK    1  A    between atoms: C_3  and  O_78 
REMARK    2  A    between atoms: C_4  and  O_70 
REMARK    3  A    between atoms: C_5  and  O_62 
REMARK    4  A    between atoms: C_6  and  O_8 
REMARK    5  A    between atoms: O_8  and  C_9 
REMARK    6  A    between atoms: C_9  and  C_10 
REMARK    7  A    between atoms: C_11  and  O_54 
REMARK    8  A    between atoms: C_12  and  O_46 
REMARK    9  A    between atoms: C_13  and  O_38 
REMARK   10  A    between atoms: C_14  and  O_16 
REMARK   11  A    between atoms: O_16  and  C_17 
REMARK   12  A    between atoms: C_18  and  C_30 
REMARK   13  A    between atoms: C_22  and  O_29 
REMARK   14  A    between atoms: C_24  and  O_28 
REMARK   15  A    between atoms: C_32  and  O_37 
REMARK   16  A    between atoms: C_33  and  O_36 
REMARK   17  A    between atoms: O_38  and  C_39 
REMARK   18  A    between atoms: C_39  and  C_41 
REMARK   19  A    between atoms: C_41  and  C_42 
REMARK   20  A    between atoms: C_42  and  C_43 
REMARK   21  A    between atoms: C_43  and  O_45 
REMARK   22  A    between atoms: O_46  and  C_47 
REMARK   23  A    between atoms: C_47  and  C_49 
REMARK   24  A    between atoms: C_49  and  C_50 
REMARK   25  A    between atoms: C_50  and  C_51 
REMARK   26  A    between atoms: C_51  and  O_53 
REMARK   27  A    between atoms: O_54  and  C_55 
REMARK   28  A    between atoms: C_55  and  C_57 
REMARK   29  A    between atoms: C_57  and  C_58 
REMARK   30  A    between atoms: C_58  and  C_59 
REMARK   31  A    between atoms: C_59  and  O_61 
REMARK   32  A    between atoms: O_62  and  C_63 
REMARK   33  A    between atoms: C_63  and  C_65 
REMARK   34  A    between atoms: C_65  and  C_66 
REMARK   35  A    between atoms: C_66  and  C_67 
REMARK   36  A    between atoms: C_67  and  O_69 
REMARK   37  A    between atoms: O_70  and  C_71 
REMARK   38  A    between atoms: C_71  and  C_73 
REMARK   39  A    between atoms: C_73  and  C_74 
REMARK   40  A    between atoms: C_74  and  C_75 
REMARK   41  A    between atoms: C_75  and  O_77 
REMARK   42  A    between atoms: O_78  and  C_79 
REMARK   43  A    between atoms: C_79  and  C_81 
REMARK   44  A    between atoms: C_81  and  C_82 
REMARK   45  A    between atoms: C_82  and  C_83 
REMARK   46  A    between atoms: C_83  and  O_85 
ROOT
HETATM    1  C   UNL     1     -22.749 -12.029  -1.511  1.00  0.00     0.180 C 
HETATM    2  C   UNL     1     -21.249 -11.973  -1.113  1.00  0.00     0.195 C 
HETATM    3  C   UNL     1     -20.559 -13.300  -1.420  1.00  0.00     0.198 C 
HETATM    4  C   UNL     1     -21.364 -14.495  -0.858  1.00  0.00     0.219 C 
HETATM    5  C   UNL     1     -22.741 -14.462  -1.542  1.00  0.00     0.299 C 
HETATM    6  O   UNL     1     -23.416 -13.258  -1.119  1.00  0.00    -0.348 OA
ENDROOT
BRANCH   1   7
HETATM    7  C   UNL     1     -22.971 -11.754  -3.022  1.00  0.00     0.205 C 
BRANCH   7   8
HETATM    8  O   UNL     1     -21.723 -11.722  -3.734  1.00  0.00    -0.356 OA
BRANCH   8   9
HETATM    9  C   UNL     1     -21.155 -10.414  -3.805  1.00  0.00     0.292 C 
HETATM   10  C   UNL     1     -21.441  -9.711  -5.189  1.00  0.00     0.219 C 
HETATM   11  C   UNL     1     -20.692  -8.354  -5.118  1.00  0.00     0.198 C 
HETATM   12  C   UNL     1     -19.203  -8.532  -4.817  1.00  0.00     0.192 C 
HETATM   13  C   UNL     1     -19.049  -9.268  -3.476  1.00  0.00     0.152 C 
HETATM   14  C   UNL     1     -19.428  -8.394  -2.275  1.00  0.00     0.042 C 
HETATM   15  O   UNL     1     -19.769 -10.506  -3.490  1.00  0.00    -0.351 OA
BRANCH  10  16
HETATM   16  O   UNL     1     -21.063 -10.526  -6.373  1.00  0.00    -0.308 OA
BRANCH  16  17
HETATM   17  C   UNL     1     -21.396 -11.855  -6.446  1.00  0.00     0.259 C 
HETATM   18  O   UNL     1     -22.538 -12.314  -6.455  1.00  0.00    -0.265 OA
BRANCH  17  19
HETATM   19  C   UNL     1     -20.260 -12.841  -6.578  1.00  0.00     0.121 C 
BRANCH  19  20
HETATM   20  C   UNL     1     -20.558 -14.084  -5.720  1.00  0.00     0.119 C 
BRANCH  20  21
HETATM   21  C   UNL     1     -20.969 -15.435  -6.268  1.00  0.00     0.139 C 
HETATM   22  O   UNL     1     -20.361 -16.485  -6.207  1.00  0.00    -0.650 OA
BRANCH  21  23
HETATM   23  O   UNL     1     -22.214 -15.379  -6.818  1.00  0.00    -0.776 OA
HETATM   24  H   UNL     1     -22.627 -16.252  -6.975  1.00  0.00     0.167 HD
ENDBRANCH  21  23
ENDBRANCH  20  21
ENDBRANCH  19  20
ENDBRANCH  17  19
ENDBRANCH  16  17
ENDBRANCH  10  16
BRANCH  11  25
HETATM   25  O   UNL     1     -20.914  -7.654  -6.366  1.00  0.00    -0.310 OA
BRANCH  25  26
HETATM   26  C   UNL     1     -20.982  -6.311  -6.344  1.00  0.00     0.259 C 
HETATM   27  O   UNL     1     -21.813  -5.650  -5.706  1.00  0.00    -0.265 OA
BRANCH  26  28
HETATM   28  C   UNL     1     -19.923  -5.746  -7.253  1.00  0.00     0.121 C 
BRANCH  28  29
HETATM   29  C   UNL     1     -20.290  -4.342  -7.718  1.00  0.00     0.119 C 
BRANCH  29  30
HETATM   30  C   UNL     1     -21.562  -4.272  -8.536  1.00  0.00     0.139 C 
HETATM   31  O   UNL     1     -21.702  -4.727  -9.660  1.00  0.00    -0.650 OA
BRANCH  30  32
HETATM   32  O   UNL     1     -22.538  -3.554  -7.951  1.00  0.00    -0.776 OA
HETATM   33  H   UNL     1     -22.249  -2.660  -7.671  1.00  0.00     0.167 HD
ENDBRANCH  30  32
ENDBRANCH  29  30
ENDBRANCH  28  29
ENDBRANCH  26  28
ENDBRANCH  25  26
ENDBRANCH  11  25
BRANCH  12  34
HETATM   34  O   UNL     1     -18.627  -9.290  -5.911  1.00  0.00    -0.311 OA
BRANCH  34  35
HETATM   35  C   UNL     1     -17.416  -9.837  -5.688  1.00  0.00     0.259 C 
HETATM   36  O   UNL     1     -16.556  -9.365  -4.954  1.00  0.00    -0.265 OA
BRANCH  35  37
HETATM   37  C   UNL     1     -17.270 -11.143  -6.427  1.00  0.00     0.121 C 
BRANCH  37  38
HETATM   38  C   UNL     1     -16.813 -12.275  -5.519  1.00  0.00     0.119 C 
BRANCH  38  39
HETATM   39  C   UNL     1     -15.320 -12.460  -5.546  1.00  0.00     0.139 C 
HETATM   40  O   UNL     1     -14.759 -13.256  -6.287  1.00  0.00    -0.650 OA
BRANCH  39  41
HETATM   41  O   UNL     1     -14.624 -11.682  -4.689  1.00  0.00    -0.776 OA
HETATM   42  H   UNL     1     -13.928 -12.126  -4.168  1.00  0.00     0.167 HD
ENDBRANCH  39  41
ENDBRANCH  38  39
ENDBRANCH  37  38
ENDBRANCH  35  37
ENDBRANCH  34  35
ENDBRANCH  12  34
ENDBRANCH   8   9
ENDBRANCH   7   8
ENDBRANCH   1   7
BRANCH   2  43
HETATM   43  O   UNL     1     -20.932 -11.776   0.288  1.00  0.00    -0.311 OA
BRANCH  43  44
HETATM   44  C   UNL     1     -20.715 -10.568   0.827  1.00  0.00     0.259 C 
HETATM   45  O   UNL     1     -20.147 -10.339   1.880  1.00  0.00    -0.265 OA
BRANCH  44  46
HETATM   46  C   UNL     1     -21.378  -9.545  -0.059  1.00  0.00     0.121 C 
BRANCH  46  47
HETATM   47  C   UNL     1     -21.580  -8.241   0.690  1.00  0.00     0.119 C 
BRANCH  47  48
HETATM   48  C   UNL     1     -22.713  -7.453   0.077  1.00  0.00     0.139 C 
HETATM   49  O   UNL     1     -22.587  -6.682  -0.858  1.00  0.00    -0.650 OA
BRANCH  48  50
HETATM   50  O   UNL     1     -23.905  -7.696   0.664  1.00  0.00    -0.776 OA
HETATM   51  H   UNL     1     -24.672  -7.611   0.066  1.00  0.00     0.167 HD
ENDBRANCH  48  50
ENDBRANCH  47  48
ENDBRANCH  46  47
ENDBRANCH  44  46
ENDBRANCH  43  44
ENDBRANCH   2  43
BRANCH   3  52
HETATM   52  O   UNL     1     -19.245 -13.382  -0.821  1.00  0.00    -0.310 OA
BRANCH  52  53
HETATM   53  C   UNL     1     -18.154 -13.099  -1.571  1.00  0.00     0.259 C 
HETATM   54  O   UNL     1     -17.597 -13.886  -2.317  1.00  0.00    -0.265 OA
BRANCH  53  55
HETATM   55  C   UNL     1     -17.646 -11.722  -1.141  1.00  0.00     0.121 C 
BRANCH  55  56
HETATM   56  C   UNL     1     -16.133 -11.824  -0.916  1.00  0.00     0.119 C 
BRANCH  56  57
HETATM   57  C   UNL     1     -16.079 -12.008   0.546  1.00  0.00     0.139 C 
HETATM   58  O   UNL     1     -15.168 -12.644   1.064  1.00  0.00    -0.650 OA
BRANCH  57  59
HETATM   59  O   UNL     1     -17.166 -11.603   1.223  1.00  0.00    -0.776 OA
HETATM   60  H   UNL     1     -17.375 -10.648   1.319  1.00  0.00     0.167 HD
ENDBRANCH  57  59
ENDBRANCH  56  57
ENDBRANCH  55  56
ENDBRANCH  53  55
ENDBRANCH  52  53
ENDBRANCH   3  52
BRANCH   5  61
HETATM   61  O   UNL     1     -23.504 -15.642  -1.235  1.00  0.00    -0.311 OA
BRANCH  61  62
HETATM   62  C   UNL     1     -24.502 -16.047  -2.138  1.00  0.00     0.157 C 
HETATM   63  C   UNL     1     -25.599 -16.694  -1.699  1.00  0.00     0.124 C 
HETATM   64  O   UNL     1     -26.638 -17.181  -2.436  1.00  0.00    -0.306 OA
HETATM   65  C   UNL     1     -26.710 -16.838  -3.742  1.00  0.00     0.096 A 
HETATM   66  C   UNL     1     -27.934 -17.129  -4.354  1.00  0.00     0.075 A 
HETATM   67  C   UNL     1     -25.660 -16.228  -4.413  1.00  0.00     0.084 A 
HETATM   68  C   UNL     1     -28.108 -16.817  -5.685  1.00  0.00     0.071 A 
HETATM   69  C   UNL     1     -27.060 -16.293  -6.413  1.00  0.00     0.074 A 
HETATM   70  C   UNL     1     -25.858 -15.992  -5.769  1.00  0.00     0.085 A 
HETATM   71  C   UNL     1     -24.440 -15.830  -3.628  1.00  0.00     0.223 C 
HETATM   72  O   UNL     1     -23.454 -15.317  -4.149  1.00  0.00    -0.284 OA
BRANCH  63  73
HETATM   73  C   UNL     1     -25.901 -16.823  -0.291  1.00  0.00     0.004 C 
HETATM   74  C   UNL     1     -27.254 -16.783   0.070  1.00  0.00     0.053 C 
HETATM   75  C   UNL     1     -27.586 -16.767   1.407  1.00  0.00     0.099 C 
HETATM   76  C   UNL     1     -26.572 -16.844   2.358  1.00  0.00     0.098 C 
HETATM   77  C   UNL     1     -25.237 -17.020   1.995  1.00  0.00     0.040 C 
HETATM   78  C   UNL     1     -24.892 -17.006   0.653  1.00  0.00     0.017 C 
BRANCH  75  79
HETATM   79  O   UNL     1     -28.886 -16.610   1.786  1.00  0.00    -0.358 OA
HETATM   80  H   UNL     1     -29.326 -17.475   1.759  1.00  0.00     0.217 HD
ENDBRANCH  75  79
BRANCH  76  81
HETATM   81  O   UNL     1     -26.853 -16.641   3.676  1.00  0.00    -0.358 OA
HETATM   82  H   UNL     1     -27.425 -15.852   3.667  1.00  0.00     0.217 HD
ENDBRANCH  76  81
ENDBRANCH  63  73
BRANCH  68  83
HETATM   83  O   UNL     1     -29.334 -16.876  -6.276  1.00  0.00    -0.361 OA
HETATM   84  H   UNL     1     -29.214 -16.883  -7.246  1.00  0.00     0.217 HD
ENDBRANCH  68  83
BRANCH  70  85
HETATM   85  O   UNL     1     -24.900 -15.450  -6.550  1.00  0.00    -0.360 OA
HETATM   86  H   UNL     1     -24.099 -16.016  -6.462  1.00  0.00     0.217 HD
ENDBRANCH  70  85
ENDBRANCH  61  62
ENDBRANCH   5  61
BRANCH   4  87
HETATM   87  O   UNL     1     -21.508 -14.417   0.602  1.00  0.00    -0.308 OA
BRANCH  87  88
HETATM   88  C   UNL     1     -21.136 -15.516   1.310  1.00  0.00     0.259 C 
HETATM   89  O   UNL     1     -21.298 -15.648   2.520  1.00  0.00    -0.265 OA
BRANCH  88  90
HETATM   90  C   UNL     1     -20.467 -16.605   0.500  1.00  0.00     0.121 C 
BRANCH  90  91
HETATM   91  C   UNL     1     -19.172 -17.183   1.039  1.00  0.00     0.119 C 
BRANCH  91  92
HETATM   92  C   UNL     1     -18.002 -16.277   0.766  1.00  0.00     0.139 C 
HETATM   93  O   UNL     1     -17.304 -15.786   1.642  1.00  0.00    -0.650 OA
BRANCH  92  94
HETATM   94  O   UNL     1     -17.776 -16.063  -0.546  1.00  0.00    -0.776 OA
HETATM   95  H   UNL     1     -17.117 -15.365  -0.734  1.00  0.00     0.167 HD
ENDBRANCH  92  94
ENDBRANCH  91  92
ENDBRANCH  90  91
ENDBRANCH  88  90
ENDBRANCH  87  88
ENDBRANCH   4  87
TORSDOF 46
BEGIN_RES ARG D 557
REMARK  4 active torsions:
REMARK  status: ('A' for Active; 'I' for Inactive)
REMARK    1  A    between atoms: CA   and  CB  
REMARK    2  A    between atoms: CB   and  CG  
REMARK    3  A    between atoms: CG   and  CD  
REMARK    4  A    between atoms: CD   and  NE  
REMARK       I    between atoms: NE   and  CZ  
REMARK       I    between atoms: CZ   and  NH1 
REMARK       I    between atoms: CZ   and  NH2 
ROOT
ATOM      1  CA  ARG D 557     -26.217   2.705 -17.014  1.00 35.49     0.159 C 
ENDROOT
BRANCH   1   2
ATOM      2  CB  ARG D 557     -26.789   1.319 -17.183  1.00 35.49     0.034 C 
BRANCH   2   3
ATOM      3  CG  ARG D 557     -25.917   0.196 -16.819  1.00 35.49     0.027 C 
BRANCH   3   4
ATOM      4  CD  ARG D 557     -26.639  -0.861 -16.075  1.00 35.49     0.116 C 
BRANCH   4   5
ATOM      5  NE  ARG D 557     -25.805  -1.496 -15.088  1.00 35.49    -0.212 N 
ATOM      6  CZ  ARG D 557     -24.582  -1.137 -14.771  1.00 35.49     0.666 C 
ATOM      7  NH1 ARG D 557     -23.965  -0.127 -15.356  1.00 35.49    -0.235 N 
ATOM      8  NH2 ARG D 557     -23.981  -1.814 -13.836  1.00 35.49    -0.235 N 
ATOM      9  HH  ARG D 557     -24.342   0.334 -15.972  1.00 35.49     0.174 HD
ATOM     10  HH  ARG D 557     -23.167   0.063 -15.106  1.00 35.49     0.174 HD
ATOM     11  HH  ARG D 557     -24.406  -2.457 -13.471  1.00 35.49     0.174 HD
ATOM     12  HH  ARG D 557     -23.192  -1.610 -13.601  1.00 35.49     0.174 HD
ATOM     13  HE  ARG D 557     -26.097  -2.201 -14.713  1.00 35.49     0.178 HD
ENDBRANCH   4   5
ENDBRANCH   3   4
ENDBRANCH   2   3
ENDBRANCH   1   2
END_RES ARG D 557
BEGIN_RES GLU D 570
REMARK  3 active torsions:
REMARK  status: ('A' for Active; 'I' for Inactive)
REMARK    5  A    between atoms: CA   and  CB  
REMARK    6  A    between atoms: CB   and  CG  
REMARK    7  A    between atoms: CG   and  CD  
ROOT
ATOM     14  CA  GLU D 570     -18.033  -6.348 -13.375  1.00 32.92     0.160 C 
ENDROOT
BRANCH  14  15
ATOM     15  CB  GLU D 570     -19.500  -6.345 -13.794  1.00 32.92     0.043 C 
BRANCH  15  16
ATOM     16  CG  GLU D 570     -20.482  -5.759 -12.845  1.00 32.92     0.100 C 
BRANCH  16  17
ATOM     17  CD  GLU D 570     -21.660  -5.116 -13.539  1.00 32.92     0.185 C 
ATOM     18  OE1 GLU D 570     -22.147  -5.670 -14.543  1.00 32.92    -0.647 OA
ATOM     19  OE2 GLU D 570     -22.091  -4.039 -13.083  1.00 32.92    -0.647 OA
ENDBRANCH  16  17
ENDBRANCH  15  16
ENDBRANCH  14  15
END_RES GLU D 570
ENDMDL
MODEL 3
REMARK VINA RESULT:      -5.5      1.953      4.104
REMARK WARNING: 32 MAX_TORS EXCEEDED!!!
REMARK  46 active torsions:
REMARK  status: ('A' for Active; 'I' for Inactive)
REMARK    1  A    between atoms: C_3  and  O_78 
REMARK    2  A    between atoms: C_4  and  O_70 
REMARK    3  A    between atoms: C_5  and  O_62 
REMARK    4  A    between atoms: C_6  and  O_8 
REMARK    5  A    between atoms: O_8  and  C_9 
REMARK    6  A    between atoms: C_9  and  C_10 
REMARK    7  A    between atoms: C_11  and  O_54 
REMARK    8  A    between atoms: C_12  and  O_46 
REMARK    9  A    between atoms: C_13  and  O_38 
REMARK   10  A    between atoms: C_14  and  O_16 
REMARK   11  A    between atoms: O_16  and  C_17 
REMARK   12  A    between atoms: C_18  and  C_30 
REMARK   13  A    between atoms: C_22  and  O_29 
REMARK   14  A    between atoms: C_24  and  O_28 
REMARK   15  A    between atoms: C_32  and  O_37 
REMARK   16  A    between atoms: C_33  and  O_36 
REMARK   17  A    between atoms: O_38  and  C_39 
REMARK   18  A    between atoms: C_39  and  C_41 
REMARK   19  A    between atoms: C_41  and  C_42 
REMARK   20  A    between atoms: C_42  and  C_43 
REMARK   21  A    between atoms: C_43  and  O_45 
REMARK   22  A    between atoms: O_46  and  C_47 
REMARK   23  A    between atoms: C_47  and  C_49 
REMARK   24  A    between atoms: C_49  and  C_50 
REMARK   25  A    between atoms: C_50  and  C_51 
REMARK   26  A    between atoms: C_51  and  O_53 
REMARK   27  A    between atoms: O_54  and  C_55 
REMARK   28  A    between atoms: C_55  and  C_57 
REMARK   29  A    between atoms: C_57  and  C_58 
REMARK   30  A    between atoms: C_58  and  C_59 
REMARK   31  A    between atoms: C_59  and  O_61 
REMARK   32  A    between atoms: O_62  and  C_63 
REMARK   33  A    between atoms: C_63  and  C_65 
REMARK   34  A    between atoms: C_65  and  C_66 
REMARK   35  A    between atoms: C_66  and  C_67 
REMARK   36  A    between atoms: C_67  and  O_69 
REMARK   37  A    between atoms: O_70  and  C_71 
REMARK   38  A    between atoms: C_71  and  C_73 
REMARK   39  A    between atoms: C_73  and  C_74 
REMARK   40  A    between atoms: C_74  and  C_75 
REMARK   41  A    between atoms: C_75  and  O_77 
REMARK   42  A    between atoms: O_78  and  C_79 
REMARK   43  A    between atoms: C_79  and  C_81 
REMARK   44  A    between atoms: C_81  and  C_82 
REMARK   45  A    between atoms: C_82  and  C_83 
REMARK   46  A    between atoms: C_83  and  O_85 
ROOT
HETATM    1  C   UNL     1     -21.770 -11.404  -1.432  1.00  0.00     0.180 C 
HETATM    2  C   UNL     1     -20.258 -11.291  -1.098  1.00  0.00     0.195 C 
HETATM    3  C   UNL     1     -19.509 -12.540  -1.558  1.00  0.00     0.198 C 
HETATM    4  C   UNL     1     -20.215 -13.828  -1.075  1.00  0.00     0.219 C 
HETATM    5  C   UNL     1     -21.624 -13.819  -1.691  1.00  0.00     0.299 C 
HETATM    6  O   UNL     1     -22.344 -12.702  -1.127  1.00  0.00    -0.348 OA
ENDROOT
BRANCH   1   7
HETATM    7  C   UNL     1     -22.083 -11.007  -2.899  1.00  0.00     0.205 C 
BRANCH   7   8
HETATM    8  O   UNL     1     -21.107 -10.082  -3.408  1.00  0.00    -0.356 OA
BRANCH   8   9
HETATM    9  C   UNL     1     -21.602  -8.747  -3.507  1.00  0.00     0.292 C 
HETATM   10  C   UNL     1     -21.854  -8.311  -5.002  1.00  0.00     0.219 C 
HETATM   11  C   UNL     1     -22.305  -6.829  -4.923  1.00  0.00     0.198 C 
HETATM   12  C   UNL     1     -21.285  -5.953  -4.193  1.00  0.00     0.192 C 
HETATM   13  C   UNL     1     -21.086  -6.500  -2.770  1.00  0.00     0.152 C 
HETATM   14  C   UNL     1     -22.299  -6.252  -1.866  1.00  0.00     0.042 C 
HETATM   15  O   UNL     1     -20.714  -7.883  -2.805  1.00  0.00    -0.351 OA
BRANCH  10  16
HETATM   16  O   UNL     1     -20.688  -8.519  -5.900  1.00  0.00    -0.308 OA
BRANCH  16  17
HETATM   17  C   UNL     1     -19.848  -9.589  -5.722  1.00  0.00     0.259 C 
HETATM   18  O   UNL     1     -20.090 -10.757  -6.026  1.00  0.00    -0.265 OA
BRANCH  17  19
HETATM   19  C   UNL     1     -18.481  -9.300  -5.148  1.00  0.00     0.121 C 
BRANCH  19  20
HETATM   20  C   UNL     1     -17.400  -9.728  -6.157  1.00  0.00     0.119 C 
BRANCH  20  21
HETATM   21  C   UNL     1     -16.534 -10.963  -6.025  1.00  0.00     0.139 C 
HETATM   22  O   UNL     1     -15.322 -11.026  -5.969  1.00  0.00    -0.650 OA
BRANCH  21  23
HETATM   23  O   UNL     1     -17.298 -12.083  -5.895  1.00  0.00    -0.776 OA
HETATM   24  H   UNL     1     -17.954 -12.044  -5.171  1.00  0.00     0.167 HD
ENDBRANCH  21  23
ENDBRANCH  20  21
ENDBRANCH  19  20
ENDBRANCH  17  19
ENDBRANCH  16  17
ENDBRANCH  10  16
BRANCH  11  25
HETATM   25  O   UNL     1     -22.554  -6.363  -6.272  1.00  0.00    -0.310 OA
BRANCH  25  26
HETATM   26  C   UNL     1     -23.421  -5.351  -6.451  1.00  0.00     0.259 C 
HETATM   27  O   UNL     1     -24.484  -5.207  -5.831  1.00  0.00    -0.265 OA
BRANCH  26  28
HETATM   28  C   UNL     1     -22.920  -4.457  -7.553  1.00  0.00     0.121 C 
BRANCH  28  29
HETATM   29  C   UNL     1     -24.016  -4.178  -8.575  1.00  0.00     0.119 C 
BRANCH  29  30
HETATM   30  C   UNL     1     -23.582  -4.353 -10.014  1.00  0.00     0.139 C 
HETATM   31  O   UNL     1     -23.811  -5.332 -10.706  1.00  0.00    -0.650 OA
BRANCH  30  32
HETATM   32  O   UNL     1     -22.803  -3.351 -10.465  1.00  0.00    -0.776 OA
HETATM   33  H   UNL     1     -22.377  -3.547 -11.326  1.00  0.00     0.167 HD
ENDBRANCH  30  32
ENDBRANCH  29  30
ENDBRANCH  28  29
ENDBRANCH  26  28
ENDBRANCH  25  26
ENDBRANCH  11  25
BRANCH  12  34
HETATM   34  O   UNL     1     -20.054  -5.992  -4.957  1.00  0.00    -0.311 OA
BRANCH  34  35
HETATM   35  C   UNL     1     -19.849  -4.975  -5.816  1.00  0.00     0.259 C 
HETATM   36  O   UNL     1     -20.223  -3.822  -5.641  1.00  0.00    -0.265 OA
BRANCH  35  37
HETATM   37  C   UNL     1     -19.048  -5.429  -7.010  1.00  0.00     0.121 C 
BRANCH  37  38
HETATM   38  C   UNL     1     -19.923  -5.710  -8.222  1.00  0.00     0.119 C 
BRANCH  38  39
HETATM   39  C   UNL     1     -19.910  -4.575  -9.210  1.00  0.00     0.139 C 
HETATM   40  O   UNL     1     -20.074  -4.734 -10.412  1.00  0.00    -0.650 OA
BRANCH  39  41
HETATM   41  O   UNL     1     -19.704  -3.351  -8.681  1.00  0.00    -0.776 OA
HETATM   42  H   UNL     1     -20.432  -2.980  -8.147  1.00  0.00     0.167 HD
ENDBRANCH  39  41
ENDBRANCH  38  39
ENDBRANCH  37  38
ENDBRANCH  35  37
ENDBRANCH  34  35
ENDBRANCH  12  34
ENDBRANCH   8   9
ENDBRANCH   7   8
ENDBRANCH   1   7
BRANCH   2  43
HETATM   43  O   UNL     1     -19.883 -11.203   0.300  1.00  0.00    -0.311 OA
BRANCH  43  44
HETATM   44  C   UNL     1     -20.284 -10.209   1.105  1.00  0.00     0.259 C 
HETATM   45  O   UNL     1     -20.314 -10.233   2.322  1.00  0.00    -0.265 OA
BRANCH  44  46
HETATM   46  C   UNL     1     -20.777  -9.083   0.232  1.00  0.00     0.121 C 
BRANCH  46  47
HETATM   47  C   UNL     1     -21.723  -8.184   1.005  1.00  0.00     0.119 C 
BRANCH  47  48
HETATM   48  C   UNL     1     -23.153  -8.457   0.604  1.00  0.00     0.139 C 
HETATM   49  O   UNL     1     -23.576  -9.548   0.264  1.00  0.00    -0.650 OA
BRANCH  48  50
HETATM   50  O   UNL     1     -23.940  -7.360   0.672  1.00  0.00    -0.776 OA
HETATM   51  H   UNL     1     -23.600  -6.592   0.176  1.00  0.00     0.167 HD
ENDBRANCH  48  50
ENDBRANCH  47  48
ENDBRANCH  46  47
ENDBRANCH  44  46
ENDBRANCH  43  44
ENDBRANCH   2  43
BRANCH   3  52
HETATM   52  O   UNL     1     -18.164 -12.594  -1.029  1.00  0.00    -0.310 OA
BRANCH  52  53
HETATM   53  C   UNL     1     -17.167 -11.951  -1.680  1.00  0.00     0.259 C 
HETATM   54  O   UNL     1     -17.187 -11.648  -2.861  1.00  0.00    -0.265 OA
BRANCH  53  55
HETATM   55  C   UNL     1     -15.968 -11.885  -0.733  1.00  0.00     0.121 C 
BRANCH  55  56
HETATM   56  C   UNL     1     -16.488 -12.036   0.701  1.00  0.00     0.119 C 
BRANCH  56  57
HETATM   57  C   UNL     1     -15.518 -13.001   1.251  1.00  0.00     0.139 C 
HETATM   58  O   UNL     1     -14.827 -13.688   0.508  1.00  0.00    -0.650 OA
BRANCH  57  59
HETATM   59  O   UNL     1     -15.585 -13.199   2.579  1.00  0.00    -0.776 OA
HETATM   60  H   UNL     1     -16.055 -12.562   3.162  1.00  0.00     0.167 HD
ENDBRANCH  57  59
ENDBRANCH  56  57
ENDBRANCH  55  56
ENDBRANCH  53  55
ENDBRANCH  52  53
ENDBRANCH   3  52
BRANCH   5  61
HETATM   61  O   UNL     1     -22.301 -15.066  -1.463  1.00  0.00    -0.311 OA
BRANCH  61  62
HETATM   62  C   UNL     1     -23.229 -15.509  -2.421  1.00  0.00     0.157 C 
HETATM   63  C   UNL     1     -24.373 -16.110  -2.038  1.00  0.00     0.124 C 
HETATM   64  O   UNL     1     -25.357 -16.624  -2.830  1.00  0.00    -0.306 OA
HETATM   65  C   UNL     1     -25.311 -16.361  -4.156  1.00  0.00     0.096 A 
HETATM   66  C   UNL     1     -26.486 -16.669  -4.851  1.00  0.00     0.075 A 
HETATM   67  C   UNL     1     -24.196 -15.811  -4.771  1.00  0.00     0.084 A 
HETATM   68  C   UNL     1     -26.542 -16.437  -6.208  1.00  0.00     0.071 A 
HETATM   69  C   UNL     1     -25.426 -15.976  -6.875  1.00  0.00     0.074 A 
HETATM   70  C   UNL     1     -24.275 -15.656  -6.151  1.00  0.00     0.085 A 
HETATM   71  C   UNL     1     -23.038 -15.386  -3.910  1.00  0.00     0.223 C 
HETATM   72  O   UNL     1     -22.001 -14.922  -4.376  1.00  0.00    -0.284 OA
BRANCH  63  73
HETATM   73  C   UNL     1     -24.794 -16.148  -0.656  1.00  0.00     0.004 C 
HETATM   74  C   UNL     1     -23.905 -15.619   0.289  1.00  0.00     0.053 C 
HETATM   75  C   UNL     1     -24.200 -15.751   1.628  1.00  0.00     0.099 C 
HETATM   76  C   UNL     1     -25.396 -16.359   2.001  1.00  0.00     0.098 C 
HETATM   77  C   UNL     1     -26.340 -16.763   1.058  1.00  0.00     0.040 C 
HETATM   78  C   UNL     1     -26.037 -16.661  -0.290  1.00  0.00     0.017 C 
BRANCH  75  79
HETATM   79  O   UNL     1     -23.298 -15.352   2.569  1.00  0.00    -0.358 OA
HETATM   80  H   UNL     1     -22.409 -15.374   2.179  1.00  0.00     0.217 HD
ENDBRANCH  75  79
BRANCH  76  81
HETATM   81  O   UNL     1     -25.624 -16.672   3.308  1.00  0.00    -0.358 OA
HETATM   82  H   UNL     1     -25.008 -16.092   3.791  1.00  0.00     0.217 HD
ENDBRANCH  76  81
ENDBRANCH  63  73
BRANCH  68  83
HETATM   83  O   UNL     1     -27.715 -16.511  -6.897  1.00  0.00    -0.361 OA
HETATM   84  H   UNL     1     -28.268 -17.210  -6.499  1.00  0.00     0.217 HD
ENDBRANCH  68  83
BRANCH  70  85
HETATM   85  O   UNL     1     -23.244 -15.179  -6.878  1.00  0.00    -0.360 OA
HETATM   86  H   UNL     1     -22.430 -15.638  -6.566  1.00  0.00     0.217 HD
ENDBRANCH  70  85
ENDBRANCH  61  62
ENDBRANCH   5  61
BRANCH   4  87
HETATM   87  O   UNL     1     -20.290 -13.892   0.391  1.00  0.00    -0.308 OA
BRANCH  87  88
HETATM   88  C   UNL     1     -19.881 -15.051   0.971  1.00  0.00     0.259 C 
HETATM   89  O   UNL     1     -20.611 -16.016   1.181  1.00  0.00    -0.265 OA
BRANCH  88  90
HETATM   90  C   UNL     1     -18.424 -15.086   1.378  1.00  0.00     0.121 C 
BRANCH  90  91
HETATM   91  C   UNL     1     -17.594 -16.266   0.906  1.00  0.00     0.119 C 
BRANCH  91  92
HETATM   92  C   UNL     1     -17.491 -16.310  -0.594  1.00  0.00     0.139 C 
HETATM   93  O   UNL     1     -18.026 -17.164  -1.287  1.00  0.00    -0.650 OA
BRANCH  92  94
HETATM   94  O   UNL     1     -16.761 -15.304  -1.118  1.00  0.00    -0.776 OA
HETATM   95  H   UNL     1     -15.818 -15.522  -1.262  1.00  0.00     0.167 HD
ENDBRANCH  92  94
ENDBRANCH  91  92
ENDBRANCH  90  91
ENDBRANCH  88  90
ENDBRANCH  87  88
ENDBRANCH   4  87
TORSDOF 46
BEGIN_RES ARG D 557
REMARK  4 active torsions:
REMARK  status: ('A' for Active; 'I' for Inactive)
REMARK    1  A    between atoms: CA   and  CB  
REMARK    2  A    between atoms: CB   and  CG  
REMARK    3  A    between atoms: CG   and  CD  
REMARK    4  A    between atoms: CD   and  NE  
REMARK       I    between atoms: NE   and  CZ  
REMARK       I    between atoms: CZ   and  NH1 
REMARK       I    between atoms: CZ   and  NH2 
ROOT
ATOM      1  CA  ARG D 557     -26.217   2.705 -17.014  1.00 35.49     0.159 C 
ENDROOT
BRANCH   1   2
ATOM      2  CB  ARG D 557     -26.789   1.319 -17.183  1.00 35.49     0.034 C 
BRANCH   2   3
ATOM      3  CG  ARG D 557     -25.978   0.204 -16.679  1.00 35.49     0.027 C 
BRANCH   3   4
ATOM      4  CD  ARG D 557     -26.759  -0.721 -15.826  1.00 35.49     0.116 C 
BRANCH   4   5
ATOM      5  NE  ARG D 557     -26.011  -1.901 -15.479  1.00 35.49    -0.212 N 
ATOM      6  CZ  ARG D 557     -24.884  -1.924 -14.804  1.00 35.49     0.666 C 
ATOM      7  NH1 ARG D 557     -24.293  -0.826 -14.371  1.00 35.49    -0.235 N 
ATOM      8  NH2 ARG D 557     -24.354  -3.088 -14.561  1.00 35.49    -0.235 N 
ATOM      9  HH  ARG D 557     -24.626  -0.049 -14.517  1.00 35.49     0.174 HD
ATOM     10  HH  ARG D 557     -23.561  -0.903 -13.933  1.00 35.49     0.174 HD
ATOM     11  HH  ARG D 557     -24.761  -3.781 -14.846  1.00 35.49     0.174 HD
ATOM     12  HH  ARG D 557     -23.629  -3.143 -14.124  1.00 35.49     0.174 HD
ATOM     13  HE  ARG D 557     -26.281  -2.648 -15.781  1.00 35.49     0.178 HD
ENDBRANCH   4   5
ENDBRANCH   3   4
ENDBRANCH   2   3
ENDBRANCH   1   2
END_RES ARG D 557
BEGIN_RES GLU D 570
REMARK  3 active torsions:
REMARK  status: ('A' for Active; 'I' for Inactive)
REMARK    5  A    between atoms: CA   and  CB  
REMARK    6  A    between atoms: CB   and  CG  
REMARK    7  A    between atoms: CG   and  CD  
ROOT
ATOM     14  CA  GLU D 570     -18.033  -6.348 -13.375  1.00 32.92     0.160 C 
ENDROOT
BRANCH  14  15
ATOM     15  CB  GLU D 570     -19.500  -6.345 -13.794  1.00 32.92     0.043 C 
BRANCH  15  16
ATOM     16  CG  GLU D 570     -19.807  -6.011 -15.209  1.00 32.92     0.100 C 
BRANCH  16  17
ATOM     17  CD  GLU D 570     -21.162  -5.365 -15.381  1.00 32.92     0.185 C 
ATOM     18  OE1 GLU D 570     -21.824  -5.068 -14.368  1.00 32.92    -0.647 OA
ATOM     19  OE2 GLU D 570     -21.573  -5.168 -16.542  1.00 32.92    -0.647 OA
ENDBRANCH  16  17
ENDBRANCH  15  16
ENDBRANCH  14  15
END_RES GLU D 570
ENDMDL
MODEL 4
REMARK VINA RESULT:      -5.4      2.181      4.686
REMARK WARNING: 32 MAX_TORS EXCEEDED!!!
REMARK  46 active torsions:
REMARK  status: ('A' for Active; 'I' for Inactive)
REMARK    1  A    between atoms: C_3  and  O_78 
REMARK    2  A    between atoms: C_4  and  O_70 
REMARK    3  A    between atoms: C_5  and  O_62 
REMARK    4  A    between atoms: C_6  and  O_8 
REMARK    5  A    between atoms: O_8  and  C_9 
REMARK    6  A    between atoms: C_9  and  C_10 
REMARK    7  A    between atoms: C_11  and  O_54 
REMARK    8  A    between atoms: C_12  and  O_46 
REMARK    9  A    between atoms: C_13  and  O_38 
REMARK   10  A    between atoms: C_14  and  O_16 
REMARK   11  A    between atoms: O_16  and  C_17 
REMARK   12  A    between atoms: C_18  and  C_30 
REMARK   13  A    between atoms: C_22  and  O_29 
REMARK   14  A    between atoms: C_24  and  O_28 
REMARK   15  A    between atoms: C_32  and  O_37 
REMARK   16  A    between atoms: C_33  and  O_36 
REMARK   17  A    between atoms: O_38  and  C_39 
REMARK   18  A    between atoms: C_39  and  C_41 
REMARK   19  A    between atoms: C_41  and  C_42 
REMARK   20  A    between atoms: C_42  and  C_43 
REMARK   21  A    between atoms: C_43  and  O_45 
REMARK   22  A    between atoms: O_46  and  C_47 
REMARK   23  A    between atoms: C_47  and  C_49 
REMARK   24  A    between atoms: C_49  and  C_50 
REMARK   25  A    between atoms: C_50  and  C_51 
REMARK   26  A    between atoms: C_51  and  O_53 
REMARK   27  A    between atoms: O_54  and  C_55 
REMARK   28  A    between atoms: C_55  and  C_57 
REMARK   29  A    between atoms: C_57  and  C_58 
REMARK   30  A    between atoms: C_58  and  C_59 
REMARK   31  A    between atoms: C_59  and  O_61 
REMARK   32  A    between atoms: O_62  and  C_63 
REMARK   33  A    between atoms: C_63  and  C_65 
REMARK   34  A    between atoms: C_65  and  C_66 
REMARK   35  A    between atoms: C_66  and  C_67 
REMARK   36  A    between atoms: C_67  and  O_69 
REMARK   37  A    between atoms: O_70  and  C_71 
REMARK   38  A    between atoms: C_71  and  C_73 
REMARK   39  A    between atoms: C_73  and  C_74 
REMARK   40  A    between atoms: C_74  and  C_75 
REMARK   41  A    between atoms: C_75  and  O_77 
REMARK   42  A    between atoms: O_78  and  C_79 
REMARK   43  A    between atoms: C_79  and  C_81 
REMARK   44  A    between atoms: C_81  and  C_82 
REMARK   45  A    between atoms: C_82  and  C_83 
REMARK   46  A    between atoms: C_83  and  O_85 
ROOT
HETATM    1  C   UNL     1     -21.224 -11.433  -1.618  1.00  0.00     0.180 C 
HETATM    2  C   UNL     1     -19.800 -10.982  -1.194  1.00  0.00     0.195 C 
HETATM    3  C   UNL     1     -18.747 -11.956  -1.717  1.00  0.00     0.198 C 
HETATM    4  C   UNL     1     -19.121 -13.419  -1.384  1.00  0.00     0.219 C 
HETATM    5  C   UNL     1     -20.467 -13.700  -2.072  1.00  0.00     0.299 C 
HETATM    6  O   UNL     1     -21.463 -12.856  -1.456  1.00  0.00    -0.348 OA
ENDROOT
BRANCH   1   7
HETATM    7  C   UNL     1     -21.581 -10.988  -3.061  1.00  0.00     0.205 C 
BRANCH   7   8
HETATM    8  O   UNL     1     -20.688  -9.960  -3.525  1.00  0.00    -0.356 OA
BRANCH   8   9
HETATM    9  C   UNL     1     -21.316  -8.682  -3.630  1.00  0.00     0.292 C 
HETATM   10  C   UNL     1     -21.557  -8.256  -5.130  1.00  0.00     0.219 C 
HETATM   11  C   UNL     1     -22.163  -6.830  -5.055  1.00  0.00     0.198 C 
HETATM   12  C   UNL     1     -21.266  -5.863  -4.280  1.00  0.00     0.192 C 
HETATM   13  C   UNL     1     -21.063  -6.404  -2.855  1.00  0.00     0.152 C 
HETATM   14  C   UNL     1     -22.326  -6.294  -1.994  1.00  0.00     0.042 C 
HETATM   15  O   UNL     1     -20.548  -7.740  -2.889  1.00  0.00    -0.351 OA
BRANCH  10  16
HETATM   16  O   UNL     1     -20.344  -8.332  -5.986  1.00  0.00    -0.308 OA
BRANCH  16  17
HETATM   17  C   UNL     1     -19.471  -9.383  -5.873  1.00  0.00     0.259 C 
HETATM   18  O   UNL     1     -18.339  -9.334  -5.391  1.00  0.00    -0.265 OA
BRANCH  17  19
HETATM   19  C   UNL     1     -19.960 -10.735  -6.336  1.00  0.00     0.121 C 
BRANCH  19  20
HETATM   20  C   UNL     1     -18.804 -11.749  -6.270  1.00  0.00     0.119 C 
BRANCH  20  21
HETATM   21  C   UNL     1     -18.295 -12.559  -7.445  1.00  0.00     0.139 C 
HETATM   22  O   UNL     1     -17.555 -13.522  -7.426  1.00  0.00    -0.650 OA
BRANCH  21  23
HETATM   23  O   UNL     1     -18.840 -12.119  -8.613  1.00  0.00    -0.776 OA
HETATM   24  H   UNL     1     -19.812 -12.010  -8.591  1.00  0.00     0.167 HD
ENDBRANCH  21  23
ENDBRANCH  20  21
ENDBRANCH  19  20
ENDBRANCH  17  19
ENDBRANCH  16  17
ENDBRANCH  10  16
BRANCH  11  25
HETATM   25  O   UNL     1     -22.410  -6.375  -6.408  1.00  0.00    -0.310 OA
BRANCH  25  26
HETATM   26  C   UNL     1     -23.301  -5.387  -6.599  1.00  0.00     0.259 C 
HETATM   27  O   UNL     1     -24.300  -5.183  -5.895  1.00  0.00    -0.265 OA
BRANCH  26  28
HETATM   28  C   UNL     1     -22.920  -4.605  -7.828  1.00  0.00     0.121 C 
BRANCH  28  29
HETATM   29  C   UNL     1     -24.155  -4.080  -8.550  1.00  0.00     0.119 C 
BRANCH  29  30
HETATM   30  C   UNL     1     -23.947  -3.823 -10.027  1.00  0.00     0.139 C 
HETATM   31  O   UNL     1     -24.558  -3.002 -10.693  1.00  0.00    -0.650 OA
BRANCH  30  32
HETATM   32  O   UNL     1     -23.074  -4.671 -10.602  1.00  0.00    -0.776 OA
HETATM   33  H   UNL     1     -23.039  -5.549 -10.168  1.00  0.00     0.167 HD
ENDBRANCH  30  32
ENDBRANCH  29  30
ENDBRANCH  28  29
ENDBRANCH  26  28
ENDBRANCH  25  26
ENDBRANCH  11  25
BRANCH  12  34
HETATM   34  O   UNL     1     -20.011  -5.765  -4.998  1.00  0.00    -0.311 OA
BRANCH  34  35
HETATM   35  C   UNL     1     -19.900  -4.749  -5.876  1.00  0.00     0.259 C 
HETATM   36  O   UNL     1     -20.460  -3.664  -5.769  1.00  0.00    -0.265 OA
BRANCH  35  37
HETATM   37  C   UNL     1     -18.951  -5.101  -6.993  1.00  0.00     0.121 C 
BRANCH  37  38
HETATM   38  C   UNL     1     -19.677  -5.572  -8.244  1.00  0.00     0.119 C 
BRANCH  38  39
HETATM   39  C   UNL     1     -19.853  -4.468  -9.251  1.00  0.00     0.139 C 
HETATM   40  O   UNL     1     -19.811  -3.281  -8.954  1.00  0.00    -0.650 OA
BRANCH  39  41
HETATM   41  O   UNL     1     -20.064  -4.871 -10.521  1.00  0.00    -0.776 OA
HETATM   42  H   UNL     1     -20.763  -4.402 -11.015  1.00  0.00     0.167 HD
ENDBRANCH  39  41
ENDBRANCH  38  39
ENDBRANCH  37  38
ENDBRANCH  35  37
ENDBRANCH  34  35
ENDBRANCH  12  34
ENDBRANCH   8   9
ENDBRANCH   7   8
ENDBRANCH   1   7
BRANCH   2  43
HETATM   43  O   UNL     1     -19.504 -10.938   0.225  1.00  0.00    -0.311 OA
BRANCH  43  44
HETATM   44  C   UNL     1     -20.178 -10.167   1.090  1.00  0.00     0.259 C 
HETATM   45  O   UNL     1     -20.429 -10.436   2.252  1.00  0.00    -0.265 OA
BRANCH  44  46
HETATM   46  C   UNL     1     -20.647  -8.944   0.345  1.00  0.00     0.121 C 
BRANCH  46  47
HETATM   47  C   UNL     1     -21.702  -8.204   1.147  1.00  0.00     0.119 C 
BRANCH  47  48
HETATM   48  C   UNL     1     -23.078  -8.488   0.593  1.00  0.00     0.139 C 
HETATM   49  O   UNL     1     -23.402  -9.533   0.057  1.00  0.00    -0.650 OA
BRANCH  48  50
HETATM   50  O   UNL     1     -23.938  -7.459   0.761  1.00  0.00    -0.776 OA
HETATM   51  H   UNL     1     -24.320  -7.398   1.657  1.00  0.00     0.167 HD
ENDBRANCH  48  50
ENDBRANCH  47  48
ENDBRANCH  46  47
ENDBRANCH  44  46
ENDBRANCH  43  44
ENDBRANCH   2  43
BRANCH   3  52
HETATM   52  O   UNL     1     -17.449 -11.726  -1.122  1.00  0.00    -0.310 OA
BRANCH  52  53
HETATM   53  C   UNL     1     -16.442 -11.244  -1.888  1.00  0.00     0.259 C 
HETATM   54  O   UNL     1     -15.571 -10.486  -1.499  1.00  0.00    -0.265 OA
BRANCH  53  55
HETATM   55  C   UNL     1     -16.735 -11.644  -3.335  1.00  0.00     0.121 C 
BRANCH  55  56
HETATM   56  C   UNL     1     -15.412 -12.058  -3.989  1.00  0.00     0.119 C 
BRANCH  56  57
HETATM   57  C   UNL     1     -15.392 -11.172  -5.168  1.00  0.00     0.139 C 
HETATM   58  O   UNL     1     -15.086 -11.605  -6.273  1.00  0.00    -0.650 OA
BRANCH  57  59
HETATM   59  O   UNL     1     -15.545  -9.862  -4.912  1.00  0.00    -0.776 OA
HETATM   60  H   UNL     1     -15.140  -9.182  -5.495  1.00  0.00     0.167 HD
ENDBRANCH  57  59
ENDBRANCH  56  57
ENDBRANCH  55  56
ENDBRANCH  53  55
ENDBRANCH  52  53
ENDBRANCH   3  52
BRANCH   5  61
HETATM   61  O   UNL     1     -20.815 -15.093  -1.987  1.00  0.00    -0.311 OA
BRANCH  61  62
HETATM   62  C   UNL     1     -22.003 -15.524  -2.602  1.00  0.00     0.157 C 
HETATM   63  C   UNL     1     -22.982 -16.095  -1.873  1.00  0.00     0.124 C 
HETATM   64  O   UNL     1     -24.173 -16.595  -2.312  1.00  0.00    -0.306 OA
HETATM   65  C   UNL     1     -24.537 -16.346  -3.591  1.00  0.00     0.096 A 
HETATM   66  C   UNL     1     -25.875 -16.634  -3.881  1.00  0.00     0.075 A 
HETATM   67  C   UNL     1     -23.659 -15.827  -4.530  1.00  0.00     0.084 A 
HETATM   68  C   UNL     1     -26.346 -16.414  -5.157  1.00  0.00     0.071 A 
HETATM   69  C   UNL     1     -25.484 -15.985  -6.146  1.00  0.00     0.074 A 
HETATM   70  C   UNL     1     -24.159 -15.684  -5.820  1.00  0.00     0.085 A 
HETATM   71  C   UNL     1     -22.283 -15.420  -4.079  1.00  0.00     0.223 C 
HETATM   72  O   UNL     1     -21.433 -14.984  -4.852  1.00  0.00    -0.284 OA
BRANCH  63  73
HETATM   73  C   UNL     1     -22.953 -16.109  -0.428  1.00  0.00     0.004 C 
HETATM   74  C   UNL     1     -23.519 -15.006   0.224  1.00  0.00     0.053 C 
HETATM   75  C   UNL     1     -23.397 -14.908   1.593  1.00  0.00     0.099 C 
HETATM   76  C   UNL     1     -22.763 -15.932   2.292  1.00  0.00     0.098 C 
HETATM   77  C   UNL     1     -22.322 -17.091   1.655  1.00  0.00     0.040 C 
HETATM   78  C   UNL     1     -22.412 -17.183   0.276  1.00  0.00     0.017 C 
BRANCH  75  79
HETATM   79  O   UNL     1     -23.834 -13.790   2.239  1.00  0.00    -0.358 OA
HETATM   80  H   UNL     1     -24.682 -13.517   1.853  1.00  0.00     0.217 HD
ENDBRANCH  75  79
BRANCH  76  81
HETATM   81  O   UNL     1     -22.463 -15.774   3.612  1.00  0.00    -0.358 OA
HETATM   82  H   UNL     1     -21.492 -15.853   3.635  1.00  0.00     0.217 HD
ENDBRANCH  76  81
ENDBRANCH  63  73
BRANCH  68  83
HETATM   83  O   UNL     1     -27.676 -16.469  -5.446  1.00  0.00    -0.361 OA
HETATM   84  H   UNL     1     -28.036 -17.311  -5.107  1.00  0.00     0.217 HD
ENDBRANCH  68  83
BRANCH  70  85
HETATM   85  O   UNL     1     -23.397 -15.238  -6.839  1.00  0.00    -0.360 OA
HETATM   86  H   UNL     1     -22.470 -15.191  -6.511  1.00  0.00     0.217 HD
ENDBRANCH  70  85
ENDBRANCH  61  62
ENDBRANCH   5  61
BRANCH   4  87
HETATM   87  O   UNL     1     -19.223 -13.639   0.065  1.00  0.00    -0.308 OA
BRANCH  87  88
HETATM   88  C   UNL     1     -18.585 -14.732   0.561  1.00  0.00     0.259 C 
HETATM   89  O   UNL     1     -19.141 -15.640   1.173  1.00  0.00    -0.265 OA
BRANCH  88  90
HETATM   90  C   UNL     1     -17.091 -14.765   0.325  1.00  0.00     0.121 C 
BRANCH  90  91
HETATM   91  C   UNL     1     -16.208 -14.055   1.334  1.00  0.00     0.119 C 
BRANCH  91  92
HETATM   92  C   UNL     1     -14.831 -13.796   0.785  1.00  0.00     0.139 C 
HETATM   93  O   UNL     1     -13.803 -13.951   1.428  1.00  0.00    -0.650 OA
BRANCH  92  94
HETATM   94  O   UNL     1     -14.828 -13.389  -0.501  1.00  0.00    -0.776 OA
HETATM   95  H   UNL     1     -14.946 -12.425  -0.620  1.00  0.00     0.167 HD
ENDBRANCH  92  94
ENDBRANCH  91  92
ENDBRANCH  90  91
ENDBRANCH  88  90
ENDBRANCH  87  88
ENDBRANCH   4  87
TORSDOF 46
BEGIN_RES ARG D 557
REMARK  4 active torsions:
REMARK  status: ('A' for Active; 'I' for Inactive)
REMARK    1  A    between atoms: CA   and  CB  
REMARK    2  A    between atoms: CB   and  CG  
REMARK    3  A    between atoms: CG   and  CD  
REMARK    4  A    between atoms: CD   and  NE  
REMARK       I    between atoms: NE   and  CZ  
REMARK       I    between atoms: CZ   and  NH1 
REMARK       I    between atoms: CZ   and  NH2 
ROOT
ATOM      1  CA  ARG D 557     -26.217   2.705 -17.014  1.00 35.49     0.159 C 
ENDROOT
BRANCH   1   2
ATOM      2  CB  ARG D 557     -26.789   1.319 -17.183  1.00 35.49     0.034 C 
BRANCH   2   3
ATOM      3  CG  ARG D 557     -25.874   0.194 -16.956  1.00 35.49     0.027 C 
BRANCH   3   4
ATOM      4  CD  ARG D 557     -26.334  -0.696 -15.866  1.00 35.49     0.116 C 
BRANCH   4   5
ATOM      5  NE  ARG D 557     -25.296  -0.956 -14.903  1.00 35.49    -0.212 N 
ATOM      6  CZ  ARG D 557     -25.031  -2.121 -14.355  1.00 35.49     0.666 C 
ATOM      7  NH1 ARG D 557     -25.726  -3.209 -14.631  1.00 35.49    -0.235 N 
ATOM      8  NH2 ARG D 557     -24.038  -2.178 -13.516  1.00 35.49    -0.235 N 
ATOM      9  HH  ARG D 557     -26.382  -3.195 -15.182  1.00 35.49     0.174 HD
ATOM     10  HH  ARG D 557     -25.505  -3.942 -14.245  1.00 35.49     0.174 HD
ATOM     11  HH  ARG D 557     -23.602  -1.461 -13.362  1.00 35.49     0.174 HD
ATOM     12  HH  ARG D 557     -23.834  -2.912 -13.145  1.00 35.49     0.174 HD
ATOM     13  HE  ARG D 557     -24.846  -0.296 -14.613  1.00 35.49     0.178 HD
ENDBRANCH   4   5
ENDBRANCH   3   4
ENDBRANCH   2   3
ENDBRANCH   1   2
END_RES ARG D 557
BEGIN_RES GLU D 570
REMARK  3 active torsions:
REMARK  status: ('A' for Active; 'I' for Inactive)
REMARK    5  A    between atoms: CA   and  CB  
REMARK    6  A    between atoms: CB   and  CG  
REMARK    7  A    between atoms: CG   and  CD  
ROOT
ATOM     14  CA  GLU D 570     -18.033  -6.348 -13.375  1.00 32.92     0.160 C 
ENDROOT
BRANCH  14  15
ATOM     15  CB  GLU D 570     -19.500  -6.345 -13.794  1.00 32.92     0.043 C 
BRANCH  15  16
ATOM     16  CG  GLU D 570     -19.796  -6.281 -15.248  1.00 32.92     0.100 C 
BRANCH  16  17
ATOM     17  CD  GLU D 570     -20.754  -7.358 -15.703  1.00 32.92     0.185 C 
ATOM     18  OE1 GLU D 570     -20.521  -8.543 -15.397  1.00 32.92    -0.647 OA
ATOM     19  OE2 GLU D 570     -21.738  -7.014 -16.387  1.00 32.92    -0.647 OA
ENDBRANCH  16  17
ENDBRANCH  15  16
ENDBRANCH  14  15
END_RES GLU D 570
ENDMDL
MODEL 5
REMARK VINA RESULT:      -5.3      2.709      6.911
REMARK WARNING: 32 MAX_TORS EXCEEDED!!!
REMARK  46 active torsions:
REMARK  status: ('A' for Active; 'I' for Inactive)
REMARK    1  A    between atoms: C_3  and  O_78 
REMARK    2  A    between atoms: C_4  and  O_70 
REMARK    3  A    between atoms: C_5  and  O_62 
REMARK    4  A    between atoms: C_6  and  O_8 
REMARK    5  A    between atoms: O_8  and  C_9 
REMARK    6  A    between atoms: C_9  and  C_10 
REMARK    7  A    between atoms: C_11  and  O_54 
REMARK    8  A    between atoms: C_12  and  O_46 
REMARK    9  A    between atoms: C_13  and  O_38 
REMARK   10  A    between atoms: C_14  and  O_16 
REMARK   11  A    between atoms: O_16  and  C_17 
REMARK   12  A    between atoms: C_18  and  C_30 
REMARK   13  A    between atoms: C_22  and  O_29 
REMARK   14  A    between atoms: C_24  and  O_28 
REMARK   15  A    between atoms: C_32  and  O_37 
REMARK   16  A    between atoms: C_33  and  O_36 
REMARK   17  A    between atoms: O_38  and  C_39 
REMARK   18  A    between atoms: C_39  and  C_41 
REMARK   19  A    between atoms: C_41  and  C_42 
REMARK   20  A    between atoms: C_42  and  C_43 
REMARK   21  A    between atoms: C_43  and  O_45 
REMARK   22  A    between atoms: O_46  and  C_47 
REMARK   23  A    between atoms: C_47  and  C_49 
REMARK   24  A    between atoms: C_49  and  C_50 
REMARK   25  A    between atoms: C_50  and  C_51 
REMARK   26  A    between atoms: C_51  and  O_53 
REMARK   27  A    between atoms: O_54  and  C_55 
REMARK   28  A    between atoms: C_55  and  C_57 
REMARK   29  A    between atoms: C_57  and  C_58 
REMARK   30  A    between atoms: C_58  and  C_59 
REMARK   31  A    between atoms: C_59  and  O_61 
REMARK   32  A    between atoms: O_62  and  C_63 
REMARK   33  A    between atoms: C_63  and  C_65 
REMARK   34  A    between atoms: C_65  and  C_66 
REMARK   35  A    between atoms: C_66  and  C_67 
REMARK   36  A    between atoms: C_67  and  O_69 
REMARK   37  A    between atoms: O_70  and  C_71 
REMARK   38  A    between atoms: C_71  and  C_73 
REMARK   39  A    between atoms: C_73  and  C_74 
REMARK   40  A    between atoms: C_74  and  C_75 
REMARK   41  A    between atoms: C_75  and  O_77 
REMARK   42  A    between atoms: O_78  and  C_79 
REMARK   43  A    between atoms: C_79  and  C_81 
REMARK   44  A    between atoms: C_81  and  C_82 
REMARK   45  A    between atoms: C_82  and  C_83 
REMARK   46  A    between atoms: C_83  and  O_85 
ROOT
HETATM    1  C   UNL     1     -20.028  -9.671  -4.338  1.00  0.00     0.180 C 
HETATM    2  C   UNL     1     -20.245  -9.696  -2.801  1.00  0.00     0.195 C 
HETATM    3  C   UNL     1     -20.283 -11.133  -2.285  1.00  0.00     0.198 C 
HETATM    4  C   UNL     1     -21.251 -12.004  -3.121  1.00  0.00     0.219 C 
HETATM    5  C   UNL     1     -20.723 -11.991  -4.565  1.00  0.00     0.299 C 
HETATM    6  O   UNL     1     -20.830 -10.640  -5.062  1.00  0.00    -0.348 OA
ENDROOT
BRANCH   1   7
HETATM    7  C   UNL     1     -18.532  -9.812  -4.727  1.00  0.00     0.205 C 
BRANCH   7   8
HETATM    8  O   UNL     1     -18.107 -11.185  -4.671  1.00  0.00    -0.356 OA
BRANCH   8   9
HETATM    9  C   UNL     1     -16.962 -11.382  -3.841  1.00  0.00     0.292 C 
HETATM   10  C   UNL     1     -16.342 -12.823  -4.008  1.00  0.00     0.219 C 
HETATM   11  C   UNL     1     -15.176 -12.884  -2.988  1.00  0.00     0.198 C 
HETATM   12  C   UNL     1     -15.639 -12.578  -1.563  1.00  0.00     0.192 C 
HETATM   13  C   UNL     1     -16.266 -11.174  -1.533  1.00  0.00     0.152 C 
HETATM   14  C   UNL     1     -15.227 -10.058  -1.687  1.00  0.00     0.042 C 
HETATM   15  O   UNL     1     -17.318 -11.069  -2.499  1.00  0.00    -0.351 OA
BRANCH  10  16
HETATM   16  O   UNL     1     -17.322 -13.928  -3.843  1.00  0.00    -0.308 OA
BRANCH  16  17
HETATM   17  C   UNL     1     -17.385 -14.952  -4.753  1.00  0.00     0.259 C 
HETATM   18  O   UNL     1     -16.830 -14.978  -5.852  1.00  0.00    -0.265 OA
BRANCH  17  19
HETATM   19  C   UNL     1     -18.164 -16.182  -4.350  1.00  0.00     0.121 C 
BRANCH  19  20
HETATM   20  C   UNL     1     -17.225 -17.174  -3.642  1.00  0.00     0.119 C 
BRANCH  20  21
HETATM   21  C   UNL     1     -16.773 -17.061  -2.201  1.00  0.00     0.139 C 
HETATM   22  O   UNL     1     -17.447 -17.154  -1.195  1.00  0.00    -0.650 OA
BRANCH  21  23
HETATM   23  O   UNL     1     -15.422 -16.901  -2.125  1.00  0.00    -0.776 OA
HETATM   24  H   UNL     1     -15.134 -16.122  -1.608  1.00  0.00     0.167 HD
ENDBRANCH  21  23
ENDBRANCH  20  21
ENDBRANCH  19  20
ENDBRANCH  17  19
ENDBRANCH  16  17
ENDBRANCH  10  16
BRANCH  11  25
HETATM   25  O   UNL     1     -14.559 -14.191  -3.090  1.00  0.00    -0.310 OA
BRANCH  25  26
HETATM   26  C   UNL     1     -13.258 -14.262  -3.422  1.00  0.00     0.259 C 
HETATM   27  O   UNL     1     -12.313 -14.071  -2.644  1.00  0.00    -0.265 OA
BRANCH  26  28
HETATM   28  C   UNL     1     -13.137 -14.557  -4.893  1.00  0.00     0.121 C 
BRANCH  28  29
HETATM   29  C   UNL     1     -13.479 -16.012  -5.191  1.00  0.00     0.119 C 
BRANCH  29  30
HETATM   30  C   UNL     1     -12.704 -16.608  -6.347  1.00  0.00     0.139 C 
HETATM   31  O   UNL     1     -11.495 -16.770  -6.376  1.00  0.00    -0.650 OA
BRANCH  30  32
HETATM   32  O   UNL     1     -13.465 -16.863  -7.428  1.00  0.00    -0.776 OA
HETATM   33  H   UNL     1     -14.021 -16.104  -7.702  1.00  0.00     0.167 HD
ENDBRANCH  30  32
ENDBRANCH  29  30
ENDBRANCH  28  29
ENDBRANCH  26  28
ENDBRANCH  25  26
ENDBRANCH  11  25
BRANCH  12  34
HETATM   34  O   UNL     1     -16.597 -13.599  -1.189  1.00  0.00    -0.311 OA
BRANCH  34  35
HETATM   35  C   UNL     1     -16.520 -14.060   0.075  1.00  0.00     0.259 C 
HETATM   36  O   UNL     1     -17.464 -14.499   0.722  1.00  0.00    -0.265 OA
BRANCH  35  37
HETATM   37  C   UNL     1     -15.101 -14.013   0.581  1.00  0.00     0.121 C 
BRANCH  37  38
HETATM   38  C   UNL     1     -14.598 -15.379   1.023  1.00  0.00     0.119 C 
BRANCH  38  39
HETATM   39  C   UNL     1     -14.667 -15.556   2.516  1.00  0.00     0.139 C 
HETATM   40  O   UNL     1     -13.676 -15.710   3.217  1.00  0.00    -0.650 OA
BRANCH  39  41
HETATM   41  O   UNL     1     -15.909 -15.535   3.044  1.00  0.00    -0.776 OA
HETATM   42  H   UNL     1     -16.042 -14.956   3.818  1.00  0.00     0.167 HD
ENDBRANCH  39  41
ENDBRANCH  38  39
ENDBRANCH  37  38
ENDBRANCH  35  37
ENDBRANCH  34  35
ENDBRANCH  12  34
ENDBRANCH   8   9
ENDBRANCH   7   8
ENDBRANCH   1   7
BRANCH   2  43
HETATM   43  O   UNL     1     -21.487  -9.150  -2.289  1.00  0.00    -0.311 OA
BRANCH  43  44
HETATM   44  C   UNL     1     -21.648  -7.853  -1.991  1.00  0.00     0.259 C 
HETATM   45  O   UNL     1     -20.978  -6.927  -2.413  1.00  0.00    -0.265 OA
BRANCH  44  46
HETATM   46  C   UNL     1     -22.754  -7.750  -0.972  1.00  0.00     0.121 C 
BRANCH  46  47
HETATM   47  C   UNL     1     -22.680  -8.903   0.012  1.00  0.00     0.119 C 
BRANCH  47  48
HETATM   48  C   UNL     1     -21.913  -8.492   1.247  1.00  0.00     0.139 C 
HETATM   49  O   UNL     1     -20.788  -8.873   1.515  1.00  0.00    -0.650 OA
BRANCH  48  50
HETATM   50  O   UNL     1     -22.599  -7.635   2.034  1.00  0.00    -0.776 OA
HETATM   51  H   UNL     1     -22.206  -6.743   2.094  1.00  0.00     0.167 HD
ENDBRANCH  48  50
ENDBRANCH  47  48
ENDBRANCH  46  47
ENDBRANCH  44  46
ENDBRANCH  43  44
ENDBRANCH   2  43
BRANCH   3  52
HETATM   52  O   UNL     1     -20.751 -11.209  -0.919  1.00  0.00    -0.310 OA
BRANCH  52  53
HETATM   53  C   UNL     1     -20.005 -11.862   0.004  1.00  0.00     0.259 C 
HETATM   54  O   UNL     1     -18.912 -11.497   0.402  1.00  0.00    -0.265 OA
BRANCH  53  55
HETATM   55  C   UNL     1     -20.677 -13.210   0.266  1.00  0.00     0.121 C 
BRANCH  55  56
HETATM   56  C   UNL     1     -21.835 -12.980   1.244  1.00  0.00     0.119 C 
BRANCH  56  57
HETATM   57  C   UNL     1     -21.783 -14.222   2.037  1.00  0.00     0.139 C 
HETATM   58  O   UNL     1     -22.504 -14.370   3.018  1.00  0.00    -0.650 OA
BRANCH  57  59
HETATM   59  O   UNL     1     -20.786 -15.068   1.727  1.00  0.00    -0.776 OA
HETATM   60  H   UNL     1     -19.974 -14.748   1.276  1.00  0.00     0.167 HD
ENDBRANCH  57  59
ENDBRANCH  56  57
ENDBRANCH  55  56
ENDBRANCH  53  55
ENDBRANCH  52  53
ENDBRANCH   3  52
BRANCH   5  61
HETATM   61  O   UNL     1     -21.439 -12.926  -5.390  1.00  0.00    -0.311 OA
BRANCH  61  62
HETATM   62  C   UNL     1     -20.704 -13.753  -6.257  1.00  0.00     0.157 C 
HETATM   63  C   UNL     1     -20.947 -15.078  -6.307  1.00  0.00     0.124 C 
HETATM   64  O   UNL     1     -20.311 -16.020  -7.060  1.00  0.00    -0.306 OA
HETATM   65  C   UNL     1     -19.454 -15.599  -8.018  1.00  0.00     0.096 A 
HETATM   66  C   UNL     1     -19.066 -16.589  -8.928  1.00  0.00     0.075 A 
HETATM   67  C   UNL     1     -19.013 -14.286  -8.102  1.00  0.00     0.084 A 
HETATM   68  C   UNL     1     -18.194 -16.261  -9.943  1.00  0.00     0.071 A 
HETATM   69  C   UNL     1     -17.660 -14.990 -10.010  1.00  0.00     0.074 A 
HETATM   70  C   UNL     1     -18.084 -14.018  -9.102  1.00  0.00     0.085 A 
HETATM   71  C   UNL     1     -19.600 -13.270  -7.161  1.00  0.00     0.223 C 
HETATM   72  O   UNL     1     -19.242 -12.096  -7.146  1.00  0.00    -0.284 OA
BRANCH  63  73
HETATM   73  C   UNL     1     -22.084 -15.674  -5.644  1.00  0.00     0.004 C 
HETATM   74  C   UNL     1     -23.318 -15.580  -6.300  1.00  0.00     0.053 C 
HETATM   75  C   UNL     1     -24.453 -16.013  -5.649  1.00  0.00     0.099 C 
HETATM   76  C   UNL     1     -24.334 -16.579  -4.382  1.00  0.00     0.098 C 
HETATM   77  C   UNL     1     -23.090 -16.794  -3.789  1.00  0.00     0.040 C 
HETATM   78  C   UNL     1     -21.948 -16.333  -4.423  1.00  0.00     0.017 C 
BRANCH  75  79
HETATM   79  O   UNL     1     -25.679 -15.826  -6.216  1.00  0.00    -0.358 OA
HETATM   80  H   UNL     1     -25.593 -15.906  -7.179  1.00  0.00     0.217 HD
ENDBRANCH  75  79
BRANCH  76  81
HETATM   81  O   UNL     1     -25.448 -16.840  -3.643  1.00  0.00    -0.358 OA
HETATM   82  H   UNL     1     -25.161 -16.663  -2.729  1.00  0.00     0.217 HD
ENDBRANCH  76  81
ENDBRANCH  63  73
BRANCH  68  83
HETATM   83  O   UNL     1     -17.949 -17.114 -10.977  1.00  0.00    -0.361 OA
HETATM   84  H   UNL     1     -17.481 -17.898 -10.631  1.00  0.00     0.217 HD
ENDBRANCH  68  83
BRANCH  70  85
HETATM   85  O   UNL     1     -17.537 -12.795  -9.262  1.00  0.00    -0.360 OA
HETATM   86  H   UNL     1     -16.617 -12.928  -9.588  1.00  0.00     0.217 HD
ENDBRANCH  70  85
ENDBRANCH  61  62
ENDBRANCH   5  61
BRANCH   4  87
HETATM   87  O   UNL     1     -22.628 -11.495  -3.067  1.00  0.00    -0.308 OA
BRANCH  87  88
HETATM   88  C   UNL     1     -23.447 -12.053  -2.137  1.00  0.00     0.259 C 
HETATM   89  O   UNL     1     -24.215 -11.417  -1.420  1.00  0.00    -0.265 OA
BRANCH  88  90
HETATM   90  C   UNL     1     -23.346 -13.557  -2.012  1.00  0.00     0.121 C 
BRANCH  90  91
HETATM   91  C   UNL     1     -24.465 -14.275  -1.282  1.00  0.00     0.119 C 
BRANCH  91  92
HETATM   92  C   UNL     1     -23.937 -15.371  -0.395  1.00  0.00     0.139 C 
HETATM   93  O   UNL     1     -22.980 -16.076  -0.681  1.00  0.00    -0.650 OA
BRANCH  92  94
HETATM   94  O   UNL     1     -24.612 -15.500   0.767  1.00  0.00    -0.776 OA
HETATM   95  H   UNL     1     -24.146 -16.026   1.448  1.00  0.00     0.167 HD
ENDBRANCH  92  94
ENDBRANCH  91  92
ENDBRANCH  90  91
ENDBRANCH  88  90
ENDBRANCH  87  88
ENDBRANCH   4  87
TORSDOF 46
BEGIN_RES ARG D 557
REMARK  4 active torsions:
REMARK  status: ('A' for Active; 'I' for Inactive)
REMARK    1  A    between atoms: CA   and  CB  
REMARK    2  A    between atoms: CB   and  CG  
REMARK    3  A    between atoms: CG   and  CD  
REMARK    4  A    between atoms: CD   and  NE  
REMARK       I    between atoms: NE   and  CZ  
REMARK       I    between atoms: CZ   and  NH1 
REMARK       I    between atoms: CZ   and  NH2 
ROOT
ATOM      1  CA  ARG D 557     -26.217   2.705 -17.014  1.00 35.49     0.159 C 
ENDROOT
BRANCH   1   2
ATOM      2  CB  ARG D 557     -26.789   1.319 -17.183  1.00 35.49     0.034 C 
BRANCH   2   3
ATOM      3  CG  ARG D 557     -28.252   1.208 -17.222  1.00 35.49     0.027 C 
BRANCH   3   4
ATOM      4  CD  ARG D 557     -28.734  -0.092 -16.703  1.00 35.49     0.116 C 
BRANCH   4   5
ATOM      5  NE  ARG D 557     -27.690  -0.835 -16.048  1.00 35.49    -0.212 N 
ATOM      6  CZ  ARG D 557     -27.491  -2.131 -16.146  1.00 35.49     0.666 C 
ATOM      7  NH1 ARG D 557     -28.268  -2.914 -16.871  1.00 35.49    -0.235 N 
ATOM      8  NH2 ARG D 557     -26.481  -2.634 -15.498  1.00 35.49    -0.235 N 
ATOM      9  HH  ARG D 557     -28.937  -2.604 -17.307  1.00 35.49     0.174 HD
ATOM     10  HH  ARG D 557     -28.089  -3.752 -16.899  1.00 35.49     0.174 HD
ATOM     11  HH  ARG D 557     -25.992  -2.103 -15.044  1.00 35.49     0.174 HD
ATOM     12  HH  ARG D 557     -26.319  -3.465 -15.540  1.00 35.49     0.174 HD
ATOM     13  HE  ARG D 557     -27.186  -0.420 -15.503  1.00 35.49     0.178 HD
ENDBRANCH   4   5
ENDBRANCH   3   4
ENDBRANCH   2   3
ENDBRANCH   1   2
END_RES ARG D 557
BEGIN_RES GLU D 570
REMARK  3 active torsions:
REMARK  status: ('A' for Active; 'I' for Inactive)
REMARK    5  A    between atoms: CA   and  CB  
REMARK    6  A    between atoms: CB   and  CG  
REMARK    7  A    between atoms: CG   and  CD  
ROOT
ATOM     14  CA  GLU D 570     -18.033  -6.348 -13.375  1.00 32.92     0.160 C 
ENDROOT
BRANCH  14  15
ATOM     15  CB  GLU D 570     -19.500  -6.345 -13.794  1.00 32.92     0.043 C 
BRANCH  15  16
ATOM     16  CG  GLU D 570     -19.797  -6.244 -15.246  1.00 32.92     0.100 C 
BRANCH  16  17
ATOM     17  CD  GLU D 570     -20.700  -7.350 -15.741  1.00 32.92     0.185 C 
ATOM     18  OE1 GLU D 570     -20.526  -8.509 -15.317  1.00 32.92    -0.647 OA
ATOM     19  OE2 GLU D 570     -21.579  -7.058 -16.575  1.00 32.92    -0.647 OA
ENDBRANCH  16  17
ENDBRANCH  15  16
ENDBRANCH  14  15
END_RES GLU D 570
ENDMDL
MODEL 6
REMARK VINA RESULT:      -5.3      2.692      5.498
REMARK WARNING: 32 MAX_TORS EXCEEDED!!!
REMARK  46 active torsions:
REMARK  status: ('A' for Active; 'I' for Inactive)
REMARK    1  A    between atoms: C_3  and  O_78 
REMARK    2  A    between atoms: C_4  and  O_70 
REMARK    3  A    between atoms: C_5  and  O_62 
REMARK    4  A    between atoms: C_6  and  O_8 
REMARK    5  A    between atoms: O_8  and  C_9 
REMARK    6  A    between atoms: C_9  and  C_10 
REMARK    7  A    between atoms: C_11  and  O_54 
REMARK    8  A    between atoms: C_12  and  O_46 
REMARK    9  A    between atoms: C_13  and  O_38 
REMARK   10  A    between atoms: C_14  and  O_16 
REMARK   11  A    between atoms: O_16  and  C_17 
REMARK   12  A    between atoms: C_18  and  C_30 
REMARK   13  A    between atoms: C_22  and  O_29 
REMARK   14  A    between atoms: C_24  and  O_28 
REMARK   15  A    between atoms: C_32  and  O_37 
REMARK   16  A    between atoms: C_33  and  O_36 
REMARK   17  A    between atoms: O_38  and  C_39 
REMARK   18  A    between atoms: C_39  and  C_41 
REMARK   19  A    between atoms: C_41  and  C_42 
REMARK   20  A    between atoms: C_42  and  C_43 
REMARK   21  A    between atoms: C_43  and  O_45 
REMARK   22  A    between atoms: O_46  and  C_47 
REMARK   23  A    between atoms: C_47  and  C_49 
REMARK   24  A    between atoms: C_49  and  C_50 
REMARK   25  A    between atoms: C_50  and  C_51 
REMARK   26  A    between atoms: C_51  and  O_53 
REMARK   27  A    between atoms: O_54  and  C_55 
REMARK   28  A    between atoms: C_55  and  C_57 
REMARK   29  A    between atoms: C_57  and  C_58 
REMARK   30  A    between atoms: C_58  and  C_59 
REMARK   31  A    between atoms: C_59  and  O_61 
REMARK   32  A    between atoms: O_62  and  C_63 
REMARK   33  A    between atoms: C_63  and  C_65 
REMARK   34  A    between atoms: C_65  and  C_66 
REMARK   35  A    between atoms: C_66  and  C_67 
REMARK   36  A    between atoms: C_67  and  O_69 
REMARK   37  A    between atoms: O_70  and  C_71 
REMARK   38  A    between atoms: C_71  and  C_73 
REMARK   39  A    between atoms: C_73  and  C_74 
REMARK   40  A    between atoms: C_74  and  C_75 
REMARK   41  A    between atoms: C_75  and  O_77 
REMARK   42  A    between atoms: O_78  and  C_79 
REMARK   43  A    between atoms: C_79  and  C_81 
REMARK   44  A    between atoms: C_81  and  C_82 
REMARK   45  A    between atoms: C_82  and  C_83 
REMARK   46  A    between atoms: C_83  and  O_85 
ROOT
HETATM    1  C   UNL     1     -22.041 -12.588  -3.142  1.00  0.00     0.180 C 
HETATM    2  C   UNL     1     -21.629 -12.447  -1.652  1.00  0.00     0.195 C 
HETATM    3  C   UNL     1     -20.892 -13.697  -1.176  1.00  0.00     0.198 C 
HETATM    4  C   UNL     1     -21.668 -14.982  -1.546  1.00  0.00     0.219 C 
HETATM    5  C   UNL     1     -21.781 -15.006  -3.079  1.00  0.00     0.299 C 
HETATM    6  O   UNL     1     -22.599 -13.885  -3.479  1.00  0.00    -0.348 OA
ENDROOT
BRANCH   1   7
HETATM    7  C   UNL     1     -20.884 -12.231  -4.113  1.00  0.00     0.205 C 
BRANCH   7   8
HETATM    8  O   UNL     1     -19.769 -13.122  -3.943  1.00  0.00    -0.356 OA
BRANCH   8   9
HETATM    9  C   UNL     1     -18.532 -12.437  -3.744  1.00  0.00     0.292 C 
HETATM   10  C   UNL     1     -17.294 -13.415  -3.778  1.00  0.00     0.219 C 
HETATM   11  C   UNL     1     -16.063 -12.523  -3.468  1.00  0.00     0.198 C 
HETATM   12  C   UNL     1     -16.214 -11.770  -2.146  1.00  0.00     0.192 C 
HETATM   13  C   UNL     1     -17.474 -10.891  -2.213  1.00  0.00     0.152 C 
HETATM   14  C   UNL     1     -17.309  -9.690  -3.149  1.00  0.00     0.042 C 
HETATM   15  O   UNL     1     -18.624 -11.678  -2.544  1.00  0.00    -0.351 OA
BRANCH  10  16
HETATM   16  O   UNL     1     -17.416 -14.580  -2.863  1.00  0.00    -0.308 OA
BRANCH  16  17
HETATM   17  C   UNL     1     -17.548 -15.852  -3.360  1.00  0.00     0.259 C 
HETATM   18  O   UNL     1     -18.575 -16.531  -3.346  1.00  0.00    -0.265 OA
BRANCH  17  19
HETATM   19  C   UNL     1     -16.337 -16.455  -4.031  1.00  0.00     0.121 C 
BRANCH  19  20
HETATM   20  C   UNL     1     -16.694 -16.845  -5.477  1.00  0.00     0.119 C 
BRANCH  20  21
HETATM   21  C   UNL     1     -15.702 -16.943  -6.617  1.00  0.00     0.139 C 
HETATM   22  O   UNL     1     -15.905 -16.778  -7.804  1.00  0.00    -0.650 OA
BRANCH  21  23
HETATM   23  O   UNL     1     -14.445 -17.181  -6.150  1.00  0.00    -0.776 OA
HETATM   24  H   UNL     1     -13.728 -16.875  -6.741  1.00  0.00     0.167 HD
ENDBRANCH  21  23
ENDBRANCH  20  21
ENDBRANCH  19  20
ENDBRANCH  17  19
ENDBRANCH  16  17
ENDBRANCH  10  16
BRANCH  11  25
HETATM   25  O   UNL     1     -14.884 -13.365  -3.483  1.00  0.00    -0.310 OA
BRANCH  25  26
HETATM   26  C   UNL     1     -13.918 -13.097  -4.379  1.00  0.00     0.259 C 
HETATM   27  O   UNL     1     -12.861 -12.500  -4.129  1.00  0.00    -0.265 OA
BRANCH  26  28
HETATM   28  C   UNL     1     -14.346 -13.593  -5.734  1.00  0.00     0.121 C 
BRANCH  28  29
HETATM   29  C   UNL     1     -14.769 -12.438  -6.633  1.00  0.00     0.119 C 
BRANCH  29  30
HETATM   30  C   UNL     1     -16.243 -12.429  -6.979  1.00  0.00     0.139 C 
HETATM   31  O   UNL     1     -16.829 -13.310  -7.588  1.00  0.00    -0.650 OA
BRANCH  30  32
HETATM   32  O   UNL     1     -16.866 -11.285  -6.642  1.00  0.00    -0.776 OA
HETATM   33  H   UNL     1     -17.279 -10.827  -7.404  1.00  0.00     0.167 HD
ENDBRANCH  30  32
ENDBRANCH  29  30
ENDBRANCH  28  29
ENDBRANCH  26  28
ENDBRANCH  25  26
ENDBRANCH  11  25
BRANCH  12  34
HETATM   34  O   UNL     1     -16.309 -12.760  -1.091  1.00  0.00    -0.311 OA
BRANCH  34  35
HETATM   35  C   UNL     1     -15.513 -12.574  -0.021  1.00  0.00     0.259 C 
HETATM   36  O   UNL     1     -15.385 -11.516   0.584  1.00  0.00    -0.265 OA
BRANCH  35  37
HETATM   37  C   UNL     1     -14.829 -13.858   0.374  1.00  0.00     0.121 C 
BRANCH  37  38
HETATM   38  C   UNL     1     -13.598 -14.144  -0.472  1.00  0.00     0.119 C 
BRANCH  38  39
HETATM   39  C   UNL     1     -12.452 -14.672   0.348  1.00  0.00     0.139 C 
HETATM   40  O   UNL     1     -12.137 -15.854   0.372  1.00  0.00    -0.650 OA
BRANCH  39  41
HETATM   41  O   UNL     1     -11.782 -13.748   1.068  1.00  0.00    -0.776 OA
HETATM   42  H   UNL     1     -12.234 -13.406   1.863  1.00  0.00     0.167 HD
ENDBRANCH  39  41
ENDBRANCH  38  39
ENDBRANCH  37  38
ENDBRANCH  35  37
ENDBRANCH  34  35
ENDBRANCH  12  34
ENDBRANCH   8   9
ENDBRANCH   7   8
ENDBRANCH   1   7
BRANCH   2  43
HETATM   43  O   UNL     1     -22.689 -12.321  -0.671  1.00  0.00    -0.311 OA
BRANCH  43  44
HETATM   44  C   UNL     1     -23.421 -11.207  -0.523  1.00  0.00     0.259 C 
HETATM   45  O   UNL     1     -24.539 -11.137  -0.044  1.00  0.00    -0.265 OA
BRANCH  44  46
HETATM   46  C   UNL     1     -22.650 -10.067  -1.137  1.00  0.00     0.121 C 
BRANCH  46  47
HETATM   47  C   UNL     1     -22.035  -9.197  -0.057  1.00  0.00     0.119 C 
BRANCH  47  48
HETATM   48  C   UNL     1     -22.648  -7.816  -0.082  1.00  0.00     0.139 C 
HETATM   49  O   UNL     1     -22.212  -6.883  -0.732  1.00  0.00    -0.650 OA
BRANCH  48  50
HETATM   50  O   UNL     1     -23.753  -7.714   0.689  1.00  0.00    -0.776 OA
HETATM   51  H   UNL     1     -24.564  -7.481   0.198  1.00  0.00     0.167 HD
ENDBRANCH  48  50
ENDBRANCH  47  48
ENDBRANCH  46  47
ENDBRANCH  44  46
ENDBRANCH  43  44
ENDBRANCH   2  43
BRANCH   3  52
HETATM   52  O   UNL     1     -20.733 -13.721   0.261  1.00  0.00    -0.310 OA
BRANCH  52  53
HETATM   53  C   UNL     1     -19.506 -13.937   0.791  1.00  0.00     0.259 C 
HETATM   54  O   UNL     1     -18.654 -13.078   0.949  1.00  0.00    -0.265 OA
BRANCH  53  55
HETATM   55  C   UNL     1     -19.327 -15.448   0.934  1.00  0.00     0.121 C 
BRANCH  55  56
HETATM   56  C   UNL     1     -17.824 -15.743   1.009  1.00  0.00     0.119 C 
BRANCH  56  57
HETATM   57  C   UNL     1     -17.703 -16.238   2.392  1.00  0.00     0.139 C 
HETATM   58  O   UNL     1     -18.701 -16.490   3.057  1.00  0.00    -0.650 OA
BRANCH  57  59
HETATM   59  O   UNL     1     -16.465 -16.211   2.913  1.00  0.00    -0.776 OA
HETATM   60  H   UNL     1     -15.676 -16.100   2.336  1.00  0.00     0.167 HD
ENDBRANCH  57  59
ENDBRANCH  56  57
ENDBRANCH  55  56
ENDBRANCH  53  55
ENDBRANCH  52  53
ENDBRANCH   3  52
BRANCH   5  61
HETATM   61  O   UNL     1     -22.319 -16.256  -3.543  1.00  0.00    -0.311 OA
BRANCH  61  62
HETATM   62  C   UNL     1     -23.410 -16.229  -4.428  1.00  0.00     0.157 C 
HETATM   63  C   UNL     1     -23.224 -15.963  -5.735  1.00  0.00     0.124 C 
HETATM   64  O   UNL     1     -24.168 -15.866  -6.715  1.00  0.00    -0.306 OA
HETATM   65  C   UNL     1     -25.431 -16.255  -6.425  1.00  0.00     0.096 A 
HETATM   66  C   UNL     1     -26.265 -16.399  -7.539  1.00  0.00     0.075 A 
HETATM   67  C   UNL     1     -25.856 -16.508  -5.129  1.00  0.00     0.084 A 
HETATM   68  C   UNL     1     -27.572 -16.793  -7.350  1.00  0.00     0.071 A 
HETATM   69  C   UNL     1     -28.062 -16.967  -6.072  1.00  0.00     0.074 A 
HETATM   70  C   UNL     1     -27.199 -16.838  -4.981  1.00  0.00     0.085 A 
HETATM   71  C   UNL     1     -24.842 -16.460  -4.019  1.00  0.00     0.223 C 
HETATM   72  O   UNL     1     -25.140 -16.638  -2.841  1.00  0.00    -0.284 OA
BRANCH  63  73
HETATM   73  C   UNL     1     -21.906 -15.896  -6.324  1.00  0.00     0.004 C 
HETATM   74  C   UNL     1     -21.443 -14.625  -6.691  1.00  0.00     0.053 C 
HETATM   75  C   UNL     1     -20.252 -14.523  -7.377  1.00  0.00     0.099 C 
HETATM   76  C   UNL     1     -19.520 -15.678  -7.638  1.00  0.00     0.098 C 
HETATM   77  C   UNL     1     -19.916 -16.924  -7.153  1.00  0.00     0.040 C 
HETATM   78  C   UNL     1     -21.127 -17.039  -6.491  1.00  0.00     0.017 C 
BRANCH  75  79
HETATM   79  O   UNL     1     -19.837 -13.313  -7.848  1.00  0.00    -0.358 OA
HETATM   80  H   UNL     1     -19.269 -13.458  -8.622  1.00  0.00     0.217 HD
ENDBRANCH  75  79
BRANCH  76  81
HETATM   81  O   UNL     1     -18.443 -15.630  -8.471  1.00  0.00    -0.358 OA
HETATM   82  H   UNL     1     -18.076 -16.531  -8.420  1.00  0.00     0.217 HD
ENDBRANCH  76  81
ENDBRANCH  63  73
BRANCH  68  83
HETATM   83  O   UNL     1     -28.366 -17.157  -8.395  1.00  0.00    -0.361 OA
HETATM   84  H   UNL     1     -28.552 -18.113  -8.328  1.00  0.00     0.217 HD
ENDBRANCH  68  83
BRANCH  70  85
HETATM   85  O   UNL     1     -27.753 -17.060  -3.772  1.00  0.00    -0.360 OA
HETATM   86  H   UNL     1     -28.708 -16.830  -3.842  1.00  0.00     0.217 HD
ENDBRANCH  70  85
ENDBRANCH  61  62
ENDBRANCH   5  61
BRANCH   4  87
HETATM   87  O   UNL     1     -23.001 -15.011  -0.927  1.00  0.00    -0.308 OA
BRANCH  87  88
HETATM   88  C   UNL     1     -23.191 -15.922   0.064  1.00  0.00     0.259 C 
HETATM   89  O   UNL     1     -22.674 -17.035   0.090  1.00  0.00    -0.265 OA
BRANCH  88  90
HETATM   90  C   UNL     1     -24.126 -15.483   1.169  1.00  0.00     0.121 C 
BRANCH  90  91
HETATM   91  C   UNL     1     -23.654 -14.365   2.081  1.00  0.00     0.119 C 
BRANCH  91  92
HETATM   92  C   UNL     1     -22.951 -14.899   3.299  1.00  0.00     0.139 C 
HETATM   93  O   UNL     1     -21.740 -15.054   3.372  1.00  0.00    -0.650 OA
BRANCH  92  94
HETATM   94  O   UNL     1     -23.781 -15.181   4.325  1.00  0.00    -0.776 OA
HETATM   95  H   UNL     1     -24.684 -14.815   4.226  1.00  0.00     0.167 HD
ENDBRANCH  92  94
ENDBRANCH  91  92
ENDBRANCH  90  91
ENDBRANCH  88  90
ENDBRANCH  87  88
ENDBRANCH   4  87
TORSDOF 46
BEGIN_RES ARG D 557
REMARK  4 active torsions:
REMARK  status: ('A' for Active; 'I' for Inactive)
REMARK    1  A    between atoms: CA   and  CB  
REMARK    2  A    between atoms: CB   and  CG  
REMARK    3  A    between atoms: CG   and  CD  
REMARK    4  A    between atoms: CD   and  NE  
REMARK       I    between atoms: NE   and  CZ  
REMARK       I    between atoms: CZ   and  NH1 
REMARK       I    between atoms: CZ   and  NH2 
ROOT
ATOM      1  CA  ARG D 557     -26.217   2.705 -17.014  1.00 35.49     0.159 C 
ENDROOT
BRANCH   1   2
ATOM      2  CB  ARG D 557     -26.789   1.319 -17.183  1.00 35.49     0.034 C 
BRANCH   2   3
ATOM      3  CG  ARG D 557     -25.957   0.200 -16.723  1.00 35.49     0.027 C 
BRANCH   3   4
ATOM      4  CD  ARG D 557     -26.673  -0.681 -15.772  1.00 35.49     0.116 C 
BRANCH   4   5
ATOM      5  NE  ARG D 557     -27.327  -1.777 -16.436  1.00 35.49    -0.212 N 
ATOM      6  CZ  ARG D 557     -28.546  -1.760 -16.928  1.00 35.49     0.666 C 
ATOM      7  NH1 ARG D 557     -29.329  -0.700 -16.847  1.00 35.49    -0.235 N 
ATOM      8  NH2 ARG D 557     -28.971  -2.840 -17.518  1.00 35.49    -0.235 N 
ATOM      9  HH  ARG D 557     -29.069   0.021 -16.465  1.00 35.49     0.174 HD
ATOM     10  HH  ARG D 557     -30.114  -0.747 -17.188  1.00 35.49     0.174 HD
ATOM     11  HH  ARG D 557     -28.440  -3.507 -17.562  1.00 35.49     0.174 HD
ATOM     12  HH  ARG D 557     -29.750  -2.866 -17.850  1.00 35.49     0.174 HD
ATOM     13  HE  ARG D 557     -26.922  -2.524 -16.469  1.00 35.49     0.178 HD
ENDBRANCH   4   5
ENDBRANCH   3   4
ENDBRANCH   2   3
ENDBRANCH   1   2
END_RES ARG D 557
BEGIN_RES GLU D 570
REMARK  3 active torsions:
REMARK  status: ('A' for Active; 'I' for Inactive)
REMARK    5  A    between atoms: CA   and  CB  
REMARK    6  A    between atoms: CB   and  CG  
REMARK    7  A    between atoms: CG   and  CD  
ROOT
ATOM     14  CA  GLU D 570     -18.033  -6.348 -13.375  1.00 32.92     0.160 C 
ENDROOT
BRANCH  14  15
ATOM     15  CB  GLU D 570     -19.500  -6.345 -13.794  1.00 32.92     0.043 C 
BRANCH  15  16
ATOM     16  CG  GLU D 570     -20.086  -7.634 -14.243  1.00 32.92     0.100 C 
BRANCH  16  17
ATOM     17  CD  GLU D 570     -20.967  -7.488 -15.462  1.00 32.92     0.185 C 
ATOM     18  OE1 GLU D 570     -21.610  -6.433 -15.621  1.00 32.92    -0.647 OA
ATOM     19  OE2 GLU D 570     -21.028  -8.446 -16.258  1.00 32.92    -0.647 OA
ENDBRANCH  16  17
ENDBRANCH  15  16
ENDBRANCH  14  15
END_RES GLU D 570
ENDMDL
MODEL 7
REMARK VINA RESULT:      -5.2      2.686      6.939
REMARK WARNING: 32 MAX_TORS EXCEEDED!!!
REMARK  46 active torsions:
REMARK  status: ('A' for Active; 'I' for Inactive)
REMARK    1  A    between atoms: C_3  and  O_78 
REMARK    2  A    between atoms: C_4  and  O_70 
REMARK    3  A    between atoms: C_5  and  O_62 
REMARK    4  A    between atoms: C_6  and  O_8 
REMARK    5  A    between atoms: O_8  and  C_9 
REMARK    6  A    between atoms: C_9  and  C_10 
REMARK    7  A    between atoms: C_11  and  O_54 
REMARK    8  A    between atoms: C_12  and  O_46 
REMARK    9  A    between atoms: C_13  and  O_38 
REMARK   10  A    between atoms: C_14  and  O_16 
REMARK   11  A    between atoms: O_16  and  C_17 
REMARK   12  A    between atoms: C_18  and  C_30 
REMARK   13  A    between atoms: C_22  and  O_29 
REMARK   14  A    between atoms: C_24  and  O_28 
REMARK   15  A    between atoms: C_32  and  O_37 
REMARK   16  A    between atoms: C_33  and  O_36 
REMARK   17  A    between atoms: O_38  and  C_39 
REMARK   18  A    between atoms: C_39  and  C_41 
REMARK   19  A    between atoms: C_41  and  C_42 
REMARK   20  A    between atoms: C_42  and  C_43 
REMARK   21  A    between atoms: C_43  and  O_45 
REMARK   22  A    between atoms: O_46  and  C_47 
REMARK   23  A    between atoms: C_47  and  C_49 
REMARK   24  A    between atoms: C_49  and  C_50 
REMARK   25  A    between atoms: C_50  and  C_51 
REMARK   26  A    between atoms: C_51  and  O_53 
REMARK   27  A    between atoms: O_54  and  C_55 
REMARK   28  A    between atoms: C_55  and  C_57 
REMARK   29  A    between atoms: C_57  and  C_58 
REMARK   30  A    between atoms: C_58  and  C_59 
REMARK   31  A    between atoms: C_59  and  O_61 
REMARK   32  A    between atoms: O_62  and  C_63 
REMARK   33  A    between atoms: C_63  and  C_65 
REMARK   34  A    between atoms: C_65  and  C_66 
REMARK   35  A    between atoms: C_66  and  C_67 
REMARK   36  A    between atoms: C_67  and  O_69 
REMARK   37  A    between atoms: O_70  and  C_71 
REMARK   38  A    between atoms: C_71  and  C_73 
REMARK   39  A    between atoms: C_73  and  C_74 
REMARK   40  A    between atoms: C_74  and  C_75 
REMARK   41  A    between atoms: C_75  and  O_77 
REMARK   42  A    between atoms: O_78  and  C_79 
REMARK   43  A    between atoms: C_79  and  C_81 
REMARK   44  A    between atoms: C_81  and  C_82 
REMARK   45  A    between atoms: C_82  and  C_83 
REMARK   46  A    between atoms: C_83  and  O_85 
ROOT
HETATM    1  C   UNL     1     -20.093  -9.402  -4.913  1.00  0.00     0.180 C 
HETATM    2  C   UNL     1     -20.271  -9.338  -3.372  1.00  0.00     0.195 C 
HETATM    3  C   UNL     1     -20.249 -10.740  -2.768  1.00  0.00     0.198 C 
HETATM    4  C   UNL     1     -21.208 -11.692  -3.521  1.00  0.00     0.219 C 
HETATM    5  C   UNL     1     -20.717 -11.753  -4.977  1.00  0.00     0.299 C 
HETATM    6  O   UNL     1     -20.881 -10.439  -5.554  1.00  0.00    -0.348 OA
ENDROOT
BRANCH   1   7
HETATM    7  C   UNL     1     -18.604  -9.520  -5.332  1.00  0.00     0.205 C 
BRANCH   7   8
HETATM    8  O   UNL     1     -18.120 -10.863  -5.159  1.00  0.00    -0.356 OA
BRANCH   8   9
HETATM    9  C   UNL     1     -16.983 -10.940  -4.298  1.00  0.00     0.292 C 
HETATM   10  C   UNL     1     -16.328 -12.376  -4.298  1.00  0.00     0.219 C 
HETATM   11  C   UNL     1     -15.176 -12.296  -3.262  1.00  0.00     0.198 C 
HETATM   12  C   UNL     1     -15.668 -11.848  -1.885  1.00  0.00     0.192 C 
HETATM   13  C   UNL     1     -16.328 -10.465  -2.018  1.00  0.00     0.152 C 
HETATM   14  C   UNL     1     -15.312  -9.347  -2.280  1.00  0.00     0.042 C 
HETATM   15  O   UNL     1     -17.367 -10.491  -3.003  1.00  0.00    -0.351 OA
BRANCH  10  16
HETATM   16  O   UNL     1     -17.285 -13.480  -4.025  1.00  0.00    -0.308 OA
BRANCH  16  17
HETATM   17  C   UNL     1     -17.192 -14.671  -4.697  1.00  0.00     0.259 C 
HETATM   18  O   UNL     1     -18.064 -15.539  -4.755  1.00  0.00    -0.265 OA
BRANCH  17  19
HETATM   19  C   UNL     1     -15.925 -14.921  -5.480  1.00  0.00     0.121 C 
BRANCH  19  20
HETATM   20  C   UNL     1     -16.247 -15.785  -6.713  1.00  0.00     0.119 C 
BRANCH  20  21
HETATM   21  C   UNL     1     -15.235 -16.616  -7.475  1.00  0.00     0.139 C 
HETATM   22  O   UNL     1     -15.380 -17.181  -8.540  1.00  0.00    -0.650 OA
BRANCH  21  23
HETATM   23  O   UNL     1     -14.029 -16.616  -6.842  1.00  0.00    -0.776 OA
HETATM   24  H   UNL     1     -13.335 -17.139  -7.292  1.00  0.00     0.167 HD
ENDBRANCH  21  23
ENDBRANCH  20  21
ENDBRANCH  19  20
ENDBRANCH  17  19
ENDBRANCH  16  17
ENDBRANCH  10  16
BRANCH  11  25
HETATM   25  O   UNL     1     -14.529 -13.591  -3.212  1.00  0.00    -0.310 OA
BRANCH  25  26
HETATM   26  C   UNL     1     -13.265 -13.693  -3.660  1.00  0.00     0.259 C 
HETATM   27  O   UNL     1     -12.854 -13.245  -4.740  1.00  0.00    -0.265 OA
BRANCH  26  28
HETATM   28  C   UNL     1     -12.449 -14.479  -2.669  1.00  0.00     0.121 C 
BRANCH  28  29
HETATM   29  C   UNL     1     -13.300 -14.921  -1.484  1.00  0.00     0.119 C 
BRANCH  29  30
HETATM   30  C   UNL     1     -12.572 -14.904  -0.157  1.00  0.00     0.139 C 
HETATM   31  O   UNL     1     -11.806 -15.769   0.238  1.00  0.00    -0.650 OA
BRANCH  30  32
HETATM   32  O   UNL     1     -12.922 -13.873   0.634  1.00  0.00    -0.776 OA
HETATM   33  H   UNL     1     -13.821 -13.529   0.451  1.00  0.00     0.167 HD
ENDBRANCH  30  32
ENDBRANCH  29  30
ENDBRANCH  28  29
ENDBRANCH  26  28
ENDBRANCH  25  26
ENDBRANCH  11  25
BRANCH  12  34
HETATM   34  O   UNL     1     -16.609 -12.845  -1.414  1.00  0.00    -0.311 OA
BRANCH  34  35
HETATM   35  C   UNL     1     -16.295 -13.468  -0.262  1.00  0.00     0.259 C 
HETATM   36  O   UNL     1     -15.809 -12.923   0.722  1.00  0.00    -0.265 OA
BRANCH  35  37
HETATM   37  C   UNL     1     -16.666 -14.928  -0.319  1.00  0.00     0.121 C 
BRANCH  37  38
HETATM   38  C   UNL     1     -18.027 -15.206   0.299  1.00  0.00     0.119 C 
BRANCH  38  39
HETATM   39  C   UNL     1     -17.918 -15.841   1.659  1.00  0.00     0.139 C 
HETATM   40  O   UNL     1     -16.884 -16.342   2.080  1.00  0.00    -0.650 OA
BRANCH  39  41
HETATM   41  O   UNL     1     -19.047 -15.826   2.398  1.00  0.00    -0.776 OA
HETATM   42  H   UNL     1     -19.734 -15.189   2.126  1.00  0.00     0.167 HD
ENDBRANCH  39  41
ENDBRANCH  38  39
ENDBRANCH  37  38
ENDBRANCH  35  37
ENDBRANCH  34  35
ENDBRANCH  12  34
ENDBRANCH   8   9
ENDBRANCH   7   8
ENDBRANCH   1   7
BRANCH   2  43
HETATM   43  O   UNL     1     -21.518  -8.800  -2.861  1.00  0.00    -0.311 OA
BRANCH  43  44
HETATM   44  C   UNL     1     -21.823  -7.495  -2.902  1.00  0.00     0.259 C 
HETATM   45  O   UNL     1     -22.271  -6.889  -3.859  1.00  0.00    -0.265 OA
BRANCH  44  46
HETATM   46  C   UNL     1     -21.430  -6.891  -1.578  1.00  0.00     0.121 C 
BRANCH  46  47
HETATM   47  C   UNL     1     -22.625  -6.832  -0.644  1.00  0.00     0.119 C 
BRANCH  47  48
HETATM   48  C   UNL     1     -22.492  -7.871   0.445  1.00  0.00     0.139 C 
HETATM   49  O   UNL     1     -21.438  -8.378   0.787  1.00  0.00    -0.650 OA
BRANCH  48  50
HETATM   50  O   UNL     1     -23.672  -8.183   1.024  1.00  0.00    -0.776 OA
HETATM   51  H   UNL     1     -23.657  -8.163   2.000  1.00  0.00     0.167 HD
ENDBRANCH  48  50
ENDBRANCH  47  48
ENDBRANCH  46  47
ENDBRANCH  44  46
ENDBRANCH  43  44
ENDBRANCH   2  43
BRANCH   3  52
HETATM   52  O   UNL     1     -20.680 -10.744  -1.387  1.00  0.00    -0.310 OA
BRANCH  52  53
HETATM   53  C   UNL     1     -19.922 -11.371  -0.456  1.00  0.00     0.259 C 
HETATM   54  O   UNL     1     -18.771 -11.077  -0.182  1.00  0.00    -0.265 OA
BRANCH  53  55
HETATM   55  C   UNL     1     -20.689 -12.612   0.001  1.00  0.00     0.121 C 
BRANCH  55  56
HETATM   56  C   UNL     1     -21.799 -12.158   0.955  1.00  0.00     0.119 C 
BRANCH  56  57
HETATM   57  C   UNL     1     -22.164 -13.437   1.591  1.00  0.00     0.139 C 
HETATM   58  O   UNL     1     -21.398 -14.393   1.560  1.00  0.00    -0.650 OA
BRANCH  57  59
HETATM   59  O   UNL     1     -23.433 -13.530   2.024  1.00  0.00    -0.776 OA
HETATM   60  H   UNL     1     -24.141 -13.885   1.443  1.00  0.00     0.167 HD
ENDBRANCH  57  59
ENDBRANCH  56  57
ENDBRANCH  55  56
ENDBRANCH  53  55
ENDBRANCH  52  53
ENDBRANCH   3  52
BRANCH   5  61
HETATM   61  O   UNL     1     -21.422 -12.759  -5.723  1.00  0.00    -0.311 OA
BRANCH  61  62
HETATM   62  C   UNL     1     -20.681 -13.622  -6.550  1.00  0.00     0.157 C 
HETATM   63  C   UNL     1     -20.914 -14.949  -6.537  1.00  0.00     0.124 C 
HETATM   64  O   UNL     1     -20.271 -15.921  -7.245  1.00  0.00    -0.306 OA
HETATM   65  C   UNL     1     -19.417 -15.540  -8.222  1.00  0.00     0.096 A 
HETATM   66  C   UNL     1     -19.022 -16.569  -9.083  1.00  0.00     0.075 A 
HETATM   67  C   UNL     1     -18.986 -14.229  -8.369  1.00  0.00     0.084 A 
HETATM   68  C   UNL     1     -18.153 -16.283 -10.114  1.00  0.00     0.071 A 
HETATM   69  C   UNL     1     -17.629 -15.013 -10.242  1.00  0.00     0.074 A 
HETATM   70  C   UNL     1     -18.060 -14.001  -9.381  1.00  0.00     0.085 A 
HETATM   71  C   UNL     1     -19.581 -13.174  -7.477  1.00  0.00     0.223 C 
HETATM   72  O   UNL     1     -19.232 -11.998  -7.518  1.00  0.00    -0.284 OA
BRANCH  63  73
HETATM   73  C   UNL     1     -22.046 -15.522  -5.845  1.00  0.00     0.004 C 
HETATM   74  C   UNL     1     -23.315 -15.240  -6.370  1.00  0.00     0.053 C 
HETATM   75  C   UNL     1     -24.430 -15.649  -5.672  1.00  0.00     0.099 C 
HETATM   76  C   UNL     1     -24.264 -16.376  -4.495  1.00  0.00     0.098 C 
HETATM   77  C   UNL     1     -23.003 -16.771  -4.048  1.00  0.00     0.040 C 
HETATM   78  C   UNL     1     -21.877 -16.336  -4.727  1.00  0.00     0.017 C 
BRANCH  75  79
HETATM   79  O   UNL     1     -25.673 -15.287  -6.097  1.00  0.00    -0.358 OA
HETATM   80  H   UNL     1     -25.596 -14.487  -6.641  1.00  0.00     0.217 HD
ENDBRANCH  75  79
BRANCH  76  81
HETATM   81  O   UNL     1     -25.335 -16.628  -3.692  1.00  0.00    -0.358 OA
HETATM   82  H   UNL     1     -25.042 -17.387  -3.155  1.00  0.00     0.217 HD
ENDBRANCH  76  81
ENDBRANCH  63  73
BRANCH  68  83
HETATM   83  O   UNL     1     -17.902 -17.183 -11.106  1.00  0.00    -0.361 OA
HETATM   84  H   UNL     1     -16.939 -17.210 -11.267  1.00  0.00     0.217 HD
ENDBRANCH  68  83
BRANCH  70  85
HETATM   85  O   UNL     1     -17.522 -12.784  -9.599  1.00  0.00    -0.360 OA
HETATM   86  H   UNL     1     -16.729 -12.708  -9.020  1.00  0.00     0.217 HD
ENDBRANCH  70  85
ENDBRANCH  61  62
ENDBRANCH   5  61
BRANCH   4  87
HETATM   87  O   UNL     1     -22.599 -11.223  -3.462  1.00  0.00    -0.308 OA
BRANCH  87  88
HETATM   88  C   UNL     1     -23.383 -11.766  -2.493  1.00  0.00     0.259 C 
HETATM   89  O   UNL     1     -24.130 -11.119  -1.764  1.00  0.00    -0.265 OA
BRANCH  88  90
HETATM   90  C   UNL     1     -23.269 -13.266  -2.341  1.00  0.00     0.121 C 
BRANCH  90  91
HETATM   91  C   UNL     1     -24.326 -13.968  -1.509  1.00  0.00     0.119 C 
BRANCH  91  92
HETATM   92  C   UNL     1     -23.770 -15.175  -0.803  1.00  0.00     0.139 C 
HETATM   93  O   UNL     1     -24.410 -15.857  -0.015  1.00  0.00    -0.650 OA
BRANCH  92  94
HETATM   94  O   UNL     1     -22.491 -15.453  -1.130  1.00  0.00    -0.776 OA
HETATM   95  H   UNL     1     -21.910 -14.668  -1.192  1.00  0.00     0.167 HD
ENDBRANCH  92  94
ENDBRANCH  91  92
ENDBRANCH  90  91
ENDBRANCH  88  90
ENDBRANCH  87  88
ENDBRANCH   4  87
TORSDOF 46
BEGIN_RES ARG D 557
REMARK  4 active torsions:
REMARK  status: ('A' for Active; 'I' for Inactive)
REMARK    1  A    between atoms: CA   and  CB  
REMARK    2  A    between atoms: CB   and  CG  
REMARK    3  A    between atoms: CG   and  CD  
REMARK    4  A    between atoms: CD   and  NE  
REMARK       I    between atoms: NE   and  CZ  
REMARK       I    between atoms: CZ   and  NH1 
REMARK       I    between atoms: CZ   and  NH2 
ROOT
ATOM      1  CA  ARG D 557     -26.217   2.705 -17.014  1.00 35.49     0.159 C 
ENDROOT
BRANCH   1   2
ATOM      2  CB  ARG D 557     -26.789   1.319 -17.183  1.00 35.49     0.034 C 
BRANCH   2   3
ATOM      3  CG  ARG D 557     -28.237   1.225 -17.407  1.00 35.49     0.027 C 
BRANCH   3   4
ATOM      4  CD  ARG D 557     -28.882   0.230 -16.519  1.00 35.49     0.116 C 
BRANCH   4   5
ATOM      5  NE  ARG D 557     -27.991  -0.845 -16.172  1.00 35.49    -0.212 N 
ATOM      6  CZ  ARG D 557     -28.110  -2.096 -16.558  1.00 35.49     0.666 C 
ATOM      7  NH1 ARG D 557     -29.104  -2.511 -17.320  1.00 35.49    -0.235 N 
ATOM      8  NH2 ARG D 557     -27.196  -2.935 -16.164  1.00 35.49    -0.235 N 
ATOM      9  HH  ARG D 557     -29.715  -1.976 -17.592  1.00 35.49     0.174 HD
ATOM     10  HH  ARG D 557     -29.128  -3.339 -17.542  1.00 35.49     0.174 HD
ATOM     11  HH  ARG D 557     -26.561  -2.637 -15.679  1.00 35.49     0.174 HD
ATOM     12  HH  ARG D 557     -27.237  -3.749 -16.396  1.00 35.49     0.174 HD
ATOM     13  HE  ARG D 557     -27.362  -0.681 -15.624  1.00 35.49     0.178 HD
ENDBRANCH   4   5
ENDBRANCH   3   4
ENDBRANCH   2   3
ENDBRANCH   1   2
END_RES ARG D 557
BEGIN_RES GLU D 570
REMARK  3 active torsions:
REMARK  status: ('A' for Active; 'I' for Inactive)
REMARK    5  A    between atoms: CA   and  CB  
REMARK    6  A    between atoms: CB   and  CG  
REMARK    7  A    between atoms: CG   and  CD  
ROOT
ATOM     14  CA  GLU D 570     -18.033  -6.348 -13.375  1.00 32.92     0.160 C 
ENDROOT
BRANCH  14  15
ATOM     15  CB  GLU D 570     -19.500  -6.345 -13.794  1.00 32.92     0.043 C 
BRANCH  15  16
ATOM     16  CG  GLU D 570     -19.797  -6.255 -15.247  1.00 32.92     0.100 C 
BRANCH  16  17
ATOM     17  CD  GLU D 570     -21.220  -5.835 -15.533  1.00 32.92     0.185 C 
ATOM     18  OE1 GLU D 570     -21.450  -5.109 -16.519  1.00 32.92    -0.647 OA
ATOM     19  OE2 GLU D 570     -22.112  -6.223 -14.753  1.00 32.92    -0.647 OA
ENDBRANCH  16  17
ENDBRANCH  15  16
ENDBRANCH  14  15
END_RES GLU D 570
ENDMDL
MODEL 8
REMARK VINA RESULT:      -5.1      2.418      7.804
REMARK WARNING: 32 MAX_TORS EXCEEDED!!!
REMARK  46 active torsions:
REMARK  status: ('A' for Active; 'I' for Inactive)
REMARK    1  A    between atoms: C_3  and  O_78 
REMARK    2  A    between atoms: C_4  and  O_70 
REMARK    3  A    between atoms: C_5  and  O_62 
REMARK    4  A    between atoms: C_6  and  O_8 
REMARK    5  A    between atoms: O_8  and  C_9 
REMARK    6  A    between atoms: C_9  and  C_10 
REMARK    7  A    between atoms: C_11  and  O_54 
REMARK    8  A    between atoms: C_12  and  O_46 
REMARK    9  A    between atoms: C_13  and  O_38 
REMARK   10  A    between atoms: C_14  and  O_16 
REMARK   11  A    between atoms: O_16  and  C_17 
REMARK   12  A    between atoms: C_18  and  C_30 
REMARK   13  A    between atoms: C_22  and  O_29 
REMARK   14  A    between atoms: C_24  and  O_28 
REMARK   15  A    between atoms: C_32  and  O_37 
REMARK   16  A    between atoms: C_33  and  O_36 
REMARK   17  A    between atoms: O_38  and  C_39 
REMARK   18  A    between atoms: C_39  and  C_41 
REMARK   19  A    between atoms: C_41  and  C_42 
REMARK   20  A    between atoms: C_42  and  C_43 
REMARK   21  A    between atoms: C_43  and  O_45 
REMARK   22  A    between atoms: O_46  and  C_47 
REMARK   23  A    between atoms: C_47  and  C_49 
REMARK   24  A    between atoms: C_49  and  C_50 
REMARK   25  A    between atoms: C_50  and  C_51 
REMARK   26  A    between atoms: C_51  and  O_53 
REMARK   27  A    between atoms: O_54  and  C_55 
REMARK   28  A    between atoms: C_55  and  C_57 
REMARK   29  A    between atoms: C_57  and  C_58 
REMARK   30  A    between atoms: C_58  and  C_59 
REMARK   31  A    between atoms: C_59  and  O_61 
REMARK   32  A    between atoms: O_62  and  C_63 
REMARK   33  A    between atoms: C_63  and  C_65 
REMARK   34  A    between atoms: C_65  and  C_66 
REMARK   35  A    between atoms: C_66  and  C_67 
REMARK   36  A    between atoms: C_67  and  O_69 
REMARK   37  A    between atoms: O_70  and  C_71 
REMARK   38  A    between atoms: C_71  and  C_73 
REMARK   39  A    between atoms: C_73  and  C_74 
REMARK   40  A    between atoms: C_74  and  C_75 
REMARK   41  A    between atoms: C_75  and  O_77 
REMARK   42  A    between atoms: O_78  and  C_79 
REMARK   43  A    between atoms: C_79  and  C_81 
REMARK   44  A    between atoms: C_81  and  C_82 
REMARK   45  A    between atoms: C_82  and  C_83 
REMARK   46  A    between atoms: C_83  and  O_85 
ROOT
HETATM    1  C   UNL     1     -19.125 -13.367  -1.721  1.00  0.00     0.180 C 
HETATM    2  C   UNL     1     -19.695 -14.740  -2.167  1.00  0.00     0.195 C 
HETATM    3  C   UNL     1     -20.833 -14.553  -3.169  1.00  0.00     0.198 C 
HETATM    4  C   UNL     1     -21.868 -13.523  -2.656  1.00  0.00     0.219 C 
HETATM    5  C   UNL     1     -21.118 -12.193  -2.476  1.00  0.00     0.299 C 
HETATM    6  O   UNL     1     -20.143 -12.374  -1.427  1.00  0.00    -0.348 OA
ENDROOT
BRANCH   1   7
HETATM    7  C   UNL     1     -18.094 -12.797  -2.732  1.00  0.00     0.205 C 
BRANCH   7   8
HETATM    8  O   UNL     1     -18.519 -13.017  -4.088  1.00  0.00    -0.356 OA
BRANCH   8   9
HETATM    9  C   UNL     1     -17.723 -13.984  -4.773  1.00  0.00     0.292 C 
HETATM   10  C   UNL     1     -16.454 -13.341  -5.455  1.00  0.00     0.219 C 
HETATM   11  C   UNL     1     -15.763 -14.507  -6.209  1.00  0.00     0.198 C 
HETATM   12  C   UNL     1     -16.706 -15.196  -7.196  1.00  0.00     0.192 C 
HETATM   13  C   UNL     1     -17.923 -15.738  -6.427  1.00  0.00     0.152 C 
HETATM   14  C   UNL     1     -17.578 -16.947  -5.550  1.00  0.00     0.042 C 
HETATM   15  O   UNL     1     -18.558 -14.694  -5.681  1.00  0.00    -0.351 OA
BRANCH  10  16
HETATM   16  O   UNL     1     -16.759 -12.179  -6.330  1.00  0.00    -0.308 OA
BRANCH  16  17
HETATM   17  C   UNL     1     -16.529 -10.897  -5.900  1.00  0.00     0.259 C 
HETATM   18  O   UNL     1     -17.297  -9.943  -6.029  1.00  0.00    -0.265 OA
BRANCH  17  19
HETATM   19  C   UNL     1     -15.241 -10.643  -5.155  1.00  0.00     0.121 C 
BRANCH  19  20
HETATM   20  C   UNL     1     -15.462  -9.530  -4.114  1.00  0.00     0.119 C 
BRANCH  20  21
HETATM   21  C   UNL     1     -16.295  -9.674  -2.857  1.00  0.00     0.139 C 
HETATM   22  O   UNL     1     -17.418  -9.260  -2.651  1.00  0.00    -0.650 OA
BRANCH  21  23
HETATM   23  O   UNL     1     -15.649 -10.432  -1.928  1.00  0.00    -0.776 OA
HETATM   24  H   UNL     1     -16.237 -10.978  -1.369  1.00  0.00     0.167 HD
ENDBRANCH  21  23
ENDBRANCH  20  21
ENDBRANCH  19  20
ENDBRANCH  17  19
ENDBRANCH  16  17
ENDBRANCH  10  16
BRANCH  11  25
HETATM   25  O   UNL     1     -14.582 -13.981  -6.862  1.00  0.00    -0.310 OA
BRANCH  25  26
HETATM   26  C   UNL     1     -13.465 -13.816  -6.132  1.00  0.00     0.259 C 
HETATM   27  O   UNL     1     -12.689 -12.855  -6.226  1.00  0.00    -0.265 OA
BRANCH  26  28
HETATM   28  C   UNL     1     -13.285 -15.003  -5.224  1.00  0.00     0.121 C 
BRANCH  28  29
HETATM   29  C   UNL     1     -12.897 -14.565  -3.817  1.00  0.00     0.119 C 
BRANCH  29  30
HETATM   30  C   UNL     1     -14.071 -14.182  -2.941  1.00  0.00     0.139 C 
HETATM   31  O   UNL     1     -14.891 -14.961  -2.481  1.00  0.00    -0.650 OA
BRANCH  30  32
HETATM   32  O   UNL     1     -14.212 -12.853  -2.782  1.00  0.00    -0.776 OA
HETATM   33  H   UNL     1     -14.942 -12.472  -3.313  1.00  0.00     0.167 HD
ENDBRANCH  30  32
ENDBRANCH  29  30
ENDBRANCH  28  29
ENDBRANCH  26  28
ENDBRANCH  25  26
ENDBRANCH  11  25
BRANCH  12  34
HETATM   34  O   UNL     1     -17.095 -14.210  -8.185  1.00  0.00    -0.311 OA
BRANCH  34  35
HETATM   35  C   UNL     1     -17.970 -14.617  -9.125  1.00  0.00     0.259 C 
HETATM   36  O   UNL     1     -17.828 -15.606  -9.835  1.00  0.00    -0.265 OA
BRANCH  35  37
HETATM   37  C   UNL     1     -19.181 -13.721  -9.160  1.00  0.00     0.121 C 
BRANCH  37  38
HETATM   38  C   UNL     1     -18.977 -12.438  -8.368  1.00  0.00     0.119 C 
BRANCH  38  39
HETATM   39  C   UNL     1     -20.037 -12.242  -7.317  1.00  0.00     0.139 C 
HETATM   40  O   UNL     1     -21.082 -12.878  -7.297  1.00  0.00    -0.650 OA
BRANCH  39  41
HETATM   41  O   UNL     1     -19.761 -11.307  -6.384  1.00  0.00    -0.776 OA
HETATM   42  H   UNL     1     -19.241 -11.603  -5.613  1.00  0.00     0.167 HD
ENDBRANCH  39  41
ENDBRANCH  38  39
ENDBRANCH  37  38
ENDBRANCH  35  37
ENDBRANCH  34  35
ENDBRANCH  12  34
ENDBRANCH   8   9
ENDBRANCH   7   8
ENDBRANCH   1   7
BRANCH   2  43
HETATM   43  O   UNL     1     -20.310 -15.574  -1.153  1.00  0.00    -0.311 OA
BRANCH  43  44
HETATM   44  C   UNL     1     -19.605 -16.248  -0.233  1.00  0.00     0.259 C 
HETATM   45  O   UNL     1     -18.402 -16.176  -0.051  1.00  0.00    -0.265 OA
BRANCH  44  46
HETATM   46  C   UNL     1     -20.552 -17.178   0.480  1.00  0.00     0.121 C 
BRANCH  46  47
HETATM   47  C   UNL     1     -21.956 -17.043  -0.080  1.00  0.00     0.119 C 
BRANCH  47  48
HETATM   48  C   UNL     1     -22.941 -16.764   1.030  1.00  0.00     0.139 C 
HETATM   49  O   UNL     1     -24.145 -16.925   0.938  1.00  0.00    -0.650 OA
BRANCH  48  50
HETATM   50  O   UNL     1     -22.350 -16.323   2.163  1.00  0.00    -0.776 OA
HETATM   51  H   UNL     1     -21.449 -16.671   2.306  1.00  0.00     0.167 HD
ENDBRANCH  48  50
ENDBRANCH  47  48
ENDBRANCH  46  47
ENDBRANCH  44  46
ENDBRANCH  43  44
ENDBRANCH   2  43
BRANCH   3  52
HETATM   52  O   UNL     1     -21.564 -15.779  -3.398  1.00  0.00    -0.310 OA
BRANCH  52  53
HETATM   53  C   UNL     1     -22.130 -15.999  -4.609  1.00  0.00     0.259 C 
HETATM   54  O   UNL     1     -21.673 -15.614  -5.672  1.00  0.00    -0.265 OA
BRANCH  53  55
HETATM   55  C   UNL     1     -23.513 -16.603  -4.366  1.00  0.00     0.121 C 
BRANCH  55  56
HETATM   56  C   UNL     1     -24.322 -16.470  -5.661  1.00  0.00     0.119 C 
BRANCH  56  57
HETATM   57  C   UNL     1     -25.674 -16.226  -5.125  1.00  0.00     0.139 C 
HETATM   58  O   UNL     1     -26.075 -16.833  -4.139  1.00  0.00    -0.650 OA
BRANCH  57  59
HETATM   59  O   UNL     1     -26.471 -15.457  -5.885  1.00  0.00    -0.776 OA
HETATM   60  H   UNL     1     -27.295 -15.067  -5.520  1.00  0.00     0.167 HD
ENDBRANCH  57  59
ENDBRANCH  56  57
ENDBRANCH  55  56
ENDBRANCH  53  55
ENDBRANCH  52  53
ENDBRANCH   3  52
BRANCH   5  61
HETATM   61  O   UNL     1     -22.026 -11.117  -2.186  1.00  0.00    -0.311 OA
BRANCH  61  62
HETATM   62  C   UNL     1     -21.782  -9.860  -2.764  1.00  0.00     0.157 C 
HETATM   63  C   UNL     1     -21.436  -8.809  -1.994  1.00  0.00     0.124 C 
HETATM   64  O   UNL     1     -21.197  -7.525  -2.385  1.00  0.00    -0.306 OA
HETATM   65  C   UNL     1     -21.104  -7.267  -3.709  1.00  0.00     0.096 A 
HETATM   66  C   UNL     1     -20.580  -6.009  -4.022  1.00  0.00     0.075 A 
HETATM   67  C   UNL     1     -21.481  -8.187  -4.677  1.00  0.00     0.084 A 
HETATM   68  C   UNL     1     -20.444  -5.650  -5.346  1.00  0.00     0.071 A 
HETATM   69  C   UNL     1     -20.890  -6.497  -6.339  1.00  0.00     0.074 A 
HETATM   70  C   UNL     1     -21.388  -7.757  -5.997  1.00  0.00     0.085 A 
HETATM   71  C   UNL     1     -21.899  -9.563  -4.236  1.00  0.00     0.223 C 
HETATM   72  O   UNL     1     -22.279 -10.425  -5.024  1.00  0.00    -0.284 OA
BRANCH  63  73
HETATM   73  C   UNL     1     -21.106  -8.960  -0.595  1.00  0.00     0.004 C 
HETATM   74  C   UNL     1     -20.194  -9.972  -0.268  1.00  0.00     0.053 C 
HETATM   75  C   UNL     1     -19.949 -10.243   1.061  1.00  0.00     0.099 C 
HETATM   76  C   UNL     1     -20.575  -9.471   2.037  1.00  0.00     0.098 C 
HETATM   77  C   UNL     1     -21.376  -8.378   1.706  1.00  0.00     0.040 C 
HETATM   78  C   UNL     1     -21.651  -8.119   0.373  1.00  0.00     0.017 C 
BRANCH  75  79
HETATM   79  O   UNL     1     -19.158 -11.297   1.408  1.00  0.00    -0.358 OA
HETATM   80  H   UNL     1     -19.539 -12.110   1.037  1.00  0.00     0.217 HD
ENDBRANCH  75  79
BRANCH  76  81
HETATM   81  O   UNL     1     -20.500  -9.835   3.348  1.00  0.00    -0.358 OA
HETATM   82  H   UNL     1     -20.229  -9.014   3.797  1.00  0.00     0.217 HD
ENDBRANCH  76  81
ENDBRANCH  63  73
BRANCH  68  83
HETATM   83  O   UNL     1     -19.748  -4.539  -5.716  1.00  0.00    -0.361 OA
HETATM   84  H   UNL     1     -19.716  -3.923  -4.959  1.00  0.00     0.217 HD
ENDBRANCH  68  83
BRANCH  70  85
HETATM   85  O   UNL     1     -21.768  -8.533  -7.032  1.00  0.00    -0.360 OA
HETATM   86  H   UNL     1     -21.900  -9.443  -6.680  1.00  0.00     0.217 HD
ENDBRANCH  70  85
ENDBRANCH  61  62
ENDBRANCH   5  61
BRANCH   4  87
HETATM   87  O   UNL     1     -22.480 -13.950  -1.390  1.00  0.00    -0.308 OA
BRANCH  87  88
HETATM   88  C   UNL     1     -23.831 -13.838  -1.300  1.00  0.00     0.259 C 
HETATM   89  O   UNL     1     -24.625 -14.658  -1.752  1.00  0.00    -0.265 OA
BRANCH  88  90
HETATM   90  C   UNL     1     -24.327 -12.592  -0.601  1.00  0.00     0.121 C 
BRANCH  90  91
HETATM   91  C   UNL     1     -23.456 -12.013   0.498  1.00  0.00     0.119 C 
BRANCH  91  92
HETATM   92  C   UNL     1     -22.869 -13.090   1.370  1.00  0.00     0.139 C 
HETATM   93  O   UNL     1     -23.495 -13.673   2.244  1.00  0.00    -0.650 OA
BRANCH  92  94
HETATM   94  O   UNL     1     -21.580 -13.373   1.089  1.00  0.00    -0.776 OA
HETATM   95  H   UNL     1     -21.421 -14.297   0.809  1.00  0.00     0.167 HD
ENDBRANCH  92  94
ENDBRANCH  91  92
ENDBRANCH  90  91
ENDBRANCH  88  90
ENDBRANCH  87  88
ENDBRANCH   4  87
TORSDOF 46
BEGIN_RES ARG D 557
REMARK  4 active torsions:
REMARK  status: ('A' for Active; 'I' for Inactive)
REMARK    1  A    between atoms: CA   and  CB  
REMARK    2  A    between atoms: CB   and  CG  
REMARK    3  A    between atoms: CG   and  CD  
REMARK    4  A    between atoms: CD   and  NE  
REMARK       I    between atoms: NE   and  CZ  
REMARK       I    between atoms: CZ   and  NH1 
REMARK       I    between atoms: CZ   and  NH2 
ROOT
ATOM      1  CA  ARG D 557     -26.217   2.705 -17.014  1.00 35.49     0.159 C 
ENDROOT
BRANCH   1   2
ATOM      2  CB  ARG D 557     -26.789   1.319 -17.183  1.00 35.49     0.034 C 
BRANCH   2   3
ATOM      3  CG  ARG D 557     -28.225   1.161 -16.924  1.00 35.49     0.027 C 
BRANCH   3   4
ATOM      4  CD  ARG D 557     -28.599  -0.248 -16.661  1.00 35.49     0.116 C 
BRANCH   4   5
ATOM      5  NE  ARG D 557     -27.578  -0.954 -15.934  1.00 35.49    -0.212 N 
ATOM      6  CZ  ARG D 557     -27.344  -2.245 -15.996  1.00 35.49     0.666 C 
ATOM      7  NH1 ARG D 557     -28.058  -3.060 -16.751  1.00 35.49    -0.235 N 
ATOM      8  NH2 ARG D 557     -26.362  -2.713 -15.282  1.00 35.49    -0.235 N 
ATOM      9  HH  ARG D 557     -28.708  -2.774 -17.231  1.00 35.49     0.174 HD
ATOM     10  HH  ARG D 557     -27.858  -3.893 -16.754  1.00 35.49     0.174 HD
ATOM     11  HH  ARG D 557     -25.913  -2.162 -14.810  1.00 35.49     0.174 HD
ATOM     12  HH  ARG D 557     -26.178  -3.540 -15.300  1.00 35.49     0.174 HD
ATOM     13  HE  ARG D 557     -27.117  -0.517 -15.367  1.00 35.49     0.178 HD
ENDBRANCH   4   5
ENDBRANCH   3   4
ENDBRANCH   2   3
ENDBRANCH   1   2
END_RES ARG D 557
BEGIN_RES GLU D 570
REMARK  3 active torsions:
REMARK  status: ('A' for Active; 'I' for Inactive)
REMARK    5  A    between atoms: CA   and  CB  
REMARK    6  A    between atoms: CB   and  CG  
REMARK    7  A    between atoms: CG   and  CD  
ROOT
ATOM     14  CA  GLU D 570     -18.033  -6.348 -13.375  1.00 32.92     0.160 C 
ENDROOT
BRANCH  14  15
ATOM     15  CB  GLU D 570     -19.500  -6.345 -13.794  1.00 32.92     0.043 C 
BRANCH  15  16
ATOM     16  CG  GLU D 570     -19.825  -5.816 -15.144  1.00 32.92     0.100 C 
BRANCH  16  17
ATOM     17  CD  GLU D 570     -21.284  -5.976 -15.504  1.00 32.92     0.185 C 
ATOM     18  OE1 GLU D 570     -21.824  -5.124 -16.236  1.00 32.92    -0.647 OA
ATOM     19  OE2 GLU D 570     -21.898  -6.955 -15.035  1.00 32.92    -0.647 OA
ENDBRANCH  16  17
ENDBRANCH  15  16
ENDBRANCH  14  15
END_RES GLU D 570
ENDMDL
MODEL 9
REMARK VINA RESULT:      -4.7      2.553      7.698
REMARK WARNING: 32 MAX_TORS EXCEEDED!!!
REMARK  46 active torsions:
REMARK  status: ('A' for Active; 'I' for Inactive)
REMARK    1  A    between atoms: C_3  and  O_78 
REMARK    2  A    between atoms: C_4  and  O_70 
REMARK    3  A    between atoms: C_5  and  O_62 
REMARK    4  A    between atoms: C_6  and  O_8 
REMARK    5  A    between atoms: O_8  and  C_9 
REMARK    6  A    between atoms: C_9  and  C_10 
REMARK    7  A    between atoms: C_11  and  O_54 
REMARK    8  A    between atoms: C_12  and  O_46 
REMARK    9  A    between atoms: C_13  and  O_38 
REMARK   10  A    between atoms: C_14  and  O_16 
REMARK   11  A    between atoms: O_16  and  C_17 
REMARK   12  A    between atoms: C_18  and  C_30 
REMARK   13  A    between atoms: C_22  and  O_29 
REMARK   14  A    between atoms: C_24  and  O_28 
REMARK   15  A    between atoms: C_32  and  O_37 
REMARK   16  A    between atoms: C_33  and  O_36 
REMARK   17  A    between atoms: O_38  and  C_39 
REMARK   18  A    between atoms: C_39  and  C_41 
REMARK   19  A    between atoms: C_41  and  C_42 
REMARK   20  A    between atoms: C_42  and  C_43 
REMARK   21  A    between atoms: C_43  and  O_45 
REMARK   22  A    between atoms: O_46  and  C_47 
REMARK   23  A    between atoms: C_47  and  C_49 
REMARK   24  A    between atoms: C_49  and  C_50 
REMARK   25  A    between atoms: C_50  and  C_51 
REMARK   26  A    between atoms: C_51  and  O_53 
REMARK   27  A    between atoms: O_54  and  C_55 
REMARK   28  A    between atoms: C_55  and  C_57 
REMARK   29  A    between atoms: C_57  and  C_58 
REMARK   30  A    between atoms: C_58  and  C_59 
REMARK   31  A    between atoms: C_59  and  O_61 
REMARK   32  A    between atoms: O_62  and  C_63 
REMARK   33  A    between atoms: C_63  and  C_65 
REMARK   34  A    between atoms: C_65  and  C_66 
REMARK   35  A    between atoms: C_66  and  C_67 
REMARK   36  A    between atoms: C_67  and  O_69 
REMARK   37  A    between atoms: O_70  and  C_71 
REMARK   38  A    between atoms: C_71  and  C_73 
REMARK   39  A    between atoms: C_73  and  C_74 
REMARK   40  A    between atoms: C_74  and  C_75 
REMARK   41  A    between atoms: C_75  and  O_77 
REMARK   42  A    between atoms: O_78  and  C_79 
REMARK   43  A    between atoms: C_79  and  C_81 
REMARK   44  A    between atoms: C_81  and  C_82 
REMARK   45  A    between atoms: C_82  and  C_83 
REMARK   46  A    between atoms: C_83  and  O_85 
ROOT
HETATM    1  C   UNL     1     -18.579 -12.300  -1.185  1.00  0.00     0.180 C 
HETATM    2  C   UNL     1     -18.913 -13.768  -0.807  1.00  0.00     0.195 C 
HETATM    3  C   UNL     1     -20.267 -14.179  -1.382  1.00  0.00     0.198 C 
HETATM    4  C   UNL     1     -21.357 -13.131  -1.057  1.00  0.00     0.219 C 
HETATM    5  C   UNL     1     -20.906 -11.809  -1.700  1.00  0.00     0.299 C 
HETATM    6  O   UNL     1     -19.697 -11.385  -1.036  1.00  0.00    -0.348 OA
ENDROOT
BRANCH   1   7
HETATM    7  C   UNL     1     -17.971 -12.179  -2.608  1.00  0.00     0.205 C 
BRANCH   7   8
HETATM    8  O   UNL     1     -18.737 -12.928  -3.567  1.00  0.00    -0.356 OA
BRANCH   8   9
HETATM    9  C   UNL     1     -18.080 -14.121  -3.997  1.00  0.00     0.292 C 
HETATM   10  C   UNL     1     -16.621 -13.842  -4.528  1.00  0.00     0.219 C 
HETATM   11  C   UNL     1     -16.099 -15.218  -5.020  1.00  0.00     0.198 C 
HETATM   12  C   UNL     1     -17.022 -15.845  -6.065  1.00  0.00     0.192 C 
HETATM   13  C   UNL     1     -18.421 -16.024  -5.452  1.00  0.00     0.152 C 
HETATM   14  C   UNL     1     -18.468 -17.136  -4.399  1.00  0.00     0.042 C 
HETATM   15  O   UNL     1     -18.914 -14.779  -4.945  1.00  0.00    -0.351 OA
BRANCH  10  16
HETATM   16  O   UNL     1     -16.546 -12.783  -5.568  1.00  0.00    -0.308 OA
BRANCH  16  17
HETATM   17  C   UNL     1     -15.581 -11.809  -5.509  1.00  0.00     0.259 C 
HETATM   18  O   UNL     1     -14.557 -11.847  -4.826  1.00  0.00    -0.265 OA
BRANCH  17  19
HETATM   19  C   UNL     1     -15.766 -10.605  -6.401  1.00  0.00     0.121 C 
BRANCH  19  20
HETATM   20  C   UNL     1     -16.485  -9.492  -5.618  1.00  0.00     0.119 C 
BRANCH  20  21
HETATM   21  C   UNL     1     -17.804  -9.659  -4.891  1.00  0.00     0.139 C 
HETATM   22  O   UNL     1     -18.194  -9.070  -3.903  1.00  0.00    -0.650 OA
BRANCH  21  23
HETATM   23  O   UNL     1     -18.606 -10.551  -5.535  1.00  0.00    -0.776 OA
HETATM   24  H   UNL     1     -18.241 -10.891  -6.376  1.00  0.00     0.167 HD
ENDBRANCH  21  23
ENDBRANCH  20  21
ENDBRANCH  19  20
ENDBRANCH  17  19
ENDBRANCH  16  17
ENDBRANCH  10  16
BRANCH  11  25
HETATM   25  O   UNL     1     -14.754 -15.032  -5.525  1.00  0.00    -0.310 OA
BRANCH  25  26
HETATM   26  C   UNL     1     -13.823 -15.955  -5.225  1.00  0.00     0.259 C 
HETATM   27  O   UNL     1     -13.119 -16.551  -6.052  1.00  0.00    -0.265 OA
BRANCH  26  28
HETATM   28  C   UNL     1     -13.811 -16.181  -3.737  1.00  0.00     0.121 C 
BRANCH  28  29
HETATM   29  C   UNL     1     -12.800 -15.270  -3.051  1.00  0.00     0.119 C 
BRANCH  29  30
HETATM   30  C   UNL     1     -13.110 -14.982  -1.597  1.00  0.00     0.139 C 
HETATM   31  O   UNL     1     -14.122 -15.330  -1.010  1.00  0.00    -0.650 OA
BRANCH  30  32
HETATM   32  O   UNL     1     -12.197 -14.194  -0.999  1.00  0.00    -0.776 OA
HETATM   33  H   UNL     1     -12.539 -13.735  -0.204  1.00  0.00     0.167 HD
ENDBRANCH  30  32
ENDBRANCH  29  30
ENDBRANCH  28  29
ENDBRANCH  26  28
ENDBRANCH  25  26
ENDBRANCH  11  25
BRANCH  12  34
HETATM   34  O   UNL     1     -17.050 -14.956  -7.210  1.00  0.00    -0.311 OA
BRANCH  34  35
HETATM   35  C   UNL     1     -17.442 -15.498  -8.380  1.00  0.00     0.259 C 
HETATM   36  O   UNL     1     -17.078 -16.587  -8.808  1.00  0.00    -0.265 OA
BRANCH  35  37
HETATM   37  C   UNL     1     -18.436 -14.607  -9.081  1.00  0.00     0.121 C 
BRANCH  37  38
HETATM   38  C   UNL     1     -18.528 -13.228  -8.445  1.00  0.00     0.119 C 
BRANCH  38  39
HETATM   39  C   UNL     1     -19.822 -13.026  -7.705  1.00  0.00     0.139 C 
HETATM   40  O   UNL     1     -20.207 -11.931  -7.318  1.00  0.00    -0.650 OA
BRANCH  39  41
HETATM   41  O   UNL     1     -20.545 -14.146  -7.488  1.00  0.00    -0.776 OA
HETATM   42  H   UNL     1     -20.353 -14.634  -6.665  1.00  0.00     0.167 HD
ENDBRANCH  39  41
ENDBRANCH  38  39
ENDBRANCH  37  38
ENDBRANCH  35  37
ENDBRANCH  34  35
ENDBRANCH  12  34
ENDBRANCH   8   9
ENDBRANCH   7   8
ENDBRANCH   1   7
BRANCH   2  43
HETATM   43  O   UNL     1     -19.067 -14.081   0.601  1.00  0.00    -0.311 OA
BRANCH  43  44
HETATM   44  C   UNL     1     -18.296 -14.970   1.242  1.00  0.00     0.259 C 
HETATM   45  O   UNL     1     -18.678 -15.837   2.008  1.00  0.00    -0.265 OA
BRANCH  44  46
HETATM   46  C   UNL     1     -16.860 -14.653   0.913  1.00  0.00     0.121 C 
BRANCH  46  47
HETATM   47  C   UNL     1     -16.306 -13.626   1.884  1.00  0.00     0.119 C 
BRANCH  47  48
HETATM   48  C   UNL     1     -15.413 -12.646   1.160  1.00  0.00     0.139 C 
HETATM   49  O   UNL     1     -15.787 -11.576   0.713  1.00  0.00    -0.650 OA
BRANCH  48  50
HETATM   50  O   UNL     1     -14.133 -13.069   1.064  1.00  0.00    -0.776 OA
HETATM   51  H   UNL     1     -13.855 -13.672   1.779  1.00  0.00     0.167 HD
ENDBRANCH  48  50
ENDBRANCH  47  48
ENDBRANCH  46  47
ENDBRANCH  44  46
ENDBRANCH  43  44
ENDBRANCH   2  43
BRANCH   3  52
HETATM   52  O   UNL     1     -20.735 -15.432  -0.831  1.00  0.00    -0.310 OA
BRANCH  52  53
HETATM   53  C   UNL     1     -21.554 -16.218  -1.569  1.00  0.00     0.259 C 
HETATM   54  O   UNL     1     -21.469 -16.374  -2.775  1.00  0.00    -0.265 OA
BRANCH  53  55
HETATM   55  C   UNL     1     -22.696 -16.672  -0.660  1.00  0.00     0.121 C 
BRANCH  55  56
HETATM   56  C   UNL     1     -23.919 -16.955  -1.540  1.00  0.00     0.119 C 
BRANCH  56  57
HETATM   57  C   UNL     1     -24.799 -15.833  -1.167  1.00  0.00     0.139 C 
HETATM   58  O   UNL     1     -25.775 -16.014  -0.447  1.00  0.00    -0.650 OA
BRANCH  57  59
HETATM   59  O   UNL     1     -24.568 -14.674  -1.808  1.00  0.00    -0.776 OA
HETATM   60  H   UNL     1     -23.966 -13.997  -1.427  1.00  0.00     0.167 HD
ENDBRANCH  57  59
ENDBRANCH  56  57
ENDBRANCH  55  56
ENDBRANCH  53  55
ENDBRANCH  52  53
ENDBRANCH   3  52
BRANCH   5  61
HETATM   61  O   UNL     1     -21.940 -10.813  -1.623  1.00  0.00    -0.311 OA
BRANCH  61  62
HETATM   62  C   UNL     1     -21.825  -9.665  -2.427  1.00  0.00     0.157 C 
HETATM   63  C   UNL     1     -21.953  -8.437  -1.888  1.00  0.00     0.124 C 
HETATM   64  O   UNL     1     -21.903  -7.232  -2.524  1.00  0.00    -0.306 OA
HETATM   65  C   UNL     1     -21.497  -7.207  -3.814  1.00  0.00     0.096 A 
HETATM   66  C   UNL     1     -21.196  -5.932  -4.305  1.00  0.00     0.075 A 
HETATM   67  C   UNL     1     -21.370  -8.357  -4.579  1.00  0.00     0.084 A 
HETATM   68  C   UNL     1     -20.773  -5.800  -5.610  1.00  0.00     0.071 A 
HETATM   69  C   UNL     1     -20.720  -6.906  -6.433  1.00  0.00     0.074 A 
HETATM   70  C   UNL     1     -21.004  -8.169  -5.908  1.00  0.00     0.085 A 
HETATM   71  C   UNL     1     -21.582  -9.690  -3.914  1.00  0.00     0.223 C 
HETATM   72  O   UNL     1     -21.522 -10.753  -4.525  1.00  0.00    -0.284 OA
BRANCH  63  73
HETATM   73  C   UNL     1     -22.009  -8.229  -0.459  1.00  0.00     0.004 C 
HETATM   74  C   UNL     1     -20.954  -8.758   0.297  1.00  0.00     0.053 C 
HETATM   75  C   UNL     1     -21.028  -8.704   1.672  1.00  0.00     0.099 C 
HETATM   76  C   UNL     1     -22.121  -8.080   2.268  1.00  0.00     0.098 C 
HETATM   77  C   UNL     1     -23.101  -7.437   1.512  1.00  0.00     0.040 C 
HETATM   78  C   UNL     1     -23.050  -7.514   0.130  1.00  0.00     0.017 C 
BRANCH  75  79
HETATM   79  O   UNL     1     -20.075  -9.313   2.432  1.00  0.00    -0.358 OA
HETATM   80  H   UNL     1     -19.914 -10.203   2.077  1.00  0.00     0.217 HD
ENDBRANCH  75  79
BRANCH  76  81
HETATM   81  O   UNL     1     -22.314  -8.177   3.613  1.00  0.00    -0.358 OA
HETATM   82  H   UNL     1     -23.284  -8.152   3.706  1.00  0.00     0.217 HD
ENDBRANCH  76  81
ENDBRANCH  63  73
BRANCH  68  83
HETATM   83  O   UNL     1     -20.263  -4.627  -6.079  1.00  0.00    -0.361 OA
HETATM   84  H   UNL     1     -21.003  -4.021  -6.276  1.00  0.00     0.217 HD
ENDBRANCH  68  83
BRANCH  70  85
HETATM   85  O   UNL     1     -20.893  -9.197  -6.774  1.00  0.00    -0.360 OA
HETATM   86  H   UNL     1     -20.412  -8.861  -7.565  1.00  0.00     0.217 HD
ENDBRANCH  70  85
ENDBRANCH  61  62
ENDBRANCH   5  61
BRANCH   4  87
HETATM   87  O   UNL     1     -21.541 -12.967   0.392  1.00  0.00    -0.308 OA
BRANCH  87  88
HETATM   88  C   UNL     1     -22.802 -13.144   0.869  1.00  0.00     0.259 C 
HETATM   89  O   UNL     1     -23.820 -12.794   0.280  1.00  0.00    -0.265 OA
BRANCH  88  90
HETATM   90  C   UNL     1     -22.887 -13.808   2.225  1.00  0.00     0.121 C 
BRANCH  90  91
HETATM   91  C   UNL     1     -23.888 -14.936   2.391  1.00  0.00     0.119 C 
BRANCH  91  92
HETATM   92  C   UNL     1     -24.088 -15.295   3.839  1.00  0.00     0.139 C 
HETATM   93  O   UNL     1     -25.130 -15.104   4.449  1.00  0.00    -0.650 OA
BRANCH  92  94
HETATM   94  O   UNL     1     -23.007 -15.868   4.410  1.00  0.00    -0.776 OA
HETATM   95  H   UNL     1     -23.131 -16.118   5.347  1.00  0.00     0.167 HD
ENDBRANCH  92  94
ENDBRANCH  91  92
ENDBRANCH  90  91
ENDBRANCH  88  90
ENDBRANCH  87  88
ENDBRANCH   4  87
TORSDOF 46
BEGIN_RES ARG D 557
REMARK  4 active torsions:
REMARK  status: ('A' for Active; 'I' for Inactive)
REMARK    1  A    between atoms: CA   and  CB  
REMARK    2  A    between atoms: CB   and  CG  
REMARK    3  A    between atoms: CG   and  CD  
REMARK    4  A    between atoms: CD   and  NE  
REMARK       I    between atoms: NE   and  CZ  
REMARK       I    between atoms: CZ   and  NH1 
REMARK       I    between atoms: CZ   and  NH2 
ROOT
ATOM      1  CA  ARG D 557     -26.217   2.705 -17.014  1.00 35.49     0.159 C 
ENDROOT
BRANCH   1   2
ATOM      2  CB  ARG D 557     -26.789   1.319 -17.183  1.00 35.49     0.034 C 
BRANCH   2   3
ATOM      3  CG  ARG D 557     -28.231   1.227 -17.444  1.00 35.49     0.027 C 
BRANCH   3   4
ATOM      4  CD  ARG D 557     -28.911   0.287 -16.524  1.00 35.49     0.116 C 
BRANCH   4   5
ATOM      5  NE  ARG D 557     -29.244  -0.957 -17.167  1.00 35.49    -0.212 N 
ATOM      6  CZ  ARG D 557     -28.619  -2.100 -16.998  1.00 35.49     0.666 C 
ATOM      7  NH1 ARG D 557     -27.574  -2.226 -16.201  1.00 35.49    -0.235 N 
ATOM      8  NH2 ARG D 557     -29.072  -3.133 -17.647  1.00 35.49    -0.235 N 
ATOM      9  HH  ARG D 557     -27.261  -1.560 -15.763  1.00 35.49     0.174 HD
ATOM     10  HH  ARG D 557     -27.209  -2.998 -16.128  1.00 35.49     0.174 HD
ATOM     11  HH  ARG D 557     -29.753  -3.024 -18.149  1.00 35.49     0.174 HD
ATOM     12  HH  ARG D 557     -28.697  -3.889 -17.561  1.00 35.49     0.174 HD
ATOM     13  HE  ARG D 557     -29.860  -0.951 -17.753  1.00 35.49     0.178 HD
ENDBRANCH   4   5
ENDBRANCH   3   4
ENDBRANCH   2   3
ENDBRANCH   1   2
END_RES ARG D 557
BEGIN_RES GLU D 570
REMARK  3 active torsions:
REMARK  status: ('A' for Active; 'I' for Inactive)
REMARK    5  A    between atoms: CA   and  CB  
REMARK    6  A    between atoms: CB   and  CG  
REMARK    7  A    between atoms: CG   and  CD  
ROOT
ATOM     14  CA  GLU D 570     -18.033  -6.348 -13.375  1.00 32.92     0.160 C 
ENDROOT
BRANCH  14  15
ATOM     15  CB  GLU D 570     -19.500  -6.345 -13.794  1.00 32.92     0.043 C 
BRANCH  15  16
ATOM     16  CG  GLU D 570     -19.796  -6.339 -15.250  1.00 32.92     0.100 C 
BRANCH  16  17
ATOM     17  CD  GLU D 570     -20.826  -7.371 -15.646  1.00 32.92     0.185 C 
ATOM     18  OE1 GLU D 570     -22.002  -7.009 -15.841  1.00 32.92    -0.647 OA
ATOM     19  OE2 GLU D 570     -20.456  -8.557 -15.747  1.00 32.92    -0.647 OA
ENDBRANCH  16  17
ENDBRANCH  15  16
ENDBRANCH  14  15
END_RES GLU D 570
ENDMDL
