MODEL 1
REMARK VINA RESULT:      -5.7      0.000      0.000
REMARK  9 active torsions:
REMARK  status: ('A' for Active; 'I' for Inactive)
REMARK    1  A    between atoms: C_2  and  C_3 
REMARK    2  A    between atoms: C_3  and  C_4 
REMARK    3  A    between atoms: C_4  and  C_5 
REMARK    4  A    between atoms: C_5  and  C_6 
REMARK    5  A    between atoms: C_6  and  C_7 
REMARK    6  A    between atoms: C_7  and  C_8 
REMARK    7  A    between atoms: C_8  and  C_9 
REMARK    8  A    between atoms: C_9  and  C_10 
REMARK    9  A    between atoms: C_10  and  C_11 
ROOT
HETATM    1  C   UNL     1     -33.692  -2.175 -11.018  1.00  0.00     0.000 C 
ENDROOT
BRANCH   1   2
HETATM    2  C   UNL     1     -33.231  -3.623 -11.069  1.00  0.00     0.000 C 
BRANCH   2   3
HETATM    3  C   UNL     1     -34.394  -4.559 -10.781  1.00  0.00     0.000 C 
BRANCH   3   4
HETATM    4  C   UNL     1     -33.931  -6.008 -10.831  1.00  0.00    -0.000 C 
BRANCH   4   5
HETATM    5  C   UNL     1     -34.775  -6.872  -9.907  1.00  0.00    -0.005 C 
HETATM    6  C   UNL     1     -34.328  -8.325  -9.984  1.00  0.00     0.005 C 
ENDBRANCH   4   5
ENDBRANCH   3   4
ENDBRANCH   2   3
ENDBRANCH   1   2
BRANCH   1   7
HETATM    7  C   UNL     1     -35.189  -2.112 -10.776  1.00  0.00     0.000 C 
BRANCH   7   8
HETATM    8  C   UNL     1     -35.805  -0.987 -11.595  1.00  0.00     0.000 C 
BRANCH   8   9
HETATM    9  C   UNL     1     -35.074  -0.836 -12.920  1.00  0.00     0.000 C 
BRANCH   9  10
HETATM   10  C   UNL     1     -34.856   0.635 -13.237  1.00  0.00    -0.000 C 
BRANCH  10  11
HETATM   11  C   UNL     1     -35.146   0.919 -14.706  1.00  0.00    -0.005 C 
HETATM   12  C   UNL     1     -35.581  -0.347 -15.417  1.00  0.00     0.005 C 
ENDBRANCH  10  11
ENDBRANCH   9  10
ENDBRANCH   8   9
ENDBRANCH   7   8
ENDBRANCH   1   7
TORSDOF 9
BEGIN_RES ARG D 557
REMARK  4 active torsions:
REMARK  status: ('A' for Active; 'I' for Inactive)
REMARK    1  A    between atoms: CA   and  CB  
REMARK    2  A    between atoms: CB   and  CG  
REMARK    3  A    between atoms: CG   and  CD  
REMARK    4  A    between atoms: CD   and  NE  
REMARK       I    between atoms: NE   and  CZ  
REMARK       I    between atoms: CZ   and  NH1 
REMARK       I    between atoms: CZ   and  NH2 
ROOT
ATOM      1  CA  ARG D 557     -26.217   2.705 -17.014  1.00 35.49     0.159 C 
ENDROOT
BRANCH   1   2
ATOM      2  CB  ARG D 557     -26.789   1.319 -17.183  1.00 35.49     0.034 C 
BRANCH   2   3
ATOM      3  CG  ARG D 557     -25.836   0.203 -17.155  1.00 35.49     0.027 C 
BRANCH   3   4
ATOM      4  CD  ARG D 557     -24.766   0.400 -16.151  1.00 35.49     0.116 C 
BRANCH   4   5
ATOM      5  NE  ARG D 557     -24.932  -0.455 -15.005  1.00 35.49    -0.212 N 
ATOM      6  CZ  ARG D 557     -24.127  -1.433 -14.654  1.00 35.49     0.666 C 
ATOM      7  NH1 ARG D 557     -23.051  -1.751 -15.350  1.00 35.49    -0.235 N 
ATOM      8  NH2 ARG D 557     -24.421  -2.093 -13.571  1.00 35.49    -0.235 N 
ATOM      9  HH  ARG D 557     -22.838  -1.329 -16.065  1.00 35.49     0.174 HD
ATOM     10  HH  ARG D 557     -22.562  -2.397 -15.071  1.00 35.49     0.174 HD
ATOM     11  HH  ARG D 557     -25.118  -1.861 -13.138  1.00 35.49     0.174 HD
ATOM     12  HH  ARG D 557     -23.924  -2.728 -13.311  1.00 35.49     0.174 HD
ATOM     13  HE  ARG D 557     -25.639  -0.368 -14.541  1.00 35.49     0.178 HD
ENDBRANCH   4   5
ENDBRANCH   3   4
ENDBRANCH   2   3
ENDBRANCH   1   2
END_RES ARG D 557
BEGIN_RES GLU D 570
REMARK  3 active torsions:
REMARK  status: ('A' for Active; 'I' for Inactive)
REMARK    5  A    between atoms: CA   and  CB  
REMARK    6  A    between atoms: CB   and  CG  
REMARK    7  A    between atoms: CG   and  CD  
ROOT
ATOM     14  CA  GLU D 570     -18.033  -6.348 -13.375  1.00 32.92     0.160 C 
ENDROOT
BRANCH  14  15
ATOM     15  CB  GLU D 570     -19.500  -6.345 -13.794  1.00 32.92     0.043 C 
BRANCH  15  16
ATOM     16  CG  GLU D 570     -20.443  -5.536 -12.979  1.00 32.92     0.100 C 
BRANCH  16  17
ATOM     17  CD  GLU D 570     -21.609  -5.006 -13.781  1.00 32.92     0.185 C 
ATOM     18  OE1 GLU D 570     -22.369  -4.167 -13.261  1.00 32.92    -0.647 OA
ATOM     19  OE2 GLU D 570     -21.773  -5.446 -14.936  1.00 32.92    -0.647 OA
ENDBRANCH  16  17
ENDBRANCH  15  16
ENDBRANCH  14  15
END_RES GLU D 570
ENDMDL
MODEL 2
REMARK VINA RESULT:      -5.7      1.276      2.310
REMARK  9 active torsions:
REMARK  status: ('A' for Active; 'I' for Inactive)
REMARK    1  A    between atoms: C_2  and  C_3 
REMARK    2  A    between atoms: C_3  and  C_4 
REMARK    3  A    between atoms: C_4  and  C_5 
REMARK    4  A    between atoms: C_5  and  C_6 
REMARK    5  A    between atoms: C_6  and  C_7 
REMARK    6  A    between atoms: C_7  and  C_8 
REMARK    7  A    between atoms: C_8  and  C_9 
REMARK    8  A    between atoms: C_9  and  C_10 
REMARK    9  A    between atoms: C_10  and  C_11 
ROOT
HETATM    1  C   UNL     1     -33.418  -2.282 -10.831  1.00  0.00     0.000 C 
ENDROOT
BRANCH   1   2
HETATM    2  C   UNL     1     -33.200  -3.737 -11.214  1.00  0.00     0.000 C 
BRANCH   2   3
HETATM    3  C   UNL     1     -34.242  -4.621 -10.545  1.00  0.00     0.000 C 
BRANCH   3   4
HETATM    4  C   UNL     1     -33.987  -6.084 -10.880  1.00  0.00    -0.000 C 
BRANCH   4   5
HETATM    5  C   UNL     1     -34.794  -6.990  -9.965  1.00  0.00    -0.005 C 
HETATM    6  C   UNL     1     -34.197  -8.390  -9.944  1.00  0.00     0.005 C 
ENDBRANCH   4   5
ENDBRANCH   3   4
ENDBRANCH   2   3
ENDBRANCH   1   2
BRANCH   1   7
HETATM    7  C   UNL     1     -34.902  -1.988 -10.715  1.00  0.00     0.000 C 
BRANCH   7   8
HETATM    8  C   UNL     1     -35.347  -1.083 -11.855  1.00  0.00     0.000 C 
BRANCH   8   9
HETATM    9  C   UNL     1     -36.409  -0.108 -11.371  1.00  0.00     0.000 C 
BRANCH   9  10
HETATM   10  C   UNL     1     -36.816  -0.438  -9.944  1.00  0.00    -0.000 C 
BRANCH  10  11
HETATM   11  C   UNL     1     -37.103   0.835  -9.156  1.00  0.00    -0.005 C 
HETATM   12  C   UNL     1     -36.553   0.725  -7.748  1.00  0.00     0.005 C 
ENDBRANCH  10  11
ENDBRANCH   9  10
ENDBRANCH   8   9
ENDBRANCH   7   8
ENDBRANCH   1   7
TORSDOF 9
BEGIN_RES ARG D 557
REMARK  4 active torsions:
REMARK  status: ('A' for Active; 'I' for Inactive)
REMARK    1  A    between atoms: CA   and  CB  
REMARK    2  A    between atoms: CB   and  CG  
REMARK    3  A    between atoms: CG   and  CD  
REMARK    4  A    between atoms: CD   and  NE  
REMARK       I    between atoms: NE   and  CZ  
REMARK       I    between atoms: CZ   and  NH1 
REMARK       I    between atoms: CZ   and  NH2 
ROOT
ATOM      1  CA  ARG D 557     -26.217   2.705 -17.014  1.00 35.49     0.159 C 
ENDROOT
BRANCH   1   2
ATOM      2  CB  ARG D 557     -26.789   1.319 -17.183  1.00 35.49     0.034 C 
BRANCH   2   3
ATOM      3  CG  ARG D 557     -25.840   0.201 -17.123  1.00 35.49     0.027 C 
BRANCH   3   4
ATOM      4  CD  ARG D 557     -24.762   0.428 -16.133  1.00 35.49     0.116 C 
BRANCH   4   5
ATOM      5  NE  ARG D 557     -24.874  -0.451 -14.999  1.00 35.49    -0.212 N 
ATOM      6  CZ  ARG D 557     -24.037  -1.417 -14.690  1.00 35.49     0.666 C 
ATOM      7  NH1 ARG D 557     -22.977  -1.698 -15.425  1.00 35.49    -0.235 N 
ATOM      8  NH2 ARG D 557     -24.283  -2.101 -13.611  1.00 35.49    -0.235 N 
ATOM      9  HH  ARG D 557     -22.795  -1.259 -16.138  1.00 35.49     0.174 HD
ATOM     10  HH  ARG D 557     -22.465  -2.338 -15.173  1.00 35.49     0.174 HD
ATOM     11  HH  ARG D 557     -24.970  -1.892 -13.152  1.00 35.49     0.174 HD
ATOM     12  HH  ARG D 557     -23.763  -2.730 -13.378  1.00 35.49     0.174 HD
ATOM     13  HE  ARG D 557     -25.567  -0.387 -14.511  1.00 35.49     0.178 HD
ENDBRANCH   4   5
ENDBRANCH   3   4
ENDBRANCH   2   3
ENDBRANCH   1   2
END_RES ARG D 557
BEGIN_RES GLU D 570
REMARK  3 active torsions:
REMARK  status: ('A' for Active; 'I' for Inactive)
REMARK    5  A    between atoms: CA   and  CB  
REMARK    6  A    between atoms: CB   and  CG  
REMARK    7  A    between atoms: CG   and  CD  
ROOT
ATOM     14  CA  GLU D 570     -18.033  -6.348 -13.375  1.00 32.92     0.160 C 
ENDROOT
BRANCH  14  15
ATOM     15  CB  GLU D 570     -19.500  -6.345 -13.794  1.00 32.92     0.043 C 
BRANCH  15  16
ATOM     16  CG  GLU D 570     -20.447  -5.555 -12.965  1.00 32.92     0.100 C 
BRANCH  16  17
ATOM     17  CD  GLU D 570     -21.643  -5.062 -13.746  1.00 32.92     0.185 C 
ATOM     18  OE1 GLU D 570     -22.664  -4.704 -13.127  1.00 32.92    -0.647 OA
ATOM     19  OE2 GLU D 570     -21.565  -5.049 -14.990  1.00 32.92    -0.647 OA
ENDBRANCH  16  17
ENDBRANCH  15  16
ENDBRANCH  14  15
END_RES GLU D 570
ENDMDL
MODEL 3
REMARK VINA RESULT:      -5.6      1.101      5.149
REMARK  9 active torsions:
REMARK  status: ('A' for Active; 'I' for Inactive)
REMARK    1  A    between atoms: C_2  and  C_3 
REMARK    2  A    between atoms: C_3  and  C_4 
REMARK    3  A    between atoms: C_4  and  C_5 
REMARK    4  A    between atoms: C_5  and  C_6 
REMARK    5  A    between atoms: C_6  and  C_7 
REMARK    6  A    between atoms: C_7  and  C_8 
REMARK    7  A    between atoms: C_8  and  C_9 
REMARK    8  A    between atoms: C_9  and  C_10 
REMARK    9  A    between atoms: C_10  and  C_11 
ROOT
HETATM    1  C   UNL     1     -34.801  -1.776 -11.068  1.00  0.00     0.000 C 
ENDROOT
BRANCH   1   2
HETATM    2  C   UNL     1     -34.958  -1.385 -12.529  1.00  0.00     0.000 C 
BRANCH   2   3
HETATM    3  C   UNL     1     -35.379   0.072 -12.644  1.00  0.00     0.000 C 
BRANCH   3   4
HETATM    4  C   UNL     1     -34.644   0.745 -13.794  1.00  0.00    -0.000 C 
BRANCH   4   5
HETATM    5  C   UNL     1     -35.597   1.030 -14.944  1.00  0.00    -0.005 C 
HETATM    6  C   UNL     1     -35.773  -0.211 -15.808  1.00  0.00     0.005 C 
ENDBRANCH   4   5
ENDBRANCH   3   4
ENDBRANCH   2   3
ENDBRANCH   1   2
BRANCH   1   7
HETATM    7  C   UNL     1     -33.381  -2.239 -10.800  1.00  0.00     0.000 C 
BRANCH   7   8
HETATM    8  C   UNL     1     -33.204  -3.679 -11.262  1.00  0.00     0.000 C 
BRANCH   8   9
HETATM    9  C   UNL     1     -34.244  -4.575 -10.609  1.00  0.00     0.000 C 
BRANCH   9  10
HETATM   10  C   UNL     1     -33.906  -6.038 -10.855  1.00  0.00    -0.000 C 
BRANCH  10  11
HETATM   11  C   UNL     1     -34.779  -6.944  -9.993  1.00  0.00    -0.005 C 
HETATM   12  C   UNL     1     -34.211  -8.349  -9.954  1.00  0.00     0.005 C 
ENDBRANCH  10  11
ENDBRANCH   9  10
ENDBRANCH   8   9
ENDBRANCH   7   8
ENDBRANCH   1   7
TORSDOF 9
BEGIN_RES ARG D 557
REMARK  4 active torsions:
REMARK  status: ('A' for Active; 'I' for Inactive)
REMARK    1  A    between atoms: CA   and  CB  
REMARK    2  A    between atoms: CB   and  CG  
REMARK    3  A    between atoms: CG   and  CD  
REMARK    4  A    between atoms: CD   and  NE  
REMARK       I    between atoms: NE   and  CZ  
REMARK       I    between atoms: CZ   and  NH1 
REMARK       I    between atoms: CZ   and  NH2 
ROOT
ATOM      1  CA  ARG D 557     -26.217   2.705 -17.014  1.00 35.49     0.159 C 
ENDROOT
BRANCH   1   2
ATOM      2  CB  ARG D 557     -26.789   1.319 -17.183  1.00 35.49     0.034 C 
BRANCH   2   3
ATOM      3  CG  ARG D 557     -25.920   0.196 -16.812  1.00 35.49     0.027 C 
BRANCH   3   4
ATOM      4  CD  ARG D 557     -26.649  -0.863 -16.077  1.00 35.49     0.116 C 
BRANCH   4   5
ATOM      5  NE  ARG D 557     -25.818  -1.516 -15.100  1.00 35.49    -0.212 N 
ATOM      6  CZ  ARG D 557     -25.864  -2.790 -14.781  1.00 35.49     0.666 C 
ATOM      7  NH1 ARG D 557     -26.720  -3.629 -15.334  1.00 35.49    -0.235 N 
ATOM      8  NH2 ARG D 557     -25.019  -3.216 -13.887  1.00 35.49    -0.235 N 
ATOM      9  HH  ARG D 557     -27.283  -3.371 -15.926  1.00 35.49     0.174 HD
ATOM     10  HH  ARG D 557     -26.702  -4.450 -15.088  1.00 35.49     0.174 HD
ATOM     11  HH  ARG D 557     -24.473  -2.653 -13.552  1.00 35.49     0.174 HD
ATOM     12  HH  ARG D 557     -25.017  -4.032 -13.658  1.00 35.49     0.174 HD
ATOM     13  HE  ARG D 557     -25.287  -1.035 -14.642  1.00 35.49     0.178 HD
ENDBRANCH   4   5
ENDBRANCH   3   4
ENDBRANCH   2   3
ENDBRANCH   1   2
END_RES ARG D 557
BEGIN_RES GLU D 570
REMARK  3 active torsions:
REMARK  status: ('A' for Active; 'I' for Inactive)
REMARK    5  A    between atoms: CA   and  CB  
REMARK    6  A    between atoms: CB   and  CG  
REMARK    7  A    between atoms: CG   and  CD  
ROOT
ATOM     14  CA  GLU D 570     -18.033  -6.348 -13.375  1.00 32.92     0.160 C 
ENDROOT
BRANCH  14  15
ATOM     15  CB  GLU D 570     -19.500  -6.345 -13.794  1.00 32.92     0.043 C 
BRANCH  15  16
ATOM     16  CG  GLU D 570     -20.440  -5.521 -12.990  1.00 32.92     0.100 C 
BRANCH  16  17
ATOM     17  CD  GLU D 570     -21.711  -5.183 -13.734  1.00 32.92     0.185 C 
ATOM     18  OE1 GLU D 570     -22.787  -5.142 -13.106  1.00 32.92    -0.647 OA
ATOM     19  OE2 GLU D 570     -21.632  -4.973 -14.960  1.00 32.92    -0.647 OA
ENDBRANCH  16  17
ENDBRANCH  15  16
ENDBRANCH  14  15
END_RES GLU D 570
ENDMDL
MODEL 4
REMARK VINA RESULT:      -5.6      7.756     10.895
REMARK  9 active torsions:
REMARK  status: ('A' for Active; 'I' for Inactive)
REMARK    1  A    between atoms: C_2  and  C_3 
REMARK    2  A    between atoms: C_3  and  C_4 
REMARK    3  A    between atoms: C_4  and  C_5 
REMARK    4  A    between atoms: C_5  and  C_6 
REMARK    5  A    between atoms: C_6  and  C_7 
REMARK    6  A    between atoms: C_7  and  C_8 
REMARK    7  A    between atoms: C_8  and  C_9 
REMARK    8  A    between atoms: C_9  and  C_10 
REMARK    9  A    between atoms: C_10  and  C_11 
ROOT
HETATM    1  C   UNL     1     -20.323  -4.975  -5.471  1.00  0.00     0.000 C 
ENDROOT
BRANCH   1   2
HETATM    2  C   UNL     1     -20.877  -6.390  -5.502  1.00  0.00     0.000 C 
BRANCH   2   3
HETATM    3  C   UNL     1     -21.982  -6.549  -4.469  1.00  0.00     0.000 C 
BRANCH   3   4
HETATM    4  C   UNL     1     -21.388  -6.855  -3.102  1.00  0.00    -0.000 C 
BRANCH   4   5
HETATM    5  C   UNL     1     -22.166  -6.142  -2.008  1.00  0.00    -0.005 C 
HETATM    6  C   UNL     1     -22.337  -7.051  -0.800  1.00  0.00     0.005 C 
ENDBRANCH   4   5
ENDBRANCH   3   4
ENDBRANCH   2   3
ENDBRANCH   1   2
BRANCH   1   7
HETATM    7  C   UNL     1     -19.732  -4.615  -6.821  1.00  0.00     0.000 C 
BRANCH   7   8
HETATM    8  C   UNL     1     -20.806  -4.020  -7.721  1.00  0.00     0.000 C 
BRANCH   8   9
HETATM    9  C   UNL     1     -20.633  -4.513  -9.148  1.00  0.00     0.000 C 
BRANCH   9  10
HETATM   10  C   UNL     1     -21.593  -3.786 -10.077  1.00  0.00    -0.000 C 
BRANCH  10  11
HETATM   11  C   UNL     1     -23.034  -3.966  -9.611  1.00  0.00    -0.005 C 
HETATM   12  C   UNL     1     -23.746  -4.994 -10.468  1.00  0.00     0.005 C 
ENDBRANCH  10  11
ENDBRANCH   9  10
ENDBRANCH   8   9
ENDBRANCH   7   8
ENDBRANCH   1   7
TORSDOF 9
BEGIN_RES ARG D 557
REMARK  4 active torsions:
REMARK  status: ('A' for Active; 'I' for Inactive)
REMARK    1  A    between atoms: CA   and  CB  
REMARK    2  A    between atoms: CB   and  CG  
REMARK    3  A    between atoms: CG   and  CD  
REMARK    4  A    between atoms: CD   and  NE  
REMARK       I    between atoms: NE   and  CZ  
REMARK       I    between atoms: CZ   and  NH1 
REMARK       I    between atoms: CZ   and  NH2 
ROOT
ATOM      1  CA  ARG D 557     -26.217   2.705 -17.014  1.00 35.49     0.159 C 
ENDROOT
BRANCH   1   2
ATOM      2  CB  ARG D 557     -26.789   1.319 -17.183  1.00 35.49     0.034 C 
BRANCH   2   3
ATOM      3  CG  ARG D 557     -25.836   0.203 -17.150  1.00 35.49     0.027 C 
BRANCH   3   4
ATOM      4  CD  ARG D 557     -24.751   0.416 -16.166  1.00 35.49     0.116 C 
BRANCH   4   5
ATOM      5  NE  ARG D 557     -24.891  -0.433 -15.012  1.00 35.49    -0.212 N 
ATOM      6  CZ  ARG D 557     -24.074  -1.404 -14.669  1.00 35.49     0.666 C 
ATOM      7  NH1 ARG D 557     -23.009  -1.720 -15.383  1.00 35.49    -0.235 N 
ATOM      8  NH2 ARG D 557     -24.344  -2.058 -13.577  1.00 35.49    -0.235 N 
ATOM      9  HH  ARG D 557     -22.811  -1.301 -16.104  1.00 35.49     0.174 HD
ATOM     10  HH  ARG D 557     -22.511  -2.361 -15.109  1.00 35.49     0.174 HD
ATOM     11  HH  ARG D 557     -25.034  -1.827 -13.133  1.00 35.49     0.174 HD
ATOM     12  HH  ARG D 557     -23.838  -2.689 -13.321  1.00 35.49     0.174 HD
ATOM     13  HE  ARG D 557     -25.590  -0.347 -14.535  1.00 35.49     0.178 HD
ENDBRANCH   4   5
ENDBRANCH   3   4
ENDBRANCH   2   3
ENDBRANCH   1   2
END_RES ARG D 557
BEGIN_RES GLU D 570
REMARK  3 active torsions:
REMARK  status: ('A' for Active; 'I' for Inactive)
REMARK    5  A    between atoms: CA   and  CB  
REMARK    6  A    between atoms: CB   and  CG  
REMARK    7  A    between atoms: CG   and  CD  
ROOT
ATOM     14  CA  GLU D 570     -18.033  -6.348 -13.375  1.00 32.92     0.160 C 
ENDROOT
BRANCH  14  15
ATOM     15  CB  GLU D 570     -19.500  -6.345 -13.794  1.00 32.92     0.043 C 
BRANCH  15  16
ATOM     16  CG  GLU D 570     -20.444  -5.541 -12.975  1.00 32.92     0.100 C 
BRANCH  16  17
ATOM     17  CD  GLU D 570     -21.740  -5.244 -13.692  1.00 32.92     0.185 C 
ATOM     18  OE1 GLU D 570     -22.263  -4.121 -13.557  1.00 32.92    -0.647 OA
ATOM     19  OE2 GLU D 570     -22.247  -6.149 -14.384  1.00 32.92    -0.647 OA
ENDBRANCH  16  17
ENDBRANCH  15  16
ENDBRANCH  14  15
END_RES GLU D 570
ENDMDL
MODEL 5
REMARK VINA RESULT:      -5.5      2.471      2.819
REMARK  9 active torsions:
REMARK  status: ('A' for Active; 'I' for Inactive)
REMARK    1  A    between atoms: C_2  and  C_3 
REMARK    2  A    between atoms: C_3  and  C_4 
REMARK    3  A    between atoms: C_4  and  C_5 
REMARK    4  A    between atoms: C_5  and  C_6 
REMARK    5  A    between atoms: C_6  and  C_7 
REMARK    6  A    between atoms: C_7  and  C_8 
REMARK    7  A    between atoms: C_8  and  C_9 
REMARK    8  A    between atoms: C_9  and  C_10 
REMARK    9  A    between atoms: C_10  and  C_11 
ROOT
HETATM    1  C   UNL     1     -33.734  -3.426 -10.569  1.00  0.00     0.000 C 
ENDROOT
BRANCH   1   2
HETATM    2  C   UNL     1     -33.041  -4.421 -11.486  1.00  0.00     0.000 C 
BRANCH   2   3
HETATM    3  C   UNL     1     -33.520  -5.834 -11.192  1.00  0.00     0.000 C 
BRANCH   3   4
HETATM    4  C   UNL     1     -34.528  -5.824 -10.052  1.00  0.00    -0.000 C 
BRANCH   4   5
HETATM    5  C   UNL     1     -35.029  -7.231  -9.768  1.00  0.00    -0.005 C 
HETATM    6  C   UNL     1     -33.935  -8.250 -10.049  1.00  0.00     0.005 C 
ENDBRANCH   4   5
ENDBRANCH   3   4
ENDBRANCH   2   3
ENDBRANCH   1   2
BRANCH   1   7
HETATM    7  C   UNL     1     -33.928  -2.103 -11.286  1.00  0.00     0.000 C 
BRANCH   7   8
HETATM    8  C   UNL     1     -35.321  -2.036 -11.896  1.00  0.00     0.000 C 
BRANCH   8   9
HETATM    9  C   UNL     1     -35.323  -1.118 -13.108  1.00  0.00     0.000 C 
BRANCH   9  10
HETATM   10  C   UNL     1     -34.866   0.278 -12.712  1.00  0.00    -0.000 C 
BRANCH  10  11
HETATM   11  C   UNL     1     -34.772   1.182 -13.936  1.00  0.00    -0.005 C 
HETATM   12  C   UNL     1     -35.230   0.445 -15.179  1.00  0.00     0.005 C 
ENDBRANCH  10  11
ENDBRANCH   9  10
ENDBRANCH   8   9
ENDBRANCH   7   8
ENDBRANCH   1   7
TORSDOF 9
BEGIN_RES ARG D 557
REMARK  4 active torsions:
REMARK  status: ('A' for Active; 'I' for Inactive)
REMARK    1  A    between atoms: CA   and  CB  
REMARK    2  A    between atoms: CB   and  CG  
REMARK    3  A    between atoms: CG   and  CD  
REMARK    4  A    between atoms: CD   and  NE  
REMARK       I    between atoms: NE   and  CZ  
REMARK       I    between atoms: CZ   and  NH1 
REMARK       I    between atoms: CZ   and  NH2 
ROOT
ATOM      1  CA  ARG D 557     -26.217   2.705 -17.014  1.00 35.49     0.159 C 
ENDROOT
BRANCH   1   2
ATOM      2  CB  ARG D 557     -26.789   1.319 -17.183  1.00 35.49     0.034 C 
BRANCH   2   3
ATOM      3  CG  ARG D 557     -28.158   1.106 -16.699  1.00 35.49     0.027 C 
BRANCH   3   4
ATOM      4  CD  ARG D 557     -28.794  -0.083 -17.311  1.00 35.49     0.116 C 
BRANCH   4   5
ATOM      5  NE  ARG D 557     -28.196  -1.311 -16.858  1.00 35.49    -0.212 N 
ATOM      6  CZ  ARG D 557     -28.690  -2.517 -17.032  1.00 35.49     0.666 C 
ATOM      7  NH1 ARG D 557     -29.837  -2.730 -17.650  1.00 35.49    -0.235 N 
ATOM      8  NH2 ARG D 557     -28.001  -3.520 -16.573  1.00 35.49    -0.235 N 
ATOM      9  HH  ARG D 557     -30.307  -2.085 -17.961  1.00 35.49     0.174 HD
ATOM     10  HH  ARG D 557     -30.109  -3.538 -17.736  1.00 35.49     0.174 HD
ATOM     11  HH  ARG D 557     -27.260  -3.353 -16.185  1.00 35.49     0.174 HD
ATOM     12  HH  ARG D 557     -28.286  -4.313 -16.669  1.00 35.49     0.174 HD
ATOM     13  HE  ARG D 557     -27.490  -1.262 -16.386  1.00 35.49     0.178 HD
ENDBRANCH   4   5
ENDBRANCH   3   4
ENDBRANCH   2   3
ENDBRANCH   1   2
END_RES ARG D 557
BEGIN_RES GLU D 570
REMARK  3 active torsions:
REMARK  status: ('A' for Active; 'I' for Inactive)
REMARK    5  A    between atoms: CA   and  CB  
REMARK    6  A    between atoms: CB   and  CG  
REMARK    7  A    between atoms: CG   and  CD  
ROOT
ATOM     14  CA  GLU D 570     -18.033  -6.348 -13.375  1.00 32.92     0.160 C 
ENDROOT
BRANCH  14  15
ATOM     15  CB  GLU D 570     -19.500  -6.345 -13.794  1.00 32.92     0.043 C 
BRANCH  15  16
ATOM     16  CG  GLU D 570     -19.809  -5.991 -15.204  1.00 32.92     0.100 C 
BRANCH  16  17
ATOM     17  CD  GLU D 570     -21.246  -5.573 -15.405  1.00 32.92     0.185 C 
ATOM     18  OE1 GLU D 570     -21.533  -4.832 -16.365  1.00 32.92    -0.647 OA
ATOM     19  OE2 GLU D 570     -22.093  -5.977 -14.584  1.00 32.92    -0.647 OA
ENDBRANCH  16  17
ENDBRANCH  15  16
ENDBRANCH  14  15
END_RES GLU D 570
ENDMDL
MODEL 6
REMARK VINA RESULT:      -5.5      7.619     11.545
REMARK  9 active torsions:
REMARK  status: ('A' for Active; 'I' for Inactive)
REMARK    1  A    between atoms: C_2  and  C_3 
REMARK    2  A    between atoms: C_3  and  C_4 
REMARK    3  A    between atoms: C_4  and  C_5 
REMARK    4  A    between atoms: C_5  and  C_6 
REMARK    5  A    between atoms: C_6  and  C_7 
REMARK    6  A    between atoms: C_7  and  C_8 
REMARK    7  A    between atoms: C_8  and  C_9 
REMARK    8  A    between atoms: C_9  and  C_10 
REMARK    9  A    between atoms: C_10  and  C_11 
ROOT
HETATM    1  C   UNL     1     -19.676  -4.869  -7.002  1.00  0.00     0.000 C 
ENDROOT
BRANCH   1   2
HETATM    2  C   UNL     1     -20.533  -3.888  -7.785  1.00  0.00     0.000 C 
BRANCH   2   3
HETATM    3  C   UNL     1     -20.547  -4.258  -9.260  1.00  0.00     0.000 C 
BRANCH   3   4
HETATM    4  C   UNL     1     -21.975  -4.493  -9.732  1.00  0.00    -0.000 C 
BRANCH   4   5
HETATM    5  C   UNL     1     -22.964  -3.790  -8.816  1.00  0.00    -0.005 C 
HETATM    6  C   UNL     1     -24.261  -3.500  -9.558  1.00  0.00     0.005 C 
ENDBRANCH   4   5
ENDBRANCH   3   4
ENDBRANCH   2   3
ENDBRANCH   1   2
BRANCH   1   7
HETATM    7  C   UNL     1     -20.333  -5.192  -5.673  1.00  0.00     0.000 C 
BRANCH   7   8
HETATM    8  C   UNL     1     -21.708  -5.801  -5.902  1.00  0.00     0.000 C 
BRANCH   8   9
HETATM    9  C   UNL     1     -22.152  -6.581  -4.675  1.00  0.00     0.000 C 
BRANCH   9  10
HETATM   10  C   UNL     1     -20.957  -7.256  -4.019  1.00  0.00    -0.000 C 
BRANCH  10  11
HETATM   11  C   UNL     1     -21.062  -7.182  -2.500  1.00  0.00    -0.005 C 
HETATM   12  C   UNL     1     -22.150  -6.209  -2.088  1.00  0.00     0.005 C 
ENDBRANCH  10  11
ENDBRANCH   9  10
ENDBRANCH   8   9
ENDBRANCH   7   8
ENDBRANCH   1   7
TORSDOF 9
BEGIN_RES ARG D 557
REMARK  4 active torsions:
REMARK  status: ('A' for Active; 'I' for Inactive)
REMARK    1  A    between atoms: CA   and  CB  
REMARK    2  A    between atoms: CB   and  CG  
REMARK    3  A    between atoms: CG   and  CD  
REMARK    4  A    between atoms: CD   and  NE  
REMARK       I    between atoms: NE   and  CZ  
REMARK       I    between atoms: CZ   and  NH1 
REMARK       I    between atoms: CZ   and  NH2 
ROOT
ATOM      1  CA  ARG D 557     -26.217   2.705 -17.014  1.00 35.49     0.159 C 
ENDROOT
BRANCH   1   2
ATOM      2  CB  ARG D 557     -26.789   1.319 -17.183  1.00 35.49     0.034 C 
BRANCH   2   3
ATOM      3  CG  ARG D 557     -25.836   0.203 -17.154  1.00 35.49     0.027 C 
BRANCH   3   4
ATOM      4  CD  ARG D 557     -24.760   0.405 -16.157  1.00 35.49     0.116 C 
BRANCH   4   5
ATOM      5  NE  ARG D 557     -24.920  -0.447 -15.008  1.00 35.49    -0.212 N 
ATOM      6  CZ  ARG D 557     -24.114  -1.425 -14.659  1.00 35.49     0.666 C 
ATOM      7  NH1 ARG D 557     -23.044  -1.747 -15.362  1.00 35.49    -0.235 N 
ATOM      8  NH2 ARG D 557     -24.401  -2.081 -13.572  1.00 35.49    -0.235 N 
ATOM      9  HH  ARG D 557     -22.835  -1.328 -16.079  1.00 35.49     0.174 HD
ATOM     10  HH  ARG D 557     -22.554  -2.393 -15.084  1.00 35.49     0.174 HD
ATOM     11  HH  ARG D 557     -25.095  -1.846 -13.134  1.00 35.49     0.174 HD
ATOM     12  HH  ARG D 557     -23.903  -2.716 -13.313  1.00 35.49     0.174 HD
ATOM     13  HE  ARG D 557     -25.623  -0.356 -14.538  1.00 35.49     0.178 HD
ENDBRANCH   4   5
ENDBRANCH   3   4
ENDBRANCH   2   3
ENDBRANCH   1   2
END_RES ARG D 557
BEGIN_RES GLU D 570
REMARK  3 active torsions:
REMARK  status: ('A' for Active; 'I' for Inactive)
REMARK    5  A    between atoms: CA   and  CB  
REMARK    6  A    between atoms: CB   and  CG  
REMARK    7  A    between atoms: CG   and  CD  
ROOT
ATOM     14  CA  GLU D 570     -18.033  -6.348 -13.375  1.00 32.92     0.160 C 
ENDROOT
BRANCH  14  15
ATOM     15  CB  GLU D 570     -19.500  -6.345 -13.794  1.00 32.92     0.043 C 
BRANCH  15  16
ATOM     16  CG  GLU D 570     -20.444  -5.539 -12.977  1.00 32.92     0.100 C 
BRANCH  16  17
ATOM     17  CD  GLU D 570     -21.733  -5.228 -13.701  1.00 32.92     0.185 C 
ATOM     18  OE1 GLU D 570     -22.331  -4.166 -13.444  1.00 32.92    -0.647 OA
ATOM     19  OE2 GLU D 570     -22.158  -6.064 -14.522  1.00 32.92    -0.647 OA
ENDBRANCH  16  17
ENDBRANCH  15  16
ENDBRANCH  14  15
END_RES GLU D 570
ENDMDL
MODEL 7
REMARK VINA RESULT:      -5.4      2.320      4.996
REMARK  9 active torsions:
REMARK  status: ('A' for Active; 'I' for Inactive)
REMARK    1  A    between atoms: C_2  and  C_3 
REMARK    2  A    between atoms: C_3  and  C_4 
REMARK    3  A    between atoms: C_4  and  C_5 
REMARK    4  A    between atoms: C_5  and  C_6 
REMARK    5  A    between atoms: C_6  and  C_7 
REMARK    6  A    between atoms: C_7  and  C_8 
REMARK    7  A    between atoms: C_8  and  C_9 
REMARK    8  A    between atoms: C_9  and  C_10 
REMARK    9  A    between atoms: C_10  and  C_11 
ROOT
HETATM    1  C   UNL     1     -33.738  -2.225 -10.592  1.00  0.00     0.000 C 
ENDROOT
BRANCH   1   2
HETATM    2  C   UNL     1     -34.988  -1.794 -11.341  1.00  0.00     0.000 C 
BRANCH   2   3
HETATM    3  C   UNL     1     -36.196  -1.827 -10.417  1.00  0.00     0.000 C 
BRANCH   3   4
HETATM    4  C   UNL     1     -36.611  -0.412 -10.040  1.00  0.00    -0.000 C 
BRANCH   4   5
HETATM    5  C   UNL     1     -37.195  -0.383  -8.636  1.00  0.00    -0.005 C 
HETATM    6  C   UNL     1     -36.508   0.686  -7.798  1.00  0.00     0.005 C 
ENDBRANCH   4   5
ENDBRANCH   3   4
ENDBRANCH   2   3
ENDBRANCH   1   2
BRANCH   1   7
HETATM    7  C   UNL     1     -33.079  -3.393 -11.302  1.00  0.00     0.000 C 
BRANCH   7   8
HETATM    8  C   UNL     1     -33.984  -3.908 -12.413  1.00  0.00     0.000 C 
BRANCH   8   9
HETATM    9  C   UNL     1     -34.644  -5.212 -11.994  1.00  0.00     0.000 C 
BRANCH   9  10
HETATM   10  C   UNL     1     -33.915  -5.813 -10.802  1.00  0.00    -0.000 C 
BRANCH  10  11
HETATM   11  C   UNL     1     -34.850  -6.701  -9.989  1.00  0.00    -0.005 C 
HETATM   12  C   UNL     1     -34.380  -8.142 -10.024  1.00  0.00     0.005 C 
ENDBRANCH  10  11
ENDBRANCH   9  10
ENDBRANCH   8   9
ENDBRANCH   7   8
ENDBRANCH   1   7
TORSDOF 9
BEGIN_RES ARG D 557
REMARK  4 active torsions:
REMARK  status: ('A' for Active; 'I' for Inactive)
REMARK    1  A    between atoms: CA   and  CB  
REMARK    2  A    between atoms: CB   and  CG  
REMARK    3  A    between atoms: CG   and  CD  
REMARK    4  A    between atoms: CD   and  NE  
REMARK       I    between atoms: NE   and  CZ  
REMARK       I    between atoms: CZ   and  NH1 
REMARK       I    between atoms: CZ   and  NH2 
ROOT
ATOM      1  CA  ARG D 557     -26.217   2.705 -17.014  1.00 35.49     0.159 C 
ENDROOT
BRANCH   1   2
ATOM      2  CB  ARG D 557     -26.789   1.319 -17.183  1.00 35.49     0.034 C 
BRANCH   2   3
ATOM      3  CG  ARG D 557     -28.238   1.175 -16.997  1.00 35.49     0.027 C 
BRANCH   3   4
ATOM      4  CD  ARG D 557     -28.638  -0.229 -16.749  1.00 35.49     0.116 C 
BRANCH   4   5
ATOM      5  NE  ARG D 557     -27.616  -0.971 -16.059  1.00 35.49    -0.212 N 
ATOM      6  CZ  ARG D 557     -27.446  -2.273 -16.109  1.00 35.49     0.666 C 
ATOM      7  NH1 ARG D 557     -28.234  -3.065 -16.812  1.00 35.49    -0.235 N 
ATOM      8  NH2 ARG D 557     -26.451  -2.774 -15.436  1.00 35.49    -0.235 N 
ATOM      9  HH  ARG D 557     -28.893  -2.756 -17.264  1.00 35.49     0.174 HD
ATOM     10  HH  ARG D 557     -28.073  -3.906 -16.809  1.00 35.49     0.174 HD
ATOM     11  HH  ARG D 557     -25.954  -2.238 -14.997  1.00 35.49     0.174 HD
ATOM     12  HH  ARG D 557     -26.307  -3.610 -15.447  1.00 35.49     0.174 HD
ATOM     13  HE  ARG D 557     -27.107  -0.548 -15.525  1.00 35.49     0.178 HD
ENDBRANCH   4   5
ENDBRANCH   3   4
ENDBRANCH   2   3
ENDBRANCH   1   2
END_RES ARG D 557
BEGIN_RES GLU D 570
REMARK  3 active torsions:
REMARK  status: ('A' for Active; 'I' for Inactive)
REMARK    5  A    between atoms: CA   and  CB  
REMARK    6  A    between atoms: CB   and  CG  
REMARK    7  A    between atoms: CG   and  CD  
ROOT
ATOM     14  CA  GLU D 570     -18.033  -6.348 -13.375  1.00 32.92     0.160 C 
ENDROOT
BRANCH  14  15
ATOM     15  CB  GLU D 570     -19.500  -6.345 -13.794  1.00 32.92     0.043 C 
BRANCH  15  16
ATOM     16  CG  GLU D 570     -20.440  -5.522 -12.990  1.00 32.92     0.100 C 
BRANCH  16  17
ATOM     17  CD  GLU D 570     -21.752  -5.268 -13.694  1.00 32.92     0.185 C 
ATOM     18  OE1 GLU D 570     -22.230  -6.158 -14.423  1.00 32.92    -0.647 OA
ATOM     19  OE2 GLU D 570     -22.299  -4.159 -13.530  1.00 32.92    -0.647 OA
ENDBRANCH  16  17
ENDBRANCH  15  16
ENDBRANCH  14  15
END_RES GLU D 570
ENDMDL
MODEL 8
REMARK VINA RESULT:      -5.4      2.590      3.515
REMARK  9 active torsions:
REMARK  status: ('A' for Active; 'I' for Inactive)
REMARK    1  A    between atoms: C_2  and  C_3 
REMARK    2  A    between atoms: C_3  and  C_4 
REMARK    3  A    between atoms: C_4  and  C_5 
REMARK    4  A    between atoms: C_5  and  C_6 
REMARK    5  A    between atoms: C_6  and  C_7 
REMARK    6  A    between atoms: C_7  and  C_8 
REMARK    7  A    between atoms: C_8  and  C_9 
REMARK    8  A    between atoms: C_9  and  C_10 
REMARK    9  A    between atoms: C_10  and  C_11 
ROOT
HETATM    1  C   UNL     1     -33.516  -2.534 -10.791  1.00  0.00     0.000 C 
ENDROOT
BRANCH   1   2
HETATM    2  C   UNL     1     -33.078  -3.453 -11.920  1.00  0.00     0.000 C 
BRANCH   2   3
HETATM    3  C   UNL     1     -32.976  -4.888 -11.424  1.00  0.00     0.000 C 
BRANCH   3   4
HETATM    4  C   UNL     1     -34.138  -5.210 -10.496  1.00  0.00    -0.000 C 
BRANCH   4   5
HETATM    5  C   UNL     1     -34.806  -6.513 -10.906  1.00  0.00    -0.005 C 
HETATM    6  C   UNL     1     -34.808  -7.497  -9.745  1.00  0.00     0.005 C 
ENDBRANCH   4   5
ENDBRANCH   3   4
ENDBRANCH   2   3
ENDBRANCH   1   2
BRANCH   1   7
HETATM    7  C   UNL     1     -34.508  -1.508 -11.307  1.00  0.00     0.000 C 
BRANCH   7   8
HETATM    8  C   UNL     1     -35.930  -1.950 -10.993  1.00  0.00     0.000 C 
BRANCH   8   9
HETATM    9  C   UNL     1     -36.504  -1.118  -9.858  1.00  0.00     0.000 C 
BRANCH   9  10
HETATM   10  C   UNL     1     -36.909   0.257 -10.366  1.00  0.00    -0.000 C 
BRANCH  10  11
HETATM   11  C   UNL     1     -37.353   1.149  -9.211  1.00  0.00    -0.005 C 
HETATM   12  C   UNL     1     -36.606   0.788  -7.942  1.00  0.00     0.005 C 
ENDBRANCH  10  11
ENDBRANCH   9  10
ENDBRANCH   8   9
ENDBRANCH   7   8
ENDBRANCH   1   7
TORSDOF 9
BEGIN_RES ARG D 557
REMARK  4 active torsions:
REMARK  status: ('A' for Active; 'I' for Inactive)
REMARK    1  A    between atoms: CA   and  CB  
REMARK    2  A    between atoms: CB   and  CG  
REMARK    3  A    between atoms: CG   and  CD  
REMARK    4  A    between atoms: CD   and  NE  
REMARK       I    between atoms: NE   and  CZ  
REMARK       I    between atoms: CZ   and  NH1 
REMARK       I    between atoms: CZ   and  NH2 
ROOT
ATOM      1  CA  ARG D 557     -26.217   2.705 -17.014  1.00 35.49     0.159 C 
ENDROOT
BRANCH   1   2
ATOM      2  CB  ARG D 557     -26.789   1.319 -17.183  1.00 35.49     0.034 C 
BRANCH   2   3
ATOM      3  CG  ARG D 557     -28.232   1.226 -17.435  1.00 35.49     0.027 C 
BRANCH   3   4
ATOM      4  CD  ARG D 557     -28.910   0.301 -16.497  1.00 35.49     0.116 C 
BRANCH   4   5
ATOM      5  NE  ARG D 557     -29.286  -0.934 -17.132  1.00 35.49    -0.212 N 
ATOM      6  CZ  ARG D 557     -28.648  -2.078 -17.026  1.00 35.49     0.666 C 
ATOM      7  NH1 ARG D 557     -27.546  -2.211 -16.311  1.00 35.49    -0.235 N 
ATOM      8  NH2 ARG D 557     -29.145  -3.104 -17.655  1.00 35.49    -0.235 N 
ATOM      9  HH  ARG D 557     -27.202  -1.550 -15.887  1.00 35.49     0.174 HD
ATOM     10  HH  ARG D 557     -27.174  -2.982 -16.276  1.00 35.49     0.174 HD
ATOM     11  HH  ARG D 557     -29.861  -2.990 -18.103  1.00 35.49     0.174 HD
ATOM     12  HH  ARG D 557     -28.762  -3.859 -17.607  1.00 35.49     0.174 HD
ATOM     13  HE  ARG D 557     -29.944  -0.922 -17.671  1.00 35.49     0.178 HD
ENDBRANCH   4   5
ENDBRANCH   3   4
ENDBRANCH   2   3
ENDBRANCH   1   2
END_RES ARG D 557
BEGIN_RES GLU D 570
REMARK  3 active torsions:
REMARK  status: ('A' for Active; 'I' for Inactive)
REMARK    5  A    between atoms: CA   and  CB  
REMARK    6  A    between atoms: CB   and  CG  
REMARK    7  A    between atoms: CG   and  CD  
ROOT
ATOM     14  CA  GLU D 570     -18.033  -6.348 -13.375  1.00 32.92     0.160 C 
ENDROOT
BRANCH  14  15
ATOM     15  CB  GLU D 570     -19.500  -6.345 -13.794  1.00 32.92     0.043 C 
BRANCH  15  16
ATOM     16  CG  GLU D 570     -20.442  -5.533 -12.981  1.00 32.92     0.100 C 
BRANCH  16  17
ATOM     17  CD  GLU D 570     -21.731  -5.225 -13.707  1.00 32.92     0.185 C 
ATOM     18  OE1 GLU D 570     -22.046  -5.909 -14.699  1.00 32.92    -0.647 OA
ATOM     19  OE2 GLU D 570     -22.426  -4.277 -13.288  1.00 32.92    -0.647 OA
ENDBRANCH  16  17
ENDBRANCH  15  16
ENDBRANCH  14  15
END_RES GLU D 570
ENDMDL
MODEL 9
REMARK VINA RESULT:      -5.4      8.184     11.543
REMARK  9 active torsions:
REMARK  status: ('A' for Active; 'I' for Inactive)
REMARK    1  A    between atoms: C_2  and  C_3 
REMARK    2  A    between atoms: C_3  and  C_4 
REMARK    3  A    between atoms: C_4  and  C_5 
REMARK    4  A    between atoms: C_5  and  C_6 
REMARK    5  A    between atoms: C_6  and  C_7 
REMARK    6  A    between atoms: C_7  and  C_8 
REMARK    7  A    between atoms: C_8  and  C_9 
REMARK    8  A    between atoms: C_9  and  C_10 
REMARK    9  A    between atoms: C_10  and  C_11 
ROOT
HETATM    1  C   UNL     1     -21.773  -7.009  -4.969  1.00  0.00     0.000 C 
ENDROOT
BRANCH   1   2
HETATM    2  C   UNL     1     -21.498  -6.143  -3.750  1.00  0.00     0.000 C 
BRANCH   2   3
HETATM    3  C   UNL     1     -21.181  -7.014  -2.544  1.00  0.00     0.000 C 
BRANCH   3   4
HETATM    4  C   UNL     1     -22.188  -6.761  -1.431  1.00  0.00    -0.000 C 
BRANCH   4   5
HETATM    5  C   UNL     1     -21.910  -7.667  -0.242  1.00  0.00    -0.005 C 
HETATM    6  C   UNL     1     -23.212  -8.061   0.441  1.00  0.00     0.005 C 
ENDBRANCH   4   5
ENDBRANCH   3   4
ENDBRANCH   2   3
ENDBRANCH   1   2
BRANCH   1   7
HETATM    7  C   UNL     1     -21.099  -6.418  -6.193  1.00  0.00     0.000 C 
BRANCH   7   8
HETATM    8  C   UNL     1     -20.519  -5.050  -5.863  1.00  0.00     0.000 C 
BRANCH   8   9
HETATM    9  C   UNL     1     -20.888  -4.046  -6.943  1.00  0.00     0.000 C 
BRANCH   9  10
HETATM   10  C   UNL     1     -19.803  -3.995  -8.008  1.00  0.00    -0.000 C 
BRANCH  10  11
HETATM   11  C   UNL     1     -20.304  -4.597  -9.316  1.00  0.00    -0.005 C 
HETATM   12  C   UNL     1     -21.726  -4.153  -9.596  1.00  0.00     0.005 C 
ENDBRANCH  10  11
ENDBRANCH   9  10
ENDBRANCH   8   9
ENDBRANCH   7   8
ENDBRANCH   1   7
TORSDOF 9
BEGIN_RES ARG D 557
REMARK  4 active torsions:
REMARK  status: ('A' for Active; 'I' for Inactive)
REMARK    1  A    between atoms: CA   and  CB  
REMARK    2  A    between atoms: CB   and  CG  
REMARK    3  A    between atoms: CG   and  CD  
REMARK    4  A    between atoms: CD   and  NE  
REMARK       I    between atoms: NE   and  CZ  
REMARK       I    between atoms: CZ   and  NH1 
REMARK       I    between atoms: CZ   and  NH2 
ROOT
ATOM      1  CA  ARG D 557     -26.217   2.705 -17.014  1.00 35.49     0.159 C 
ENDROOT
BRANCH   1   2
ATOM      2  CB  ARG D 557     -26.789   1.319 -17.183  1.00 35.49     0.034 C 
BRANCH   2   3
ATOM      3  CG  ARG D 557     -25.840   0.201 -17.125  1.00 35.49     0.027 C 
BRANCH   3   4
ATOM      4  CD  ARG D 557     -24.762   0.427 -16.135  1.00 35.49     0.116 C 
BRANCH   4   5
ATOM      5  NE  ARG D 557     -24.875  -0.451 -15.000  1.00 35.49    -0.212 N 
ATOM      6  CZ  ARG D 557     -24.041  -1.418 -14.691  1.00 35.49     0.666 C 
ATOM      7  NH1 ARG D 557     -22.981  -1.703 -15.426  1.00 35.49    -0.235 N 
ATOM      8  NH2 ARG D 557     -24.288  -2.102 -13.611  1.00 35.49    -0.235 N 
ATOM      9  HH  ARG D 557     -22.798  -1.265 -16.139  1.00 35.49     0.174 HD
ATOM     10  HH  ARG D 557     -22.471  -2.343 -15.173  1.00 35.49     0.174 HD
ATOM     11  HH  ARG D 557     -24.975  -1.891 -13.152  1.00 35.49     0.174 HD
ATOM     12  HH  ARG D 557     -23.770  -2.731 -13.377  1.00 35.49     0.174 HD
ATOM     13  HE  ARG D 557     -25.568  -0.386 -14.512  1.00 35.49     0.178 HD
ENDBRANCH   4   5
ENDBRANCH   3   4
ENDBRANCH   2   3
ENDBRANCH   1   2
END_RES ARG D 557
BEGIN_RES GLU D 570
REMARK  3 active torsions:
REMARK  status: ('A' for Active; 'I' for Inactive)
REMARK    5  A    between atoms: CA   and  CB  
REMARK    6  A    between atoms: CB   and  CG  
REMARK    7  A    between atoms: CG   and  CD  
ROOT
ATOM     14  CA  GLU D 570     -18.033  -6.348 -13.375  1.00 32.92     0.160 C 
ENDROOT
BRANCH  14  15
ATOM     15  CB  GLU D 570     -19.500  -6.345 -13.794  1.00 32.92     0.043 C 
BRANCH  15  16
ATOM     16  CG  GLU D 570     -20.449  -5.565 -12.958  1.00 32.92     0.100 C 
BRANCH  16  17
ATOM     17  CD  GLU D 570     -21.642  -5.060 -13.736  1.00 32.92     0.185 C 
ATOM     18  OE1 GLU D 570     -22.662  -4.705 -13.116  1.00 32.92    -0.647 OA
ATOM     19  OE2 GLU D 570     -21.561  -5.036 -14.980  1.00 32.92    -0.647 OA
ENDBRANCH  16  17
ENDBRANCH  15  16
ENDBRANCH  14  15
END_RES GLU D 570
ENDMDL
