MODEL 1
REMARK VINA RESULT:      -6.3      0.000      0.000
REMARK  3 active torsions:
REMARK  status: ('A' for Active; 'I' for Inactive)
REMARK    1  A    between atoms: C_2  and  C_3 
REMARK    2  A    between atoms: C_3  and  C_4 
REMARK    3  A    between atoms: C_3  and  O_10 
ROOT
HETATM    1  C   UNL     1     -34.384  -4.616 -11.007  1.00  0.00    -0.030 A 
HETATM    2  C   UNL     1     -35.636  -4.005 -10.832  1.00  0.00     0.010 A 
HETATM    3  C   UNL     1     -35.742  -2.617 -10.715  1.00  0.00     0.001 A 
HETATM    4  C   UNL     1     -34.604  -1.821 -10.779  1.00  0.00     0.000 A 
HETATM    5  C   UNL     1     -33.353  -2.410 -10.960  1.00  0.00     0.001 A 
HETATM    6  C   UNL     1     -33.245  -3.799 -11.069  1.00  0.00     0.010 A 
ENDROOT
BRANCH   1   7
HETATM    7  C   UNL     1     -34.238  -6.121 -11.132  1.00  0.00     0.150 C 
BRANCH   7   8
HETATM    8  C   UNL     1     -34.820  -6.908  -9.951  1.00  0.00     0.032 C 
HETATM    9  C   UNL     1     -34.278  -8.324  -9.836  1.00  0.00     0.008 C 
ENDBRANCH   7   8
BRANCH   7  10
HETATM   10  O   UNL     1     -32.858  -6.479 -11.248  1.00  0.00    -0.391 OA
HETATM   11  H   UNL     1     -32.755  -7.393 -10.941  1.00  0.00     0.210 HD
ENDBRANCH   7  10
ENDBRANCH   1   7
TORSDOF 3
BEGIN_RES ARG D 557
REMARK  4 active torsions:
REMARK  status: ('A' for Active; 'I' for Inactive)
REMARK    1  A    between atoms: CA   and  CB  
REMARK    2  A    between atoms: CB   and  CG  
REMARK    3  A    between atoms: CG   and  CD  
REMARK    4  A    between atoms: CD   and  NE  
REMARK       I    between atoms: NE   and  CZ  
REMARK       I    between atoms: CZ   and  NH1 
REMARK       I    between atoms: CZ   and  NH2 
ROOT
ATOM      1  CA  ARG D 557     -26.217   2.705 -17.014  1.00 35.49     0.159 C 
ENDROOT
BRANCH   1   2
ATOM      2  CB  ARG D 557     -26.789   1.319 -17.183  1.00 35.49     0.034 C 
BRANCH   2   3
ATOM      3  CG  ARG D 557     -28.221   1.157 -16.905  1.00 35.49     0.027 C 
BRANCH   3   4
ATOM      4  CD  ARG D 557     -28.599  -0.260 -16.700  1.00 35.49     0.116 C 
BRANCH   4   5
ATOM      5  NE  ARG D 557     -27.586  -0.994 -15.989  1.00 35.49    -0.212 N 
ATOM      6  CZ  ARG D 557     -27.388  -2.292 -16.057  1.00 35.49     0.666 C 
ATOM      7  NH1 ARG D 557     -28.135  -3.085 -16.802  1.00 35.49    -0.235 N 
ATOM      8  NH2 ARG D 557     -26.407  -2.786 -15.358  1.00 35.49    -0.235 N 
ATOM      9  HH  ARG D 557     -28.784  -2.781 -17.271  1.00 35.49     0.174 HD
ATOM     10  HH  ARG D 557     -27.956  -3.923 -16.809  1.00 35.49     0.174 HD
ATOM     11  HH  ARG D 557     -25.937  -2.249 -14.892  1.00 35.49     0.174 HD
ATOM     12  HH  ARG D 557     -26.246  -3.618 -15.379  1.00 35.49     0.174 HD
ATOM     13  HE  ARG D 557     -27.106  -0.572 -15.429  1.00 35.49     0.178 HD
ENDBRANCH   4   5
ENDBRANCH   3   4
ENDBRANCH   2   3
ENDBRANCH   1   2
END_RES ARG D 557
BEGIN_RES GLU D 570
REMARK  3 active torsions:
REMARK  status: ('A' for Active; 'I' for Inactive)
REMARK    5  A    between atoms: CA   and  CB  
REMARK    6  A    between atoms: CB   and  CG  
REMARK    7  A    between atoms: CG   and  CD  
ROOT
ATOM     14  CA  GLU D 570     -18.033  -6.348 -13.375  1.00 32.92     0.160 C 
ENDROOT
BRANCH  14  15
ATOM     15  CB  GLU D 570     -19.500  -6.345 -13.794  1.00 32.92     0.043 C 
BRANCH  15  16
ATOM     16  CG  GLU D 570     -20.438  -5.512 -12.998  1.00 32.92     0.100 C 
BRANCH  16  17
ATOM     17  CD  GLU D 570     -21.709  -5.179 -13.743  1.00 32.92     0.185 C 
ATOM     18  OE1 GLU D 570     -21.649  -4.938 -14.964  1.00 32.92    -0.647 OA
ATOM     19  OE2 GLU D 570     -22.774  -5.141 -13.096  1.00 32.92    -0.647 OA
ENDBRANCH  16  17
ENDBRANCH  15  16
ENDBRANCH  14  15
END_RES GLU D 570
ENDMDL
MODEL 2
REMARK VINA RESULT:      -6.2      8.214      9.444
REMARK  3 active torsions:
REMARK  status: ('A' for Active; 'I' for Inactive)
REMARK    1  A    between atoms: C_2  and  C_3 
REMARK    2  A    between atoms: C_3  and  C_4 
REMARK    3  A    between atoms: C_3  and  O_10 
ROOT
HETATM    1  C   UNL     1     -22.030  -4.238  -9.003  1.00  0.00    -0.030 A 
HETATM    2  C   UNL     1     -20.756  -4.085  -9.574  1.00  0.00     0.010 A 
HETATM    3  C   UNL     1     -20.583  -4.146 -10.959  1.00  0.00     0.001 A 
HETATM    4  C   UNL     1     -21.677  -4.351 -11.792  1.00  0.00     0.000 A 
HETATM    5  C   UNL     1     -22.951  -4.497 -11.243  1.00  0.00     0.001 A 
HETATM    6  C   UNL     1     -23.124  -4.445  -9.857  1.00  0.00     0.010 A 
ENDROOT
BRANCH   1   7
HETATM    7  C   UNL     1     -22.247  -4.183  -7.503  1.00  0.00     0.150 C 
BRANCH   7   8
HETATM    8  C   UNL     1     -21.481  -5.255  -6.718  1.00  0.00     0.032 C 
HETATM    9  C   UNL     1     -20.340  -4.698  -5.882  1.00  0.00     0.008 C 
ENDBRANCH   7   8
BRANCH   7  10
HETATM   10  O   UNL     1     -23.636  -4.335  -7.195  1.00  0.00    -0.391 OA
HETATM   11  H   UNL     1     -23.728  -5.071  -6.569  1.00  0.00     0.210 HD
ENDBRANCH   7  10
ENDBRANCH   1   7
TORSDOF 3
BEGIN_RES ARG D 557
REMARK  4 active torsions:
REMARK  status: ('A' for Active; 'I' for Inactive)
REMARK    1  A    between atoms: CA   and  CB  
REMARK    2  A    between atoms: CB   and  CG  
REMARK    3  A    between atoms: CG   and  CD  
REMARK    4  A    between atoms: CD   and  NE  
REMARK       I    between atoms: NE   and  CZ  
REMARK       I    between atoms: CZ   and  NH1 
REMARK       I    between atoms: CZ   and  NH2 
ROOT
ATOM      1  CA  ARG D 557     -26.217   2.705 -17.014  1.00 35.49     0.159 C 
ENDROOT
BRANCH   1   2
ATOM      2  CB  ARG D 557     -26.789   1.319 -17.183  1.00 35.49     0.034 C 
BRANCH   2   3
ATOM      3  CG  ARG D 557     -25.838   0.202 -17.138  1.00 35.49     0.027 C 
BRANCH   3   4
ATOM      4  CD  ARG D 557     -24.748   0.427 -16.161  1.00 35.49     0.116 C 
BRANCH   4   5
ATOM      5  NE  ARG D 557     -24.859  -0.437 -15.015  1.00 35.49    -0.212 N 
ATOM      6  CZ  ARG D 557     -24.026  -1.403 -14.698  1.00 35.49     0.666 C 
ATOM      7  NH1 ARG D 557     -22.970  -1.698 -15.433  1.00 35.49    -0.235 N 
ATOM      8  NH2 ARG D 557     -24.270  -2.073 -13.610  1.00 35.49    -0.235 N 
ATOM      9  HH  ARG D 557     -22.789  -1.268 -16.152  1.00 35.49     0.174 HD
ATOM     10  HH  ARG D 557     -22.460  -2.336 -15.176  1.00 35.49     0.174 HD
ATOM     11  HH  ARG D 557     -24.956  -1.856 -13.151  1.00 35.49     0.174 HD
ATOM     12  HH  ARG D 557     -23.753  -2.701 -13.371  1.00 35.49     0.174 HD
ATOM     13  HE  ARG D 557     -25.551  -0.365 -14.526  1.00 35.49     0.178 HD
ENDBRANCH   4   5
ENDBRANCH   3   4
ENDBRANCH   2   3
ENDBRANCH   1   2
END_RES ARG D 557
BEGIN_RES GLU D 570
REMARK  3 active torsions:
REMARK  status: ('A' for Active; 'I' for Inactive)
REMARK    5  A    between atoms: CA   and  CB  
REMARK    6  A    between atoms: CB   and  CG  
REMARK    7  A    between atoms: CG   and  CD  
ROOT
ATOM     14  CA  GLU D 570     -18.033  -6.348 -13.375  1.00 32.92     0.160 C 
ENDROOT
BRANCH  14  15
ATOM     15  CB  GLU D 570     -19.500  -6.345 -13.794  1.00 32.92     0.043 C 
BRANCH  15  16
ATOM     16  CG  GLU D 570     -19.821  -5.855 -15.159  1.00 32.92     0.100 C 
BRANCH  16  17
ATOM     17  CD  GLU D 570     -21.300  -5.632 -15.373  1.00 32.92     0.185 C 
ATOM     18  OE1 GLU D 570     -21.701  -4.495 -15.687  1.00 32.92    -0.647 OA
ATOM     19  OE2 GLU D 570     -22.067  -6.601 -15.208  1.00 32.92    -0.647 OA
ENDBRANCH  16  17
ENDBRANCH  15  16
ENDBRANCH  14  15
END_RES GLU D 570
ENDMDL
MODEL 3
REMARK VINA RESULT:      -6.1      6.469      8.554
REMARK  3 active torsions:
REMARK  status: ('A' for Active; 'I' for Inactive)
REMARK    1  A    between atoms: C_2  and  C_3 
REMARK    2  A    between atoms: C_3  and  C_4 
REMARK    3  A    between atoms: C_3  and  O_10 
ROOT
HETATM    1  C   UNL     1     -23.056  -3.934  -9.733  1.00  0.00    -0.030 A 
HETATM    2  C   UNL     1     -23.332  -4.105  -8.366  1.00  0.00     0.010 A 
HETATM    3  C   UNL     1     -22.295  -4.292  -7.449  1.00  0.00     0.001 A 
HETATM    4  C   UNL     1     -20.973  -4.302  -7.879  1.00  0.00     0.000 A 
HETATM    5  C   UNL     1     -20.681  -4.126  -9.232  1.00  0.00     0.001 A 
HETATM    6  C   UNL     1     -21.718  -3.948 -10.152  1.00  0.00     0.010 A 
ENDROOT
BRANCH   1   7
HETATM    7  C   UNL     1     -24.161  -3.735 -10.753  1.00  0.00     0.150 C 
BRANCH   7   8
HETATM    8  C   UNL     1     -23.780  -2.817 -11.921  1.00  0.00     0.032 C 
HETATM    9  C   UNL     1     -24.735  -2.903 -13.100  1.00  0.00     0.008 C 
ENDBRANCH   7   8
BRANCH   7  10
HETATM   10  O   UNL     1     -25.320  -3.177 -10.128  1.00  0.00    -0.391 OA
HETATM   11  H   UNL     1     -26.076  -3.300 -10.725  1.00  0.00     0.210 HD
ENDBRANCH   7  10
ENDBRANCH   1   7
TORSDOF 3
BEGIN_RES ARG D 557
REMARK  4 active torsions:
REMARK  status: ('A' for Active; 'I' for Inactive)
REMARK    1  A    between atoms: CA   and  CB  
REMARK    2  A    between atoms: CB   and  CG  
REMARK    3  A    between atoms: CG   and  CD  
REMARK    4  A    between atoms: CD   and  NE  
REMARK       I    between atoms: NE   and  CZ  
REMARK       I    between atoms: CZ   and  NH1 
REMARK       I    between atoms: CZ   and  NH2 
ROOT
ATOM      1  CA  ARG D 557     -26.217   2.705 -17.014  1.00 35.49     0.159 C 
ENDROOT
BRANCH   1   2
ATOM      2  CB  ARG D 557     -26.789   1.319 -17.183  1.00 35.49     0.034 C 
BRANCH   2   3
ATOM      3  CG  ARG D 557     -28.232   1.226 -17.436  1.00 35.49     0.027 C 
BRANCH   3   4
ATOM      4  CD  ARG D 557     -28.911   0.302 -16.499  1.00 35.49     0.116 C 
BRANCH   4   5
ATOM      5  NE  ARG D 557     -29.289  -0.933 -17.134  1.00 35.49    -0.212 N 
ATOM      6  CZ  ARG D 557     -28.651  -2.077 -17.029  1.00 35.49     0.666 C 
ATOM      7  NH1 ARG D 557     -27.548  -2.211 -16.316  1.00 35.49    -0.235 N 
ATOM      8  NH2 ARG D 557     -29.149  -3.102 -17.657  1.00 35.49    -0.235 N 
ATOM      9  HH  ARG D 557     -27.204  -1.551 -15.892  1.00 35.49     0.174 HD
ATOM     10  HH  ARG D 557     -27.176  -2.982 -16.282  1.00 35.49     0.174 HD
ATOM     11  HH  ARG D 557     -29.867  -2.987 -18.104  1.00 35.49     0.174 HD
ATOM     12  HH  ARG D 557     -28.768  -3.858 -17.611  1.00 35.49     0.174 HD
ATOM     13  HE  ARG D 557     -29.948  -0.920 -17.671  1.00 35.49     0.178 HD
ENDBRANCH   4   5
ENDBRANCH   3   4
ENDBRANCH   2   3
ENDBRANCH   1   2
END_RES ARG D 557
BEGIN_RES GLU D 570
REMARK  3 active torsions:
REMARK  status: ('A' for Active; 'I' for Inactive)
REMARK    5  A    between atoms: CA   and  CB  
REMARK    6  A    between atoms: CB   and  CG  
REMARK    7  A    between atoms: CG   and  CD  
ROOT
ATOM     14  CA  GLU D 570     -18.033  -6.348 -13.375  1.00 32.92     0.160 C 
ENDROOT
BRANCH  14  15
ATOM     15  CB  GLU D 570     -19.500  -6.345 -13.794  1.00 32.92     0.043 C 
BRANCH  15  16
ATOM     16  CG  GLU D 570     -20.416  -5.425 -13.072  1.00 32.92     0.100 C 
BRANCH  16  17
ATOM     17  CD  GLU D 570     -21.733  -5.225 -13.785  1.00 32.92     0.185 C 
ATOM     18  OE1 GLU D 570     -22.752  -5.793 -13.346  1.00 32.92    -0.647 OA
ATOM     19  OE2 GLU D 570     -21.743  -4.507 -14.804  1.00 32.92    -0.647 OA
ENDBRANCH  16  17
ENDBRANCH  15  16
ENDBRANCH  14  15
END_RES GLU D 570
ENDMDL
MODEL 4
REMARK VINA RESULT:      -6.0      6.525      8.861
REMARK  3 active torsions:
REMARK  status: ('A' for Active; 'I' for Inactive)
REMARK    1  A    between atoms: C_2  and  C_3 
REMARK    2  A    between atoms: C_3  and  C_4 
REMARK    3  A    between atoms: C_3  and  O_10 
ROOT
HETATM    1  C   UNL     1     -22.731  -3.902 -10.909  1.00  0.00    -0.030 A 
HETATM    2  C   UNL     1     -21.499  -4.108 -11.551  1.00  0.00     0.010 A 
HETATM    3  C   UNL     1     -20.337  -4.331 -10.809  1.00  0.00     0.001 A 
HETATM    4  C   UNL     1     -20.389  -4.360  -9.420  1.00  0.00     0.000 A 
HETATM    5  C   UNL     1     -21.605  -4.165  -8.766  1.00  0.00     0.001 A 
HETATM    6  C   UNL     1     -22.767  -3.934  -9.507  1.00  0.00     0.010 A 
ENDROOT
BRANCH   1   7
HETATM    7  C   UNL     1     -24.008  -3.652 -11.688  1.00  0.00     0.150 C 
BRANCH   7   8
HETATM    8  C   UNL     1     -23.864  -2.621 -12.816  1.00  0.00     0.032 C 
HETATM    9  C   UNL     1     -24.037  -3.211 -14.206  1.00  0.00     0.008 C 
ENDBRANCH   7   8
BRANCH   7  10
HETATM   10  O   UNL     1     -25.042  -3.191 -10.815  1.00  0.00    -0.391 OA
HETATM   11  H   UNL     1     -25.866  -3.645 -11.054  1.00  0.00     0.210 HD
ENDBRANCH   7  10
ENDBRANCH   1   7
TORSDOF 3
BEGIN_RES ARG D 557
REMARK  4 active torsions:
REMARK  status: ('A' for Active; 'I' for Inactive)
REMARK    1  A    between atoms: CA   and  CB  
REMARK    2  A    between atoms: CB   and  CG  
REMARK    3  A    between atoms: CG   and  CD  
REMARK    4  A    between atoms: CD   and  NE  
REMARK       I    between atoms: NE   and  CZ  
REMARK       I    between atoms: CZ   and  NH1 
REMARK       I    between atoms: CZ   and  NH2 
ROOT
ATOM      1  CA  ARG D 557     -26.217   2.705 -17.014  1.00 35.49     0.159 C 
ENDROOT
BRANCH   1   2
ATOM      2  CB  ARG D 557     -26.789   1.319 -17.183  1.00 35.49     0.034 C 
BRANCH   2   3
ATOM      3  CG  ARG D 557     -28.233   1.226 -17.431  1.00 35.49     0.027 C 
BRANCH   3   4
ATOM      4  CD  ARG D 557     -28.908   0.302 -16.492  1.00 35.49     0.116 C 
BRANCH   4   5
ATOM      5  NE  ARG D 557     -29.309  -0.924 -17.131  1.00 35.49    -0.212 N 
ATOM      6  CZ  ARG D 557     -28.688  -2.078 -17.038  1.00 35.49     0.666 C 
ATOM      7  NH1 ARG D 557     -27.582  -2.233 -16.333  1.00 35.49    -0.235 N 
ATOM      8  NH2 ARG D 557     -29.206  -3.091 -17.668  1.00 35.49    -0.235 N 
ATOM      9  HH  ARG D 557     -27.224  -1.580 -15.909  1.00 35.49     0.174 HD
ATOM     10  HH  ARG D 557     -27.221  -3.010 -16.307  1.00 35.49     0.174 HD
ATOM     11  HH  ARG D 557     -29.924  -2.964 -18.109  1.00 35.49     0.174 HD
ATOM     12  HH  ARG D 557     -28.835  -3.853 -17.629  1.00 35.49     0.174 HD
ATOM     13  HE  ARG D 557     -29.972  -0.898 -17.663  1.00 35.49     0.178 HD
ENDBRANCH   4   5
ENDBRANCH   3   4
ENDBRANCH   2   3
ENDBRANCH   1   2
END_RES ARG D 557
BEGIN_RES GLU D 570
REMARK  3 active torsions:
REMARK  status: ('A' for Active; 'I' for Inactive)
REMARK    5  A    between atoms: CA   and  CB  
REMARK    6  A    between atoms: CB   and  CG  
REMARK    7  A    between atoms: CG   and  CD  
ROOT
ATOM     14  CA  GLU D 570     -18.033  -6.348 -13.375  1.00 32.92     0.160 C 
ENDROOT
BRANCH  14  15
ATOM     15  CB  GLU D 570     -19.500  -6.345 -13.794  1.00 32.92     0.043 C 
BRANCH  15  16
ATOM     16  CG  GLU D 570     -19.811  -5.964 -15.196  1.00 32.92     0.100 C 
BRANCH  16  17
ATOM     17  CD  GLU D 570     -21.275  -5.664 -15.415  1.00 32.92     0.185 C 
ATOM     18  OE1 GLU D 570     -22.118  -6.177 -14.654  1.00 32.92    -0.647 OA
ATOM     19  OE2 GLU D 570     -21.584  -4.920 -16.367  1.00 32.92    -0.647 OA
ENDBRANCH  16  17
ENDBRANCH  15  16
ENDBRANCH  14  15
END_RES GLU D 570
ENDMDL
MODEL 5
REMARK VINA RESULT:      -5.9      6.084      6.428
REMARK  3 active torsions:
REMARK  status: ('A' for Active; 'I' for Inactive)
REMARK    1  A    between atoms: C_2  and  C_3 
REMARK    2  A    between atoms: C_3  and  C_4 
REMARK    3  A    between atoms: C_3  and  O_10 
ROOT
HETATM    1  C   UNL     1     -28.315  -5.216 -16.881  1.00  0.00    -0.030 A 
HETATM    2  C   UNL     1     -29.044  -4.191 -17.507  1.00  0.00     0.010 A 
HETATM    3  C   UNL     1     -28.765  -2.849 -17.234  1.00  0.00     0.001 A 
HETATM    4  C   UNL     1     -27.753  -2.513 -16.342  1.00  0.00     0.000 A 
HETATM    5  C   UNL     1     -27.014  -3.518 -15.718  1.00  0.00     0.001 A 
HETATM    6  C   UNL     1     -27.298  -4.860 -15.984  1.00  0.00     0.010 A 
ENDROOT
BRANCH   1   7
HETATM    7  C   UNL     1     -28.599  -6.681 -17.154  1.00  0.00     0.150 C 
BRANCH   7   8
HETATM    8  C   UNL     1     -30.090  -7.016 -17.290  1.00  0.00     0.032 C 
HETATM    9  C   UNL     1     -30.440  -7.715 -18.594  1.00  0.00     0.008 C 
ENDBRANCH   7   8
BRANCH   7  10
HETATM   10  O   UNL     1     -28.070  -7.494 -16.103  1.00  0.00    -0.391 OA
HETATM   11  H   UNL     1     -27.134  -7.663 -16.293  1.00  0.00     0.210 HD
ENDBRANCH   7  10
ENDBRANCH   1   7
TORSDOF 3
BEGIN_RES ARG D 557
REMARK  4 active torsions:
REMARK  status: ('A' for Active; 'I' for Inactive)
REMARK    1  A    between atoms: CA   and  CB  
REMARK    2  A    between atoms: CB   and  CG  
REMARK    3  A    between atoms: CG   and  CD  
REMARK    4  A    between atoms: CD   and  NE  
REMARK       I    between atoms: NE   and  CZ  
REMARK       I    between atoms: CZ   and  NH1 
REMARK       I    between atoms: CZ   and  NH2 
ROOT
ATOM      1  CA  ARG D 557     -26.217   2.705 -17.014  1.00 35.49     0.159 C 
ENDROOT
BRANCH   1   2
ATOM      2  CB  ARG D 557     -26.789   1.319 -17.183  1.00 35.49     0.034 C 
BRANCH   2   3
ATOM      3  CG  ARG D 557     -25.834   0.204 -17.174  1.00 35.49     0.027 C 
BRANCH   3   4
ATOM      4  CD  ARG D 557     -24.745   0.402 -16.191  1.00 35.49     0.116 C 
BRANCH   4   5
ATOM      5  NE  ARG D 557     -24.899  -0.441 -15.034  1.00 35.49    -0.212 N 
ATOM      6  CZ  ARG D 557     -24.087  -1.409 -14.676  1.00 35.49     0.666 C 
ATOM      7  NH1 ARG D 557     -23.013  -1.729 -15.374  1.00 35.49    -0.235 N 
ATOM      8  NH2 ARG D 557     -24.371  -2.058 -13.584  1.00 35.49    -0.235 N 
ATOM      9  HH  ARG D 557     -22.806  -1.315 -16.095  1.00 35.49     0.174 HD
ATOM     10  HH  ARG D 557     -22.519  -2.369 -15.090  1.00 35.49     0.174 HD
ATOM     11  HH  ARG D 557     -25.066  -1.824 -13.149  1.00 35.49     0.174 HD
ATOM     12  HH  ARG D 557     -23.868  -2.687 -13.318  1.00 35.49     0.174 HD
ATOM     13  HE  ARG D 557     -25.604  -0.352 -14.566  1.00 35.49     0.178 HD
ENDBRANCH   4   5
ENDBRANCH   3   4
ENDBRANCH   2   3
ENDBRANCH   1   2
END_RES ARG D 557
BEGIN_RES GLU D 570
REMARK  3 active torsions:
REMARK  status: ('A' for Active; 'I' for Inactive)
REMARK    5  A    between atoms: CA   and  CB  
REMARK    6  A    between atoms: CB   and  CG  
REMARK    7  A    between atoms: CG   and  CD  
ROOT
ATOM     14  CA  GLU D 570     -18.033  -6.348 -13.375  1.00 32.92     0.160 C 
ENDROOT
BRANCH  14  15
ATOM     15  CB  GLU D 570     -19.500  -6.345 -13.794  1.00 32.92     0.043 C 
BRANCH  15  16
ATOM     16  CG  GLU D 570     -20.445  -5.545 -12.973  1.00 32.92     0.100 C 
BRANCH  16  17
ATOM     17  CD  GLU D 570     -21.742  -5.248 -13.688  1.00 32.92     0.185 C 
ATOM     18  OE1 GLU D 570     -22.282  -4.136 -13.526  1.00 32.92    -0.647 OA
ATOM     19  OE2 GLU D 570     -22.233  -6.143 -14.405  1.00 32.92    -0.647 OA
ENDBRANCH  16  17
ENDBRANCH  15  16
ENDBRANCH  14  15
END_RES GLU D 570
ENDMDL
MODEL 6
REMARK VINA RESULT:      -5.9      6.726      9.181
REMARK  3 active torsions:
REMARK  status: ('A' for Active; 'I' for Inactive)
REMARK    1  A    between atoms: C_2  and  C_3 
REMARK    2  A    between atoms: C_3  and  C_4 
REMARK    3  A    between atoms: C_3  and  O_10 
ROOT
HETATM    1  C   UNL     1     -22.039  -4.196  -9.018  1.00  0.00    -0.030 A 
HETATM    2  C   UNL     1     -23.106  -4.284  -9.926  1.00  0.00     0.010 A 
HETATM    3  C   UNL     1     -22.871  -4.299 -11.303  1.00  0.00     0.001 A 
HETATM    4  C   UNL     1     -21.571  -4.235 -11.791  1.00  0.00     0.000 A 
HETATM    5  C   UNL     1     -20.498  -4.155 -10.903  1.00  0.00     0.001 A 
HETATM    6  C   UNL     1     -20.733  -4.132  -9.526  1.00  0.00     0.010 A 
ENDROOT
BRANCH   1   7
HETATM    7  C   UNL     1     -22.264  -4.172  -7.518  1.00  0.00     0.150 C 
BRANCH   7   8
HETATM    8  C   UNL     1     -21.516  -5.272  -6.753  1.00  0.00     0.032 C 
HETATM    9  C   UNL     1     -20.437  -4.741  -5.824  1.00  0.00     0.008 C 
ENDBRANCH   7   8
BRANCH   7  10
HETATM   10  O   UNL     1     -23.656  -4.315  -7.222  1.00  0.00    -0.391 OA
HETATM   11  H   UNL     1     -24.086  -3.456  -7.365  1.00  0.00     0.210 HD
ENDBRANCH   7  10
ENDBRANCH   1   7
TORSDOF 3
BEGIN_RES ARG D 557
REMARK  4 active torsions:
REMARK  status: ('A' for Active; 'I' for Inactive)
REMARK    1  A    between atoms: CA   and  CB  
REMARK    2  A    between atoms: CB   and  CG  
REMARK    3  A    between atoms: CG   and  CD  
REMARK    4  A    between atoms: CD   and  NE  
REMARK       I    between atoms: NE   and  CZ  
REMARK       I    between atoms: CZ   and  NH1 
REMARK       I    between atoms: CZ   and  NH2 
ROOT
ATOM      1  CA  ARG D 557     -26.217   2.705 -17.014  1.00 35.49     0.159 C 
ENDROOT
BRANCH   1   2
ATOM      2  CB  ARG D 557     -26.789   1.319 -17.183  1.00 35.49     0.034 C 
BRANCH   2   3
ATOM      3  CG  ARG D 557     -28.221   1.157 -16.905  1.00 35.49     0.027 C 
BRANCH   3   4
ATOM      4  CD  ARG D 557     -28.612  -0.265 -16.770  1.00 35.49     0.116 C 
BRANCH   4   5
ATOM      5  NE  ARG D 557     -27.619  -1.037 -16.071  1.00 35.49    -0.212 N 
ATOM      6  CZ  ARG D 557     -27.475  -2.342 -16.135  1.00 35.49     0.666 C 
ATOM      7  NH1 ARG D 557     -28.265  -3.107 -16.864  1.00 35.49    -0.235 N 
ATOM      8  NH2 ARG D 557     -26.505  -2.873 -15.449  1.00 35.49    -0.235 N 
ATOM      9  HH  ARG D 557     -28.909  -2.779 -17.325  1.00 35.49     0.174 HD
ATOM     10  HH  ARG D 557     -28.122  -3.952 -16.870  1.00 35.49     0.174 HD
ATOM     11  HH  ARG D 557     -26.006  -2.353 -14.993  1.00 35.49     0.174 HD
ATOM     12  HH  ARG D 557     -26.378  -3.711 -15.468  1.00 35.49     0.174 HD
ATOM     13  HE  ARG D 557     -27.113  -0.632 -15.520  1.00 35.49     0.178 HD
ENDBRANCH   4   5
ENDBRANCH   3   4
ENDBRANCH   2   3
ENDBRANCH   1   2
END_RES ARG D 557
BEGIN_RES GLU D 570
REMARK  3 active torsions:
REMARK  status: ('A' for Active; 'I' for Inactive)
REMARK    5  A    between atoms: CA   and  CB  
REMARK    6  A    between atoms: CB   and  CG  
REMARK    7  A    between atoms: CG   and  CD  
ROOT
ATOM     14  CA  GLU D 570     -18.033  -6.348 -13.375  1.00 32.92     0.160 C 
ENDROOT
BRANCH  14  15
ATOM     15  CB  GLU D 570     -19.500  -6.345 -13.794  1.00 32.92     0.043 C 
BRANCH  15  16
ATOM     16  CG  GLU D 570     -19.812  -5.949 -15.192  1.00 32.92     0.100 C 
BRANCH  16  17
ATOM     17  CD  GLU D 570     -21.276  -5.645 -15.405  1.00 32.92     0.185 C 
ATOM     18  OE1 GLU D 570     -22.125  -6.230 -14.705  1.00 32.92    -0.647 OA
ATOM     19  OE2 GLU D 570     -21.579  -4.825 -16.294  1.00 32.92    -0.647 OA
ENDBRANCH  16  17
ENDBRANCH  15  16
ENDBRANCH  14  15
END_RES GLU D 570
ENDMDL
MODEL 7
REMARK VINA RESULT:      -5.8      7.365      9.609
REMARK  3 active torsions:
REMARK  status: ('A' for Active; 'I' for Inactive)
REMARK    1  A    between atoms: C_2  and  C_3 
REMARK    2  A    between atoms: C_3  and  C_4 
REMARK    3  A    between atoms: C_3  and  O_10 
ROOT
HETATM    1  C   UNL     1     -21.743  -4.563  -8.022  1.00  0.00    -0.030 A 
HETATM    2  C   UNL     1     -20.527  -4.240  -8.647  1.00  0.00     0.010 A 
HETATM    3  C   UNL     1     -19.325  -4.289  -7.937  1.00  0.00     0.001 A 
HETATM    4  C   UNL     1     -19.318  -4.669  -6.599  1.00  0.00     0.000 A 
HETATM    5  C   UNL     1     -20.515  -5.001  -5.965  1.00  0.00     0.001 A 
HETATM    6  C   UNL     1     -21.719  -4.944  -6.672  1.00  0.00     0.010 A 
ENDROOT
BRANCH   1   7
HETATM    7  C   UNL     1     -23.063  -4.513  -8.766  1.00  0.00     0.150 C 
BRANCH   7   8
HETATM    8  C   UNL     1     -23.052  -3.607 -10.004  1.00  0.00     0.032 C 
HETATM    9  C   UNL     1     -24.436  -3.326 -10.565  1.00  0.00     0.008 C 
ENDBRANCH   7   8
BRANCH   7  10
HETATM   10  O   UNL     1     -24.104  -4.046  -7.902  1.00  0.00    -0.391 OA
HETATM   11  H   UNL     1     -24.862  -4.645  -7.991  1.00  0.00     0.210 HD
ENDBRANCH   7  10
ENDBRANCH   1   7
TORSDOF 3
BEGIN_RES ARG D 557
REMARK  4 active torsions:
REMARK  status: ('A' for Active; 'I' for Inactive)
REMARK    1  A    between atoms: CA   and  CB  
REMARK    2  A    between atoms: CB   and  CG  
REMARK    3  A    between atoms: CG   and  CD  
REMARK    4  A    between atoms: CD   and  NE  
REMARK       I    between atoms: NE   and  CZ  
REMARK       I    between atoms: CZ   and  NH1 
REMARK       I    between atoms: CZ   and  NH2 
ROOT
ATOM      1  CA  ARG D 557     -26.217   2.705 -17.014  1.00 35.49     0.159 C 
ENDROOT
BRANCH   1   2
ATOM      2  CB  ARG D 557     -26.789   1.319 -17.183  1.00 35.49     0.034 C 
BRANCH   2   3
ATOM      3  CG  ARG D 557     -25.860   0.195 -17.012  1.00 35.49     0.027 C 
BRANCH   3   4
ATOM      4  CD  ARG D 557     -26.172  -0.618 -15.815  1.00 35.49     0.116 C 
BRANCH   4   5
ATOM      5  NE  ARG D 557     -25.033  -0.763 -14.946  1.00 35.49    -0.212 N 
ATOM      6  CZ  ARG D 557     -24.628  -1.884 -14.393  1.00 35.49     0.666 C 
ATOM      7  NH1 ARG D 557     -25.255  -3.032 -14.573  1.00 35.49    -0.235 N 
ATOM      8  NH2 ARG D 557     -23.561  -1.835 -13.649  1.00 35.49    -0.235 N 
ATOM      9  HH  ARG D 557     -25.958  -3.088 -15.060  1.00 35.49     0.174 HD
ATOM     10  HH  ARG D 557     -24.943  -3.731 -14.189  1.00 35.49     0.174 HD
ATOM     11  HH  ARG D 557     -23.172  -1.081 -13.557  1.00 35.49     0.174 HD
ATOM     12  HH  ARG D 557     -23.266  -2.538 -13.279  1.00 35.49     0.174 HD
ATOM     13  HE  ARG D 557     -24.613  -0.060 -14.718  1.00 35.49     0.178 HD
ENDBRANCH   4   5
ENDBRANCH   3   4
ENDBRANCH   2   3
ENDBRANCH   1   2
END_RES ARG D 557
BEGIN_RES GLU D 570
REMARK  3 active torsions:
REMARK  status: ('A' for Active; 'I' for Inactive)
REMARK    5  A    between atoms: CA   and  CB  
REMARK    6  A    between atoms: CB   and  CG  
REMARK    7  A    between atoms: CG   and  CD  
ROOT
ATOM     14  CA  GLU D 570     -18.033  -6.348 -13.375  1.00 32.92     0.160 C 
ENDROOT
BRANCH  14  15
ATOM     15  CB  GLU D 570     -19.500  -6.345 -13.794  1.00 32.92     0.043 C 
BRANCH  15  16
ATOM     16  CG  GLU D 570     -20.426  -5.464 -13.037  1.00 32.92     0.100 C 
BRANCH  16  17
ATOM     17  CD  GLU D 570     -21.630  -5.041 -13.846  1.00 32.92     0.185 C 
ATOM     18  OE1 GLU D 570     -21.526  -4.951 -15.085  1.00 32.92    -0.647 OA
ATOM     19  OE2 GLU D 570     -22.684  -4.780 -13.233  1.00 32.92    -0.647 OA
ENDBRANCH  16  17
ENDBRANCH  15  16
ENDBRANCH  14  15
END_RES GLU D 570
ENDMDL
MODEL 8
REMARK VINA RESULT:      -5.8      6.704      8.577
REMARK  3 active torsions:
REMARK  status: ('A' for Active; 'I' for Inactive)
REMARK    1  A    between atoms: C_2  and  C_3 
REMARK    2  A    between atoms: C_3  and  C_4 
REMARK    3  A    between atoms: C_3  and  O_10 
ROOT
HETATM    1  C   UNL     1     -22.878  -3.648 -10.126  1.00  0.00    -0.030 A 
HETATM    2  C   UNL     1     -21.838  -3.947 -11.022  1.00  0.00     0.010 A 
HETATM    3  C   UNL     1     -22.044  -3.883 -12.402  1.00  0.00     0.001 A 
HETATM    4  C   UNL     1     -23.286  -3.512 -12.906  1.00  0.00     0.000 A 
HETATM    5  C   UNL     1     -24.328  -3.204 -12.032  1.00  0.00     0.001 A 
HETATM    6  C   UNL     1     -24.124  -3.276 -10.651  1.00  0.00     0.010 A 
ENDROOT
BRANCH   1   7
HETATM    7  C   UNL     1     -22.684  -3.715  -8.623  1.00  0.00     0.150 C 
BRANCH   7   8
HETATM    8  C   UNL     1     -21.607  -4.710  -8.173  1.00  0.00     0.032 C 
HETATM    9  C   UNL     1     -20.599  -4.118  -7.202  1.00  0.00     0.008 C 
ENDBRANCH   7   8
BRANCH   7  10
HETATM   10  O   UNL     1     -23.907  -4.084  -7.980  1.00  0.00    -0.391 OA
HETATM   11  H   UNL     1     -24.091  -3.434  -7.283  1.00  0.00     0.210 HD
ENDBRANCH   7  10
ENDBRANCH   1   7
TORSDOF 3
BEGIN_RES ARG D 557
REMARK  4 active torsions:
REMARK  status: ('A' for Active; 'I' for Inactive)
REMARK    1  A    between atoms: CA   and  CB  
REMARK    2  A    between atoms: CB   and  CG  
REMARK    3  A    between atoms: CG   and  CD  
REMARK    4  A    between atoms: CD   and  NE  
REMARK       I    between atoms: NE   and  CZ  
REMARK       I    between atoms: CZ   and  NH1 
REMARK       I    between atoms: CZ   and  NH2 
ROOT
ATOM      1  CA  ARG D 557     -26.217   2.705 -17.014  1.00 35.49     0.159 C 
ENDROOT
BRANCH   1   2
ATOM      2  CB  ARG D 557     -26.789   1.319 -17.183  1.00 35.49     0.034 C 
BRANCH   2   3
ATOM      3  CG  ARG D 557     -28.218   1.153 -16.889  1.00 35.49     0.027 C 
BRANCH   3   4
ATOM      4  CD  ARG D 557     -28.597  -0.268 -16.716  1.00 35.49     0.116 C 
BRANCH   4   5
ATOM      5  NE  ARG D 557     -27.588  -1.017 -16.016  1.00 35.49    -0.212 N 
ATOM      6  CZ  ARG D 557     -27.416  -2.319 -16.078  1.00 35.49     0.666 C 
ATOM      7  NH1 ARG D 557     -28.189  -3.102 -16.807  1.00 35.49    -0.235 N 
ATOM      8  NH2 ARG D 557     -26.435  -2.828 -15.392  1.00 35.49    -0.235 N 
ATOM      9  HH  ARG D 557     -28.839  -2.788 -17.269  1.00 35.49     0.174 HD
ATOM     10  HH  ARG D 557     -28.028  -3.943 -16.812  1.00 35.49     0.174 HD
ATOM     11  HH  ARG D 557     -25.947  -2.297 -14.936  1.00 35.49     0.174 HD
ATOM     12  HH  ARG D 557     -26.290  -3.663 -15.410  1.00 35.49     0.174 HD
ATOM     13  HE  ARG D 557     -27.091  -0.601 -15.465  1.00 35.49     0.178 HD
ENDBRANCH   4   5
ENDBRANCH   3   4
ENDBRANCH   2   3
ENDBRANCH   1   2
END_RES ARG D 557
BEGIN_RES GLU D 570
REMARK  3 active torsions:
REMARK  status: ('A' for Active; 'I' for Inactive)
REMARK    5  A    between atoms: CA   and  CB  
REMARK    6  A    between atoms: CB   and  CG  
REMARK    7  A    between atoms: CG   and  CD  
ROOT
ATOM     14  CA  GLU D 570     -18.033  -6.348 -13.375  1.00 32.92     0.160 C 
ENDROOT
BRANCH  14  15
ATOM     15  CB  GLU D 570     -19.500  -6.345 -13.794  1.00 32.92     0.043 C 
BRANCH  15  16
ATOM     16  CG  GLU D 570     -19.810  -5.979 -15.200  1.00 32.92     0.100 C 
BRANCH  16  17
ATOM     17  CD  GLU D 570     -21.283  -5.744 -15.437  1.00 32.92     0.185 C 
ATOM     18  OE1 GLU D 570     -21.638  -4.759 -16.113  1.00 32.92    -0.647 OA
ATOM     19  OE2 GLU D 570     -22.092  -6.545 -14.928  1.00 32.92    -0.647 OA
ENDBRANCH  16  17
ENDBRANCH  15  16
ENDBRANCH  14  15
END_RES GLU D 570
ENDMDL
MODEL 9
REMARK VINA RESULT:      -5.7      8.937     11.448
REMARK  3 active torsions:
REMARK  status: ('A' for Active; 'I' for Inactive)
REMARK    1  A    between atoms: C_2  and  C_3 
REMARK    2  A    between atoms: C_3  and  C_4 
REMARK    3  A    between atoms: C_3  and  O_10 
ROOT
HETATM    1  C   UNL     1     -22.030  -8.067  -1.031  1.00  0.00    -0.030 A 
HETATM    2  C   UNL     1     -22.357  -6.710  -1.194  1.00  0.00     0.010 A 
HETATM    3  C   UNL     1     -21.949  -6.011  -2.332  1.00  0.00     0.001 A 
HETATM    4  C   UNL     1     -21.221  -6.655  -3.326  1.00  0.00     0.000 A 
HETATM    5  C   UNL     1     -20.895  -8.004  -3.184  1.00  0.00     0.001 A 
HETATM    6  C   UNL     1     -21.295  -8.703  -2.042  1.00  0.00     0.010 A 
ENDROOT
BRANCH   1   7
HETATM    7  C   UNL     1     -22.454  -8.851   0.197  1.00  0.00     0.150 C 
BRANCH   7   8
HETATM    8  C   UNL     1     -22.591 -10.360  -0.038  1.00  0.00     0.032 C 
HETATM    9  C   UNL     1     -24.028 -10.820  -0.222  1.00  0.00     0.008 C 
ENDBRANCH   7   8
BRANCH   7  10
HETATM   10  O   UNL     1     -23.713  -8.375   0.680  1.00  0.00    -0.391 OA
HETATM   11  H   UNL     1     -24.353  -9.103   0.627  1.00  0.00     0.210 HD
ENDBRANCH   7  10
ENDBRANCH   1   7
TORSDOF 3
BEGIN_RES ARG D 557
REMARK  4 active torsions:
REMARK  status: ('A' for Active; 'I' for Inactive)
REMARK    1  A    between atoms: CA   and  CB  
REMARK    2  A    between atoms: CB   and  CG  
REMARK    3  A    between atoms: CG   and  CD  
REMARK    4  A    between atoms: CD   and  NE  
REMARK       I    between atoms: NE   and  CZ  
REMARK       I    between atoms: CZ   and  NH1 
REMARK       I    between atoms: CZ   and  NH2 
ROOT
ATOM      1  CA  ARG D 557     -26.217   2.705 -17.014  1.00 35.49     0.159 C 
ENDROOT
BRANCH   1   2
ATOM      2  CB  ARG D 557     -26.789   1.319 -17.183  1.00 35.49     0.034 C 
BRANCH   2   3
ATOM      3  CG  ARG D 557     -25.837   0.202 -17.147  1.00 35.49     0.027 C 
BRANCH   3   4
ATOM      4  CD  ARG D 557     -24.759   0.412 -16.154  1.00 35.49     0.116 C 
BRANCH   4   5
ATOM      5  NE  ARG D 557     -24.907  -0.441 -15.004  1.00 35.49    -0.212 N 
ATOM      6  CZ  ARG D 557     -24.097  -1.419 -14.664  1.00 35.49     0.666 C 
ATOM      7  NH1 ARG D 557     -23.033  -1.739 -15.377  1.00 35.49    -0.235 N 
ATOM      8  NH2 ARG D 557     -24.374  -2.076 -13.575  1.00 35.49    -0.235 N 
ATOM      9  HH  ARG D 557     -22.831  -1.319 -16.096  1.00 35.49     0.174 HD
ATOM     10  HH  ARG D 557     -22.540  -2.385 -15.105  1.00 35.49     0.174 HD
ATOM     11  HH  ARG D 557     -25.063  -1.843 -13.131  1.00 35.49     0.174 HD
ATOM     12  HH  ARG D 557     -23.873  -2.712 -13.322  1.00 35.49     0.174 HD
ATOM     13  HE  ARG D 557     -25.606  -0.352 -14.528  1.00 35.49     0.178 HD
ENDBRANCH   4   5
ENDBRANCH   3   4
ENDBRANCH   2   3
ENDBRANCH   1   2
END_RES ARG D 557
BEGIN_RES GLU D 570
REMARK  3 active torsions:
REMARK  status: ('A' for Active; 'I' for Inactive)
REMARK    5  A    between atoms: CA   and  CB  
REMARK    6  A    between atoms: CB   and  CG  
REMARK    7  A    between atoms: CG   and  CD  
ROOT
ATOM     14  CA  GLU D 570     -18.033  -6.348 -13.375  1.00 32.92     0.160 C 
ENDROOT
BRANCH  14  15
ATOM     15  CB  GLU D 570     -19.500  -6.345 -13.794  1.00 32.92     0.043 C 
BRANCH  15  16
ATOM     16  CG  GLU D 570     -20.452  -5.578 -12.949  1.00 32.92     0.100 C 
BRANCH  16  17
ATOM     17  CD  GLU D 570     -21.735  -5.236 -13.669  1.00 32.92     0.185 C 
ATOM     18  OE1 GLU D 570     -22.226  -4.100 -13.523  1.00 32.92    -0.647 OA
ATOM     19  OE2 GLU D 570     -22.264  -6.118 -14.373  1.00 32.92    -0.647 OA
ENDBRANCH  16  17
ENDBRANCH  15  16
ENDBRANCH  14  15
END_RES GLU D 570
ENDMDL
