MODEL 1
REMARK VINA RESULT:      -8.5      0.000      0.000
REMARK  2 active torsions:
REMARK  status: ('A' for Active; 'I' for Inactive)
REMARK    1  A    between atoms: C_14  and  O_28 
REMARK    2  A    between atoms: C_20  and  O_25 
ROOT
HETATM    1  C   UNL     1     -15.517  -9.923  -4.936  1.00  0.00     0.001 A 
HETATM    2  C   UNL     1     -15.816  -9.648  -3.590  1.00  0.00     0.001 A 
HETATM    3  C   UNL     1     -17.116  -9.808  -3.100  1.00  0.00     0.012 A 
HETATM    4  C   UNL     1     -18.098 -10.248  -3.977  1.00  0.00     0.003 A 
HETATM    5  C   UNL     1     -17.790 -10.510  -5.299  1.00  0.00     0.049 A 
HETATM    6  C   UNL     1     -16.514 -10.360  -5.810  1.00  0.00     0.018 A 
HETATM    7  C   UNL     1     -18.995 -10.953  -5.986  1.00  0.00     0.295 A 
HETATM    8  O   UNL     1     -19.089 -11.249  -7.158  1.00  0.00    -0.259 OA
HETATM    9  O   UNL     1     -19.999 -10.964  -5.060  1.00  0.00    -0.291 OA
HETATM   10  C   UNL     1     -19.548 -10.534  -3.749  1.00  0.00     0.159 A 
HETATM   11  C   UNL     1     -20.328  -9.292  -3.377  1.00  0.00     0.023 A 
HETATM   12  C   UNL     1     -20.353  -8.165  -4.225  1.00  0.00     0.036 A 
HETATM   13  C   UNL     1     -21.029  -7.004  -3.853  1.00  0.00     0.046 A 
HETATM   14  C   UNL     1     -21.707  -6.948  -2.637  1.00  0.00     0.103 A 
HETATM   15  C   UNL     1     -21.706  -8.063  -1.789  1.00  0.00     0.080 A 
HETATM   16  C   UNL     1     -21.013  -9.233  -2.157  1.00  0.00     0.106 A 
HETATM   17  O   UNL     1     -21.029 -10.280  -1.267  1.00  0.00    -0.306 OA
HETATM   18  C   UNL     1     -20.450 -11.482  -1.592  1.00  0.00     0.106 A 
HETATM   19  C   UNL     1     -20.567 -12.529  -0.659  1.00  0.00     0.080 A 
HETATM   20  C   UNL     1     -19.985 -13.778  -0.914  1.00  0.00     0.103 A 
HETATM   21  C   UNL     1     -19.297 -13.988  -2.106  1.00  0.00     0.046 A 
HETATM   22  C   UNL     1     -19.188 -12.953  -3.036  1.00  0.00     0.036 A 
HETATM   23  C   UNL     1     -19.749 -11.684  -2.784  1.00  0.00     0.023 A 
HETATM   24 BR   UNL     1     -18.465 -15.644  -2.504  1.00  0.00    -0.048 Br
HETATM   25 BR   UNL     1     -21.501 -12.263   0.981  1.00  0.00    -0.045 Br
HETATM   26 BR   UNL     1     -22.638  -7.988  -0.127  1.00  0.00    -0.045 Br
HETATM   27 BR   UNL     1     -20.984  -5.511  -5.019  1.00  0.00    -0.048 Br
ENDROOT
BRANCH  14  28
HETATM   28  O   UNL     1     -22.370  -5.808  -2.263  1.00  0.00    -0.358 OA
HETATM   29  H   UNL     1     -22.719  -5.379  -3.066  1.00  0.00     0.217 HD
ENDBRANCH  14  28
BRANCH  20  30
HETATM   30  O   UNL     1     -20.072 -14.800  -0.005  1.00  0.00    -0.358 OA
HETATM   31  H   UNL     1     -19.184 -14.958   0.361  1.00  0.00     0.217 HD
ENDBRANCH  20  30
TORSDOF 2
BEGIN_RES ARG D 557
REMARK  4 active torsions:
REMARK  status: ('A' for Active; 'I' for Inactive)
REMARK    1  A    between atoms: CA   and  CB  
REMARK    2  A    between atoms: CB   and  CG  
REMARK    3  A    between atoms: CG   and  CD  
REMARK    4  A    between atoms: CD   and  NE  
REMARK       I    between atoms: NE   and  CZ  
REMARK       I    between atoms: CZ   and  NH1 
REMARK       I    between atoms: CZ   and  NH2 
ROOT
ATOM      1  CA  ARG D 557     -26.217   2.705 -17.014  1.00 35.49     0.159 C 
ENDROOT
BRANCH   1   2
ATOM      2  CB  ARG D 557     -26.789   1.319 -17.183  1.00 35.49     0.034 C 
BRANCH   2   3
ATOM      3  CG  ARG D 557     -25.836   0.203 -17.150  1.00 35.49     0.027 C 
BRANCH   3   4
ATOM      4  CD  ARG D 557     -24.758   0.410 -16.157  1.00 35.49     0.116 C 
BRANCH   4   5
ATOM      5  NE  ARG D 557     -24.909  -0.443 -15.007  1.00 35.49    -0.212 N 
ATOM      6  CZ  ARG D 557     -24.095  -1.415 -14.660  1.00 35.49     0.666 C 
ATOM      7  NH1 ARG D 557     -23.023  -1.729 -15.365  1.00 35.49    -0.235 N 
ATOM      8  NH2 ARG D 557     -24.375  -2.073 -13.573  1.00 35.49    -0.235 N 
ATOM      9  HH  ARG D 557     -22.819  -1.308 -16.083  1.00 35.49     0.174 HD
ATOM     10  HH  ARG D 557     -22.528  -2.371 -15.088  1.00 35.49     0.174 HD
ATOM     11  HH  ARG D 557     -25.069  -1.843 -13.134  1.00 35.49     0.174 HD
ATOM     12  HH  ARG D 557     -23.871  -2.704 -13.315  1.00 35.49     0.174 HD
ATOM     13  HE  ARG D 557     -25.612  -0.358 -14.537  1.00 35.49     0.178 HD
ENDBRANCH   4   5
ENDBRANCH   3   4
ENDBRANCH   2   3
ENDBRANCH   1   2
END_RES ARG D 557
BEGIN_RES GLU D 570
REMARK  3 active torsions:
REMARK  status: ('A' for Active; 'I' for Inactive)
REMARK    5  A    between atoms: CA   and  CB  
REMARK    6  A    between atoms: CB   and  CG  
REMARK    7  A    between atoms: CG   and  CD  
ROOT
ATOM     14  CA  GLU D 570     -18.033  -6.348 -13.375  1.00 32.92     0.160 C 
ENDROOT
BRANCH  14  15
ATOM     15  CB  GLU D 570     -19.500  -6.345 -13.794  1.00 32.92     0.043 C 
BRANCH  15  16
ATOM     16  CG  GLU D 570     -20.441  -5.528 -12.985  1.00 32.92     0.100 C 
BRANCH  16  17
ATOM     17  CD  GLU D 570     -21.730  -5.221 -13.712  1.00 32.92     0.185 C 
ATOM     18  OE1 GLU D 570     -22.302  -4.135 -13.497  1.00 32.92    -0.647 OA
ATOM     19  OE2 GLU D 570     -22.180  -6.083 -14.492  1.00 32.92    -0.647 OA
ENDBRANCH  16  17
ENDBRANCH  15  16
ENDBRANCH  14  15
END_RES GLU D 570
ENDMDL
MODEL 2
REMARK VINA RESULT:      -7.7      2.907      5.958
REMARK  2 active torsions:
REMARK  status: ('A' for Active; 'I' for Inactive)
REMARK    1  A    between atoms: C_14  and  O_28 
REMARK    2  A    between atoms: C_20  and  O_25 
ROOT
HETATM    1  C   UNL     1     -22.020  -8.217   1.101  1.00  0.00     0.001 A 
HETATM    2  C   UNL     1     -20.925  -8.804   1.760  1.00  0.00     0.001 A 
HETATM    3  C   UNL     1     -20.446 -10.060   1.372  1.00  0.00     0.012 A 
HETATM    4  C   UNL     1     -21.079 -10.705   0.318  1.00  0.00     0.003 A 
HETATM    5  C   UNL     1     -22.156 -10.118  -0.317  1.00  0.00     0.049 A 
HETATM    6  C   UNL     1     -22.650  -8.878   0.046  1.00  0.00     0.018 A 
HETATM    7  C   UNL     1     -22.621 -11.003  -1.376  1.00  0.00     0.295 A 
HETATM    8  O   UNL     1     -23.558 -10.808  -2.120  1.00  0.00    -0.259 OA
HETATM    9  O   UNL     1     -21.803 -12.097  -1.366  1.00  0.00    -0.291 OA
HETATM   10  C   UNL     1     -20.787 -12.020  -0.332  1.00  0.00     0.159 A 
HETATM   11  C   UNL     1     -20.997 -13.186   0.610  1.00  0.00     0.023 A 
HETATM   12  C   UNL     1     -22.243 -13.405   1.233  1.00  0.00     0.036 A 
HETATM   13  C   UNL     1     -22.417 -14.449   2.140  1.00  0.00     0.046 A 
HETATM   14  C   UNL     1     -21.357 -15.305   2.433  1.00  0.00     0.103 A 
HETATM   15  C   UNL     1     -20.116 -15.112   1.812  1.00  0.00     0.080 A 
HETATM   16  C   UNL     1     -19.936 -14.050   0.904  1.00  0.00     0.106 A 
HETATM   17  O   UNL     1     -18.686 -13.900   0.351  1.00  0.00    -0.306 OA
HETATM   18  C   UNL     1     -18.456 -12.943  -0.606  1.00  0.00     0.106 A 
HETATM   19  C   UNL     1     -17.170 -12.895  -1.175  1.00  0.00     0.080 A 
HETATM   20  C   UNL     1     -16.856 -11.933  -2.145  1.00  0.00     0.103 A 
HETATM   21  C   UNL     1     -17.829 -11.025  -2.556  1.00  0.00     0.046 A 
HETATM   22  C   UNL     1     -19.107 -11.077  -1.998  1.00  0.00     0.036 A 
HETATM   23  C   UNL     1     -19.432 -12.026  -1.005  1.00  0.00     0.023 A 
HETATM   24 BR   UNL     1     -17.465  -9.683  -3.844  1.00  0.00    -0.048 Br
HETATM   25 BR   UNL     1     -15.822 -14.126  -0.625  1.00  0.00    -0.045 Br
HETATM   26 BR   UNL     1     -18.667 -16.286   2.208  1.00  0.00    -0.045 Br
HETATM   27 BR   UNL     1     -24.104 -14.659   2.976  1.00  0.00    -0.048 Br
ENDROOT
BRANCH  14  28
HETATM   28  O   UNL     1     -21.519 -16.331   3.328  1.00  0.00    -0.358 OA
HETATM   29  H   UNL     1     -21.724 -15.947   4.200  1.00  0.00     0.217 HD
ENDBRANCH  14  28
BRANCH  20  30
HETATM   30  O   UNL     1     -15.602 -11.860  -2.693  1.00  0.00    -0.358 OA
HETATM   31  H   UNL     1     -15.245 -12.764  -2.757  1.00  0.00     0.217 HD
ENDBRANCH  20  30
TORSDOF 2
BEGIN_RES ARG D 557
REMARK  4 active torsions:
REMARK  status: ('A' for Active; 'I' for Inactive)
REMARK    1  A    between atoms: CA   and  CB  
REMARK    2  A    between atoms: CB   and  CG  
REMARK    3  A    between atoms: CG   and  CD  
REMARK    4  A    between atoms: CD   and  NE  
REMARK       I    between atoms: NE   and  CZ  
REMARK       I    between atoms: CZ   and  NH1 
REMARK       I    between atoms: CZ   and  NH2 
ROOT
ATOM      1  CA  ARG D 557     -26.217   2.705 -17.014  1.00 35.49     0.159 C 
ENDROOT
BRANCH   1   2
ATOM      2  CB  ARG D 557     -26.789   1.319 -17.183  1.00 35.49     0.034 C 
BRANCH   2   3
ATOM      3  CG  ARG D 557     -25.838   0.201 -17.135  1.00 35.49     0.027 C 
BRANCH   3   4
ATOM      4  CD  ARG D 557     -24.763   0.418 -16.140  1.00 35.49     0.116 C 
BRANCH   4   5
ATOM      5  NE  ARG D 557     -24.909  -0.432 -14.989  1.00 35.49    -0.212 N 
ATOM      6  CZ  ARG D 557     -24.117  -1.430 -14.665  1.00 35.49     0.666 C 
ATOM      7  NH1 ARG D 557     -23.075  -1.775 -15.399  1.00 35.49    -0.235 N 
ATOM      8  NH2 ARG D 557     -24.388  -2.081 -13.572  1.00 35.49    -0.235 N 
ATOM      9  HH  ARG D 557     -22.877  -1.359 -16.121  1.00 35.49     0.174 HD
ATOM     10  HH  ARG D 557     -22.592  -2.433 -15.137  1.00 35.49     0.174 HD
ATOM     11  HH  ARG D 557     -25.063  -1.832 -13.114  1.00 35.49     0.174 HD
ATOM     12  HH  ARG D 557     -23.898  -2.729 -13.328  1.00 35.49     0.174 HD
ATOM     13  HE  ARG D 557     -25.596  -0.327 -14.499  1.00 35.49     0.178 HD
ENDBRANCH   4   5
ENDBRANCH   3   4
ENDBRANCH   2   3
ENDBRANCH   1   2
END_RES ARG D 557
BEGIN_RES GLU D 570
REMARK  3 active torsions:
REMARK  status: ('A' for Active; 'I' for Inactive)
REMARK    5  A    between atoms: CA   and  CB  
REMARK    6  A    between atoms: CB   and  CG  
REMARK    7  A    between atoms: CG   and  CD  
ROOT
ATOM     14  CA  GLU D 570     -18.033  -6.348 -13.375  1.00 32.92     0.160 C 
ENDROOT
BRANCH  14  15
ATOM     15  CB  GLU D 570     -19.500  -6.345 -13.794  1.00 32.92     0.043 C 
BRANCH  15  16
ATOM     16  CG  GLU D 570     -20.448  -5.558 -12.963  1.00 32.92     0.100 C 
BRANCH  16  17
ATOM     17  CD  GLU D 570     -21.722  -5.206 -13.695  1.00 32.92     0.185 C 
ATOM     18  OE1 GLU D 570     -22.288  -4.127 -13.440  1.00 32.92    -0.647 OA
ATOM     19  OE2 GLU D 570     -22.167  -6.027 -14.522  1.00 32.92    -0.647 OA
ENDBRANCH  16  17
ENDBRANCH  15  16
ENDBRANCH  14  15
END_RES GLU D 570
ENDMDL
MODEL 3
REMARK VINA RESULT:      -7.7      1.357      4.910
REMARK  2 active torsions:
REMARK  status: ('A' for Active; 'I' for Inactive)
REMARK    1  A    between atoms: C_14  and  O_28 
REMARK    2  A    between atoms: C_20  and  O_25 
ROOT
HETATM    1  C   UNL     1     -19.738 -12.733  -7.832  1.00  0.00     0.001 A 
HETATM    2  C   UNL     1     -20.791 -12.618  -6.905  1.00  0.00     0.001 A 
HETATM    3  C   UNL     1     -20.606 -11.944  -5.694  1.00  0.00     0.012 A 
HETATM    4  C   UNL     1     -19.360 -11.390  -5.436  1.00  0.00     0.003 A 
HETATM    5  C   UNL     1     -18.334 -11.515  -6.353  1.00  0.00     0.049 A 
HETATM    6  C   UNL     1     -18.489 -12.176  -7.558  1.00  0.00     0.018 A 
HETATM    7  C   UNL     1     -17.150 -10.847  -5.832  1.00  0.00     0.295 A 
HETATM    8  O   UNL     1     -16.065 -10.777  -6.370  1.00  0.00    -0.259 OA
HETATM    9  O   UNL     1     -17.493 -10.320  -4.620  1.00  0.00    -0.291 OA
HETATM   10  C   UNL     1     -18.871 -10.603  -4.262  1.00  0.00     0.159 A 
HETATM   11  C   UNL     1     -18.860 -11.417  -2.987  1.00  0.00     0.023 A 
HETATM   12  C   UNL     1     -18.126 -12.618  -2.895  1.00  0.00     0.036 A 
HETATM   13  C   UNL     1     -18.161 -13.393  -1.737  1.00  0.00     0.046 A 
HETATM   14  C   UNL     1     -18.915 -12.977  -0.640  1.00  0.00     0.103 A 
HETATM   15  C   UNL     1     -19.638 -11.780  -0.708  1.00  0.00     0.080 A 
HETATM   16  C   UNL     1     -19.613 -11.002  -1.883  1.00  0.00     0.106 A 
HETATM   17  O   UNL     1     -20.366  -9.852  -1.892  1.00  0.00    -0.306 OA
HETATM   18  C   UNL     1     -20.325  -8.999  -2.967  1.00  0.00     0.106 A 
HETATM   19  C   UNL     1     -21.069  -7.808  -2.876  1.00  0.00     0.080 A 
HETATM   20  C   UNL     1     -21.090  -6.899  -3.941  1.00  0.00     0.103 A 
HETATM   21  C   UNL     1     -20.359  -7.170  -5.094  1.00  0.00     0.046 A 
HETATM   22  C   UNL     1     -19.614  -8.347  -5.183  1.00  0.00     0.036 A 
HETATM   23  C   UNL     1     -19.600  -9.283  -4.128  1.00  0.00     0.023 A 
HETATM   24 BR   UNL     1     -20.362  -5.996  -6.582  1.00  0.00    -0.048 Br
HETATM   25 BR   UNL     1     -22.080  -7.417  -1.307  1.00  0.00    -0.045 Br
HETATM   26 BR   UNL     1     -20.665 -11.209   0.794  1.00  0.00    -0.045 Br
HETATM   27 BR   UNL     1     -17.189 -15.018  -1.697  1.00  0.00    -0.048 Br
ENDROOT
BRANCH  14  28
HETATM   28  O   UNL     1     -18.958 -13.736   0.501  1.00  0.00    -0.358 OA
HETATM   29  H   UNL     1     -19.594 -14.462   0.362  1.00  0.00     0.217 HD
ENDBRANCH  14  28
BRANCH  20  30
HETATM   30  O   UNL     1     -21.827  -5.745  -3.875  1.00  0.00    -0.358 OA
HETATM   31  H   UNL     1     -21.218  -5.004  -3.707  1.00  0.00     0.217 HD
ENDBRANCH  20  30
TORSDOF 2
BEGIN_RES ARG D 557
REMARK  4 active torsions:
REMARK  status: ('A' for Active; 'I' for Inactive)
REMARK    1  A    between atoms: CA   and  CB  
REMARK    2  A    between atoms: CB   and  CG  
REMARK    3  A    between atoms: CG   and  CD  
REMARK    4  A    between atoms: CD   and  NE  
REMARK       I    between atoms: NE   and  CZ  
REMARK       I    between atoms: CZ   and  NH1 
REMARK       I    between atoms: CZ   and  NH2 
ROOT
ATOM      1  CA  ARG D 557     -26.217   2.705 -17.014  1.00 35.49     0.159 C 
ENDROOT
BRANCH   1   2
ATOM      2  CB  ARG D 557     -26.789   1.319 -17.183  1.00 35.49     0.034 C 
BRANCH   2   3
ATOM      3  CG  ARG D 557     -25.837   0.202 -17.141  1.00 35.49     0.027 C 
BRANCH   3   4
ATOM      4  CD  ARG D 557     -24.756   0.419 -16.153  1.00 35.49     0.116 C 
BRANCH   4   5
ATOM      5  NE  ARG D 557     -24.892  -0.437 -15.004  1.00 35.49    -0.212 N 
ATOM      6  CZ  ARG D 557     -24.068  -1.403 -14.664  1.00 35.49     0.666 C 
ATOM      7  NH1 ARG D 557     -22.998  -1.706 -15.376  1.00 35.49    -0.235 N 
ATOM      8  NH2 ARG D 557     -24.335  -2.065 -13.576  1.00 35.49    -0.235 N 
ATOM      9  HH  ARG D 557     -22.802  -1.282 -16.094  1.00 35.49     0.174 HD
ATOM     10  HH  ARG D 557     -22.495  -2.344 -15.104  1.00 35.49     0.174 HD
ATOM     11  HH  ARG D 557     -25.028  -1.842 -13.132  1.00 35.49     0.174 HD
ATOM     12  HH  ARG D 557     -23.824  -2.692 -13.322  1.00 35.49     0.174 HD
ATOM     13  HE  ARG D 557     -25.593  -0.359 -14.529  1.00 35.49     0.178 HD
ENDBRANCH   4   5
ENDBRANCH   3   4
ENDBRANCH   2   3
ENDBRANCH   1   2
END_RES ARG D 557
BEGIN_RES GLU D 570
REMARK  3 active torsions:
REMARK  status: ('A' for Active; 'I' for Inactive)
REMARK    5  A    between atoms: CA   and  CB  
REMARK    6  A    between atoms: CB   and  CG  
REMARK    7  A    between atoms: CG   and  CD  
ROOT
ATOM     14  CA  GLU D 570     -18.033  -6.348 -13.375  1.00 32.92     0.160 C 
ENDROOT
BRANCH  14  15
ATOM     15  CB  GLU D 570     -19.500  -6.345 -13.794  1.00 32.92     0.043 C 
BRANCH  15  16
ATOM     16  CG  GLU D 570     -20.443  -5.534 -12.981  1.00 32.92     0.100 C 
BRANCH  16  17
ATOM     17  CD  GLU D 570     -21.719  -5.199 -13.717  1.00 32.92     0.185 C 
ATOM     18  OE1 GLU D 570     -22.297  -4.124 -13.467  1.00 32.92    -0.647 OA
ATOM     19  OE2 GLU D 570     -22.154  -6.029 -14.540  1.00 32.92    -0.647 OA
ENDBRANCH  16  17
ENDBRANCH  15  16
ENDBRANCH  14  15
END_RES GLU D 570
ENDMDL
MODEL 4
REMARK VINA RESULT:      -7.5      2.993      5.012
REMARK  2 active torsions:
REMARK  status: ('A' for Active; 'I' for Inactive)
REMARK    1  A    between atoms: C_14  and  O_28 
REMARK    2  A    between atoms: C_20  and  O_25 
ROOT
HETATM    1  C   UNL     1     -22.203  -8.377   1.047  1.00  0.00     0.001 A 
HETATM    2  C   UNL     1     -23.234  -8.810   0.194  1.00  0.00     0.001 A 
HETATM    3  C   UNL     1     -23.098  -9.986  -0.551  1.00  0.00     0.012 A 
HETATM    4  C   UNL     1     -21.922 -10.712  -0.421  1.00  0.00     0.003 A 
HETATM    5  C   UNL     1     -20.916 -10.271   0.418  1.00  0.00     0.049 A 
HETATM    6  C   UNL     1     -21.023  -9.112   1.165  1.00  0.00     0.018 A 
HETATM    7  C   UNL     1     -19.808 -11.214   0.363  1.00  0.00     0.295 A 
HETATM    8  O   UNL     1     -18.756 -11.127   0.961  1.00  0.00    -0.259 OA
HETATM    9  O   UNL     1     -20.176 -12.211  -0.495  1.00  0.00    -0.291 OA
HETATM   10  C   UNL     1     -21.498 -11.999  -1.055  1.00  0.00     0.159 A 
HETATM   11  C   UNL     1     -21.350 -11.879  -2.556  1.00  0.00     0.023 A 
HETATM   12  C   UNL     1     -20.473 -10.935  -3.130  1.00  0.00     0.036 A 
HETATM   13  C   UNL     1     -20.379 -10.792  -4.513  1.00  0.00     0.046 A 
HETATM   14  C   UNL     1     -21.145 -11.598  -5.353  1.00  0.00     0.103 A 
HETATM   15  C   UNL     1     -22.011 -12.551  -4.802  1.00  0.00     0.080 A 
HETATM   16  C   UNL     1     -22.116 -12.688  -3.403  1.00  0.00     0.106 A 
HETATM   17  O   UNL     1     -23.005 -13.624  -2.928  1.00  0.00    -0.306 OA
HETATM   18  C   UNL     1     -23.100 -13.875  -1.582  1.00  0.00     0.106 A 
HETATM   19  C   UNL     1     -23.981 -14.895  -1.176  1.00  0.00     0.080 A 
HETATM   20  C   UNL     1     -24.144 -15.195   0.183  1.00  0.00     0.103 A 
HETATM   21  C   UNL     1     -23.419 -14.487   1.138  1.00  0.00     0.046 A 
HETATM   22  C   UNL     1     -22.539 -13.481   0.736  1.00  0.00     0.036 A 
HETATM   23  C   UNL     1     -22.380 -13.152  -0.626  1.00  0.00     0.023 A 
HETATM   24 BR   UNL     1     -23.610 -14.824   2.993  1.00  0.00    -0.048 Br
HETATM   25 BR   UNL     1     -24.986 -15.875  -2.466  1.00  0.00    -0.045 Br
HETATM   26 BR   UNL     1     -23.056 -13.656  -5.951  1.00  0.00    -0.045 Br
HETATM   27 BR   UNL     1     -19.214  -9.473  -5.216  1.00  0.00    -0.048 Br
ENDROOT
BRANCH  14  28
HETATM   28  O   UNL     1     -21.062 -11.459  -6.714  1.00  0.00    -0.358 OA
HETATM   29  H   UNL     1     -21.085 -12.348  -7.115  1.00  0.00     0.217 HD
ENDBRANCH  14  28
BRANCH  20  30
HETATM   30  O   UNL     1     -25.015 -16.171   0.595  1.00  0.00    -0.358 OA
HETATM   31  H   UNL     1     -25.901 -15.775   0.670  1.00  0.00     0.217 HD
ENDBRANCH  20  30
TORSDOF 2
BEGIN_RES ARG D 557
REMARK  4 active torsions:
REMARK  status: ('A' for Active; 'I' for Inactive)
REMARK    1  A    between atoms: CA   and  CB  
REMARK    2  A    between atoms: CB   and  CG  
REMARK    3  A    between atoms: CG   and  CD  
REMARK    4  A    between atoms: CD   and  NE  
REMARK       I    between atoms: NE   and  CZ  
REMARK       I    between atoms: CZ   and  NH1 
REMARK       I    between atoms: CZ   and  NH2 
ROOT
ATOM      1  CA  ARG D 557     -26.217   2.705 -17.014  1.00 35.49     0.159 C 
ENDROOT
BRANCH   1   2
ATOM      2  CB  ARG D 557     -26.789   1.319 -17.183  1.00 35.49     0.034 C 
BRANCH   2   3
ATOM      3  CG  ARG D 557     -25.835   0.203 -17.159  1.00 35.49     0.027 C 
BRANCH   3   4
ATOM      4  CD  ARG D 557     -24.752   0.408 -16.170  1.00 35.49     0.116 C 
BRANCH   4   5
ATOM      5  NE  ARG D 557     -24.904  -0.438 -15.016  1.00 35.49    -0.212 N 
ATOM      6  CZ  ARG D 557     -24.094  -1.413 -14.667  1.00 35.49     0.666 C 
ATOM      7  NH1 ARG D 557     -23.026  -1.735 -15.373  1.00 35.49    -0.235 N 
ATOM      8  NH2 ARG D 557     -24.374  -2.064 -13.576  1.00 35.49    -0.235 N 
ATOM      9  HH  ARG D 557     -22.821  -1.319 -16.094  1.00 35.49     0.174 HD
ATOM     10  HH  ARG D 557     -22.533  -2.378 -15.095  1.00 35.49     0.174 HD
ATOM     11  HH  ARG D 557     -25.066  -1.829 -13.136  1.00 35.49     0.174 HD
ATOM     12  HH  ARG D 557     -23.873  -2.697 -13.316  1.00 35.49     0.174 HD
ATOM     13  HE  ARG D 557     -25.605  -0.348 -14.544  1.00 35.49     0.178 HD
ENDBRANCH   4   5
ENDBRANCH   3   4
ENDBRANCH   2   3
ENDBRANCH   1   2
END_RES ARG D 557
BEGIN_RES GLU D 570
REMARK  3 active torsions:
REMARK  status: ('A' for Active; 'I' for Inactive)
REMARK    5  A    between atoms: CA   and  CB  
REMARK    6  A    between atoms: CB   and  CG  
REMARK    7  A    between atoms: CG   and  CD  
ROOT
ATOM     14  CA  GLU D 570     -18.033  -6.348 -13.375  1.00 32.92     0.160 C 
ENDROOT
BRANCH  14  15
ATOM     15  CB  GLU D 570     -19.500  -6.345 -13.794  1.00 32.92     0.043 C 
BRANCH  15  16
ATOM     16  CG  GLU D 570     -20.442  -5.530 -12.984  1.00 32.92     0.100 C 
BRANCH  16  17
ATOM     17  CD  GLU D 570     -21.736  -5.234 -13.705  1.00 32.92     0.185 C 
ATOM     18  OE1 GLU D 570     -22.315  -4.152 -13.488  1.00 32.92    -0.647 OA
ATOM     19  OE2 GLU D 570     -22.183  -6.100 -14.482  1.00 32.92    -0.647 OA
ENDBRANCH  16  17
ENDBRANCH  15  16
ENDBRANCH  14  15
END_RES GLU D 570
ENDMDL
MODEL 5
REMARK VINA RESULT:      -7.3      2.199      4.460
REMARK  2 active torsions:
REMARK  status: ('A' for Active; 'I' for Inactive)
REMARK    1  A    between atoms: C_14  and  O_28 
REMARK    2  A    between atoms: C_20  and  O_25 
ROOT
HETATM    1  C   UNL     1     -24.073 -11.838  -0.803  1.00  0.00     0.001 A 
HETATM    2  C   UNL     1     -23.450 -12.381  -1.942  1.00  0.00     0.001 A 
HETATM    3  C   UNL     1     -22.156 -11.991  -2.302  1.00  0.00     0.012 A 
HETATM    4  C   UNL     1     -21.506 -11.060  -1.505  1.00  0.00     0.003 A 
HETATM    5  C   UNL     1     -22.132 -10.532  -0.391  1.00  0.00     0.049 A 
HETATM    6  C   UNL     1     -23.410 -10.899  -0.012  1.00  0.00     0.018 A 
HETATM    7  C   UNL     1     -21.231  -9.590   0.256  1.00  0.00     0.295 A 
HETATM    8  O   UNL     1     -21.464  -8.933   1.249  1.00  0.00    -0.259 OA
HETATM    9  O   UNL     1     -20.075  -9.582  -0.472  1.00  0.00    -0.291 OA
HETATM   10  C   UNL     1     -20.134 -10.475  -1.615  1.00  0.00     0.159 A 
HETATM   11  C   UNL     1     -19.963  -9.639  -2.864  1.00  0.00     0.023 A 
HETATM   12  C   UNL     1     -20.803  -8.536  -3.124  1.00  0.00     0.036 A 
HETATM   13  C   UNL     1     -20.677  -7.802  -4.302  1.00  0.00     0.046 A 
HETATM   14  C   UNL     1     -19.700  -8.140  -5.237  1.00  0.00     0.103 A 
HETATM   15  C   UNL     1     -18.847  -9.223  -4.988  1.00  0.00     0.080 A 
HETATM   16  C   UNL     1     -18.981  -9.974  -3.804  1.00  0.00     0.106 A 
HETATM   17  O   UNL     1     -18.130 -11.040  -3.635  1.00  0.00    -0.306 OA
HETATM   18  C   UNL     1     -18.143 -11.766  -2.470  1.00  0.00     0.106 A 
HETATM   19  C   UNL     1     -17.196 -12.799  -2.342  1.00  0.00     0.080 A 
HETATM   20  C   UNL     1     -17.161 -13.594  -1.189  1.00  0.00     0.103 A 
HETATM   21  C   UNL     1     -18.063 -13.352  -0.157  1.00  0.00     0.046 A 
HETATM   22  C   UNL     1     -18.998 -12.323  -0.279  1.00  0.00     0.036 A 
HETATM   23  C   UNL     1     -19.059 -11.527  -1.442  1.00  0.00     0.023 A 
HETATM   24 BR   UNL     1     -18.088 -14.404   1.420  1.00  0.00    -0.048 Br
HETATM   25 BR   UNL     1     -15.953 -13.151  -3.744  1.00  0.00    -0.045 Br
HETATM   26 BR   UNL     1     -17.507  -9.683  -6.264  1.00  0.00    -0.045 Br
HETATM   27 BR   UNL     1     -21.868  -6.360  -4.609  1.00  0.00    -0.048 Br
ENDROOT
BRANCH  14  28
HETATM   28  O   UNL     1     -19.573  -7.424  -6.399  1.00  0.00    -0.358 OA
HETATM   29  H   UNL     1     -19.397  -8.050  -7.126  1.00  0.00     0.217 HD
ENDBRANCH  14  28
BRANCH  20  30
HETATM   30  O   UNL     1     -16.258 -14.618  -1.059  1.00  0.00    -0.358 OA
HETATM   31  H   UNL     1     -15.596 -14.530  -1.767  1.00  0.00     0.217 HD
ENDBRANCH  20  30
TORSDOF 2
BEGIN_RES ARG D 557
REMARK  4 active torsions:
REMARK  status: ('A' for Active; 'I' for Inactive)
REMARK    1  A    between atoms: CA   and  CB  
REMARK    2  A    between atoms: CB   and  CG  
REMARK    3  A    between atoms: CG   and  CD  
REMARK    4  A    between atoms: CD   and  NE  
REMARK       I    between atoms: NE   and  CZ  
REMARK       I    between atoms: CZ   and  NH1 
REMARK       I    between atoms: CZ   and  NH2 
ROOT
ATOM      1  CA  ARG D 557     -26.217   2.705 -17.014  1.00 35.49     0.159 C 
ENDROOT
BRANCH   1   2
ATOM      2  CB  ARG D 557     -26.789   1.319 -17.183  1.00 35.49     0.034 C 
BRANCH   2   3
ATOM      3  CG  ARG D 557     -25.838   0.202 -17.138  1.00 35.49     0.027 C 
BRANCH   3   4
ATOM      4  CD  ARG D 557     -24.763   0.416 -16.142  1.00 35.49     0.116 C 
BRANCH   4   5
ATOM      5  NE  ARG D 557     -24.911  -0.436 -14.992  1.00 35.49    -0.212 N 
ATOM      6  CZ  ARG D 557     -24.119  -1.433 -14.667  1.00 35.49     0.666 C 
ATOM      7  NH1 ARG D 557     -23.075  -1.777 -15.399  1.00 35.49    -0.235 N 
ATOM      8  NH2 ARG D 557     -24.392  -2.086 -13.575  1.00 35.49    -0.235 N 
ATOM      9  HH  ARG D 557     -22.875  -1.360 -16.120  1.00 35.49     0.174 HD
ATOM     10  HH  ARG D 557     -22.592  -2.434 -15.136  1.00 35.49     0.174 HD
ATOM     11  HH  ARG D 557     -25.068  -1.837 -13.119  1.00 35.49     0.174 HD
ATOM     12  HH  ARG D 557     -23.902  -2.733 -13.331  1.00 35.49     0.174 HD
ATOM     13  HE  ARG D 557     -25.599  -0.331 -14.504  1.00 35.49     0.178 HD
ENDBRANCH   4   5
ENDBRANCH   3   4
ENDBRANCH   2   3
ENDBRANCH   1   2
END_RES ARG D 557
BEGIN_RES GLU D 570
REMARK  3 active torsions:
REMARK  status: ('A' for Active; 'I' for Inactive)
REMARK    5  A    between atoms: CA   and  CB  
REMARK    6  A    between atoms: CB   and  CG  
REMARK    7  A    between atoms: CG   and  CD  
ROOT
ATOM     14  CA  GLU D 570     -18.033  -6.348 -13.375  1.00 32.92     0.160 C 
ENDROOT
BRANCH  14  15
ATOM     15  CB  GLU D 570     -19.500  -6.345 -13.794  1.00 32.92     0.043 C 
BRANCH  15  16
ATOM     16  CG  GLU D 570     -20.448  -5.558 -12.963  1.00 32.92     0.100 C 
BRANCH  16  17
ATOM     17  CD  GLU D 570     -21.713  -5.189 -13.702  1.00 32.92     0.185 C 
ATOM     18  OE1 GLU D 570     -22.310  -4.140 -13.393  1.00 32.92    -0.647 OA
ATOM     19  OE2 GLU D 570     -22.120  -5.966 -14.588  1.00 32.92    -0.647 OA
ENDBRANCH  16  17
ENDBRANCH  15  16
ENDBRANCH  14  15
END_RES GLU D 570
ENDMDL
MODEL 6
REMARK VINA RESULT:      -7.2      3.347      6.326
REMARK  2 active torsions:
REMARK  status: ('A' for Active; 'I' for Inactive)
REMARK    1  A    between atoms: C_14  and  O_28 
REMARK    2  A    between atoms: C_20  and  O_25 
ROOT
HETATM    1  C   UNL     1     -22.019  -8.243   1.085  1.00  0.00     0.001 A 
HETATM    2  C   UNL     1     -20.895  -8.842   1.683  1.00  0.00     0.001 A 
HETATM    3  C   UNL     1     -20.447 -10.098   1.264  1.00  0.00     0.012 A 
HETATM    4  C   UNL     1     -21.139 -10.733   0.242  1.00  0.00     0.003 A 
HETATM    5  C   UNL     1     -22.244 -10.135  -0.333  1.00  0.00     0.049 A 
HETATM    6  C   UNL     1     -22.709  -8.894   0.061  1.00  0.00     0.018 A 
HETATM    7  C   UNL     1     -22.771 -11.011  -1.370  1.00  0.00     0.295 A 
HETATM    8  O   UNL     1     -23.745 -10.805  -2.063  1.00  0.00    -0.259 OA
HETATM    9  O   UNL     1     -21.962 -12.111  -1.408  1.00  0.00    -0.291 OA
HETATM   10  C   UNL     1     -20.893 -12.048  -0.429  1.00  0.00     0.159 A 
HETATM   11  C   UNL     1     -21.061 -13.217   0.517  1.00  0.00     0.023 A 
HETATM   12  C   UNL     1     -22.275 -13.430   1.204  1.00  0.00     0.036 A 
HETATM   13  C   UNL     1     -22.408 -14.476   2.114  1.00  0.00     0.046 A 
HETATM   14  C   UNL     1     -21.341 -15.342   2.346  1.00  0.00     0.103 A 
HETATM   15  C   UNL     1     -20.134 -15.155   1.662  1.00  0.00     0.080 A 
HETATM   16  C   UNL     1     -19.993 -14.090   0.750  1.00  0.00     0.106 A 
HETATM   17  O   UNL     1     -18.773 -13.947   0.133  1.00  0.00    -0.306 OA
HETATM   18  C   UNL     1     -18.586 -12.986  -0.830  1.00  0.00     0.106 A 
HETATM   19  C   UNL     1     -17.332 -12.945  -1.466  1.00  0.00     0.080 A 
HETATM   20  C   UNL     1     -17.062 -11.980  -2.446  1.00  0.00     0.103 A 
HETATM   21  C   UNL     1     -18.048 -11.063  -2.801  1.00  0.00     0.046 A 
HETATM   22  C   UNL     1     -19.295 -11.108  -2.177  1.00  0.00     0.036 A 
HETATM   23  C   UNL     1     -19.574 -12.060  -1.173  1.00  0.00     0.023 A 
HETATM   24 BR   UNL     1     -17.742  -9.717  -4.100  1.00  0.00    -0.048 Br
HETATM   25 BR   UNL     1     -15.966 -14.188  -0.994  1.00  0.00    -0.045 Br
HETATM   26 BR   UNL     1     -18.675 -16.342   1.975  1.00  0.00    -0.045 Br
HETATM   27 BR   UNL     1     -24.051 -14.678   3.036  1.00  0.00    -0.048 Br
ENDROOT
BRANCH  14  28
HETATM   28  O   UNL     1     -21.464 -16.372   3.243  1.00  0.00    -0.358 OA
HETATM   29  H   UNL     1     -21.023 -16.110   4.072  1.00  0.00     0.217 HD
ENDBRANCH  14  28
BRANCH  20  30
HETATM   30  O   UNL     1     -15.837 -11.914  -3.059  1.00  0.00    -0.358 OA
HETATM   31  H   UNL     1     -15.239 -12.538  -2.611  1.00  0.00     0.217 HD
ENDBRANCH  20  30
TORSDOF 2
BEGIN_RES ARG D 557
REMARK  4 active torsions:
REMARK  status: ('A' for Active; 'I' for Inactive)
REMARK    1  A    between atoms: CA   and  CB  
REMARK    2  A    between atoms: CB   and  CG  
REMARK    3  A    between atoms: CG   and  CD  
REMARK    4  A    between atoms: CD   and  NE  
REMARK       I    between atoms: NE   and  CZ  
REMARK       I    between atoms: CZ   and  NH1 
REMARK       I    between atoms: CZ   and  NH2 
ROOT
ATOM      1  CA  ARG D 557     -26.217   2.705 -17.014  1.00 35.49     0.159 C 
ENDROOT
BRANCH   1   2
ATOM      2  CB  ARG D 557     -26.789   1.319 -17.183  1.00 35.49     0.034 C 
BRANCH   2   3
ATOM      3  CG  ARG D 557     -28.236   1.225 -17.412  1.00 35.49     0.027 C 
BRANCH   3   4
ATOM      4  CD  ARG D 557     -28.893   0.273 -16.487  1.00 35.49     0.116 C 
BRANCH   4   5
ATOM      5  NE  ARG D 557     -29.260  -0.955 -17.142  1.00 35.49    -0.212 N 
ATOM      6  CZ  ARG D 557     -28.624  -2.100 -17.038  1.00 35.49     0.666 C 
ATOM      7  NH1 ARG D 557     -27.535  -2.243 -16.306  1.00 35.49    -0.235 N 
ATOM      8  NH2 ARG D 557     -29.111  -3.118 -17.687  1.00 35.49    -0.235 N 
ATOM      9  HH  ARG D 557     -27.198  -1.588 -15.869  1.00 35.49     0.174 HD
ATOM     10  HH  ARG D 557     -27.164  -3.015 -16.274  1.00 35.49     0.174 HD
ATOM     11  HH  ARG D 557     -29.820  -2.998 -18.146  1.00 35.49     0.174 HD
ATOM     12  HH  ARG D 557     -28.731  -3.874 -17.642  1.00 35.49     0.174 HD
ATOM     13  HE  ARG D 557     -29.908  -0.936 -17.692  1.00 35.49     0.178 HD
ENDBRANCH   4   5
ENDBRANCH   3   4
ENDBRANCH   2   3
ENDBRANCH   1   2
END_RES ARG D 557
BEGIN_RES GLU D 570
REMARK  3 active torsions:
REMARK  status: ('A' for Active; 'I' for Inactive)
REMARK    5  A    between atoms: CA   and  CB  
REMARK    6  A    between atoms: CB   and  CG  
REMARK    7  A    between atoms: CG   and  CD  
ROOT
ATOM     14  CA  GLU D 570     -18.033  -6.348 -13.375  1.00 32.92     0.160 C 
ENDROOT
BRANCH  14  15
ATOM     15  CB  GLU D 570     -19.500  -6.345 -13.794  1.00 32.92     0.043 C 
BRANCH  15  16
ATOM     16  CG  GLU D 570     -20.090  -7.637 -14.229  1.00 32.92     0.100 C 
BRANCH  16  17
ATOM     17  CD  GLU D 570     -21.016  -7.493 -15.414  1.00 32.92     0.185 C 
ATOM     18  OE1 GLU D 570     -20.860  -8.240 -16.399  1.00 32.92    -0.647 OA
ATOM     19  OE2 GLU D 570     -21.897  -6.611 -15.364  1.00 32.92    -0.647 OA
ENDBRANCH  16  17
ENDBRANCH  15  16
ENDBRANCH  14  15
END_RES GLU D 570
ENDMDL
MODEL 7
REMARK VINA RESULT:      -6.9     14.566     18.197
REMARK  2 active torsions:
REMARK  status: ('A' for Active; 'I' for Inactive)
REMARK    1  A    between atoms: C_14  and  O_28 
REMARK    2  A    between atoms: C_20  and  O_25 
ROOT
HETATM    1  C   UNL     1     -24.528   5.638  -2.575  1.00  0.00     0.001 A 
HETATM    2  C   UNL     1     -23.630   5.814  -1.508  1.00  0.00     0.001 A 
HETATM    3  C   UNL     1     -23.470   7.068  -0.908  1.00  0.00     0.012 A 
HETATM    4  C   UNL     1     -24.223   8.127  -1.394  1.00  0.00     0.003 A 
HETATM    5  C   UNL     1     -25.099   7.940  -2.446  1.00  0.00     0.049 A 
HETATM    6  C   UNL     1     -25.277   6.712  -3.058  1.00  0.00     0.018 A 
HETATM    7  C   UNL     1     -25.753   9.205  -2.748  1.00  0.00     0.295 A 
HETATM    8  O   UNL     1     -26.567   9.406  -3.624  1.00  0.00    -0.259 OA
HETATM    9  O   UNL     1     -25.270  10.124  -1.860  1.00  0.00    -0.291 OA
HETATM   10  C   UNL     1     -24.291   9.555  -0.952  1.00  0.00     0.159 A 
HETATM   11  C   UNL     1     -22.984  10.286  -1.165  1.00  0.00     0.023 A 
HETATM   12  C   UNL     1     -22.397  10.374  -2.445  1.00  0.00     0.036 A 
HETATM   13  C   UNL     1     -21.167  11.001  -2.628  1.00  0.00     0.046 A 
HETATM   14  C   UNL     1     -20.503  11.569  -1.542  1.00  0.00     0.103 A 
HETATM   15  C   UNL     1     -21.077  11.505  -0.266  1.00  0.00     0.080 A 
HETATM   16  C   UNL     1     -22.315  10.860  -0.077  1.00  0.00     0.106 A 
HETATM   17  O   UNL     1     -22.809  10.808   1.205  1.00  0.00    -0.306 OA
HETATM   18  C   UNL     1     -24.049  10.272   1.454  1.00  0.00     0.106 A 
HETATM   19  C   UNL     1     -24.516  10.318   2.780  1.00  0.00     0.080 A 
HETATM   20  C   UNL     1     -25.764   9.774   3.114  1.00  0.00     0.103 A 
HETATM   21  C   UNL     1     -26.552   9.196   2.122  1.00  0.00     0.046 A 
HETATM   22  C   UNL     1     -26.093   9.158   0.805  1.00  0.00     0.036 A 
HETATM   23  C   UNL     1     -24.830   9.682   0.457  1.00  0.00     0.023 A 
HETATM   24 BR   UNL     1     -28.238   8.420   2.508  1.00  0.00    -0.048 Br
HETATM   25 BR   UNL     1     -23.453  11.101   4.155  1.00  0.00    -0.045 Br
HETATM   26 BR   UNL     1     -20.171  12.286   1.219  1.00  0.00    -0.045 Br
HETATM   27 BR   UNL     1     -20.414  11.044  -4.366  1.00  0.00    -0.048 Br
ENDROOT
BRANCH  14  28
HETATM   28  O   UNL     1     -19.290  12.185  -1.713  1.00  0.00    -0.358 OA
HETATM   29  H   UNL     1     -19.354  12.779  -2.483  1.00  0.00     0.217 HD
ENDBRANCH  14  28
BRANCH  20  30
HETATM   30  O   UNL     1     -26.224   9.791   4.406  1.00  0.00    -0.358 OA
HETATM   31  H   UNL     1     -27.076   9.322   4.431  1.00  0.00     0.217 HD
ENDBRANCH  20  30
TORSDOF 2
BEGIN_RES ARG D 557
REMARK  4 active torsions:
REMARK  status: ('A' for Active; 'I' for Inactive)
REMARK    1  A    between atoms: CA   and  CB  
REMARK    2  A    between atoms: CB   and  CG  
REMARK    3  A    between atoms: CG   and  CD  
REMARK    4  A    between atoms: CD   and  NE  
REMARK       I    between atoms: NE   and  CZ  
REMARK       I    between atoms: CZ   and  NH1 
REMARK       I    between atoms: CZ   and  NH2 
ROOT
ATOM      1  CA  ARG D 557     -26.217   2.705 -17.014  1.00 35.49     0.159 C 
ENDROOT
BRANCH   1   2
ATOM      2  CB  ARG D 557     -26.789   1.319 -17.183  1.00 35.49     0.034 C 
BRANCH   2   3
ATOM      3  CG  ARG D 557     -25.837   0.202 -17.144  1.00 35.49     0.027 C 
BRANCH   3   4
ATOM      4  CD  ARG D 557     -24.753   0.418 -16.159  1.00 35.49     0.116 C 
BRANCH   4   5
ATOM      5  NE  ARG D 557     -24.887  -0.437 -15.009  1.00 35.49    -0.212 N 
ATOM      6  CZ  ARG D 557     -24.058  -1.398 -14.667  1.00 35.49     0.666 C 
ATOM      7  NH1 ARG D 557     -22.986  -1.697 -15.377  1.00 35.49    -0.235 N 
ATOM      8  NH2 ARG D 557     -24.324  -2.060 -13.579  1.00 35.49    -0.235 N 
ATOM      9  HH  ARG D 557     -22.791  -1.273 -16.095  1.00 35.49     0.174 HD
ATOM     10  HH  ARG D 557     -22.481  -2.333 -15.103  1.00 35.49     0.174 HD
ATOM     11  HH  ARG D 557     -25.020  -1.840 -13.136  1.00 35.49     0.174 HD
ATOM     12  HH  ARG D 557     -23.811  -2.685 -13.323  1.00 35.49     0.174 HD
ATOM     13  HE  ARG D 557     -25.588  -0.362 -14.535  1.00 35.49     0.178 HD
ENDBRANCH   4   5
ENDBRANCH   3   4
ENDBRANCH   2   3
ENDBRANCH   1   2
END_RES ARG D 557
BEGIN_RES GLU D 570
REMARK  3 active torsions:
REMARK  status: ('A' for Active; 'I' for Inactive)
REMARK    5  A    between atoms: CA   and  CB  
REMARK    6  A    between atoms: CB   and  CG  
REMARK    7  A    between atoms: CG   and  CD  
ROOT
ATOM     14  CA  GLU D 570     -18.033  -6.348 -13.375  1.00 32.92     0.160 C 
ENDROOT
BRANCH  14  15
ATOM     15  CB  GLU D 570     -19.500  -6.345 -13.794  1.00 32.92     0.043 C 
BRANCH  15  16
ATOM     16  CG  GLU D 570     -20.444  -5.543 -12.974  1.00 32.92     0.100 C 
BRANCH  16  17
ATOM     17  CD  GLU D 570     -21.729  -5.219 -13.702  1.00 32.92     0.185 C 
ATOM     18  OE1 GLU D 570     -22.284  -4.124 -13.491  1.00 32.92    -0.647 OA
ATOM     19  OE2 GLU D 570     -22.193  -6.078 -14.478  1.00 32.92    -0.647 OA
ENDBRANCH  16  17
ENDBRANCH  15  16
ENDBRANCH  14  15
END_RES GLU D 570
ENDMDL
MODEL 8
REMARK VINA RESULT:      -6.9      2.636      6.264
REMARK  2 active torsions:
REMARK  status: ('A' for Active; 'I' for Inactive)
REMARK    1  A    between atoms: C_14  and  O_28 
REMARK    2  A    between atoms: C_20  and  O_25 
ROOT
HETATM    1  C   UNL     1     -22.818  -8.284   1.117  1.00  0.00     0.001 A 
HETATM    2  C   UNL     1     -21.418  -8.258   0.985  1.00  0.00     0.001 A 
HETATM    3  C   UNL     1     -20.770  -9.105   0.081  1.00  0.00     0.012 A 
HETATM    4  C   UNL     1     -21.546  -9.966  -0.682  1.00  0.00     0.003 A 
HETATM    5  C   UNL     1     -22.920  -9.984  -0.538  1.00  0.00     0.049 A 
HETATM    6  C   UNL     1     -23.587  -9.158   0.348  1.00  0.00     0.018 A 
HETATM    7  C   UNL     1     -23.479 -10.971  -1.452  1.00  0.00     0.295 A 
HETATM    8  O   UNL     1     -24.651 -11.258  -1.575  1.00  0.00    -0.259 OA
HETATM    9  O   UNL     1     -22.431 -11.514  -2.138  1.00  0.00    -0.291 OA
HETATM   10  C   UNL     1     -21.154 -10.956  -1.733  1.00  0.00     0.159 A 
HETATM   11  C   UNL     1     -20.312 -12.083  -1.177  1.00  0.00     0.023 A 
HETATM   12  C   UNL     1     -20.787 -12.899  -0.129  1.00  0.00     0.036 A 
HETATM   13  C   UNL     1     -19.987 -13.902   0.417  1.00  0.00     0.046 A 
HETATM   14  C   UNL     1     -18.704 -14.123  -0.081  1.00  0.00     0.103 A 
HETATM   15  C   UNL     1     -18.222 -13.332  -1.132  1.00  0.00     0.080 A 
HETATM   16  C   UNL     1     -19.024 -12.309  -1.676  1.00  0.00     0.106 A 
HETATM   17  O   UNL     1     -18.479 -11.553  -2.686  1.00  0.00    -0.306 OA
HETATM   18  C   UNL     1     -19.230 -10.596  -3.324  1.00  0.00     0.106 A 
HETATM   19  C   UNL     1     -18.626  -9.909  -4.394  1.00  0.00     0.080 A 
HETATM   20  C   UNL     1     -19.325  -8.907  -5.080  1.00  0.00     0.103 A 
HETATM   21  C   UNL     1     -20.630  -8.597  -4.708  1.00  0.00     0.046 A 
HETATM   22  C   UNL     1     -21.232  -9.283  -3.653  1.00  0.00     0.036 A 
HETATM   23  C   UNL     1     -20.535 -10.279  -2.938  1.00  0.00     0.023 A 
HETATM   24 BR   UNL     1     -21.623  -7.236  -5.577  1.00  0.00    -0.048 Br
HETATM   25 BR   UNL     1     -16.839 -10.315  -4.919  1.00  0.00    -0.045 Br
HETATM   26 BR   UNL     1     -16.469 -13.637  -1.817  1.00  0.00    -0.045 Br
HETATM   27 BR   UNL     1     -20.670 -14.932   1.853  1.00  0.00    -0.048 Br
ENDROOT
BRANCH  14  28
HETATM   28  O   UNL     1     -17.911 -15.104   0.453  1.00  0.00    -0.358 OA
HETATM   29  H   UNL     1     -17.493 -15.594  -0.279  1.00  0.00     0.217 HD
ENDBRANCH  14  28
BRANCH  20  30
HETATM   30  O   UNL     1     -18.742  -8.215  -6.111  1.00  0.00    -0.358 OA
HETATM   31  H   UNL     1     -18.829  -7.263  -5.924  1.00  0.00     0.217 HD
ENDBRANCH  20  30
TORSDOF 2
BEGIN_RES ARG D 557
REMARK  4 active torsions:
REMARK  status: ('A' for Active; 'I' for Inactive)
REMARK    1  A    between atoms: CA   and  CB  
REMARK    2  A    between atoms: CB   and  CG  
REMARK    3  A    between atoms: CG   and  CD  
REMARK    4  A    between atoms: CD   and  NE  
REMARK       I    between atoms: NE   and  CZ  
REMARK       I    between atoms: CZ   and  NH1 
REMARK       I    between atoms: CZ   and  NH2 
ROOT
ATOM      1  CA  ARG D 557     -26.217   2.705 -17.014  1.00 35.49     0.159 C 
ENDROOT
BRANCH   1   2
ATOM      2  CB  ARG D 557     -26.789   1.319 -17.183  1.00 35.49     0.034 C 
BRANCH   2   3
ATOM      3  CG  ARG D 557     -28.235   1.225 -17.420  1.00 35.49     0.027 C 
BRANCH   3   4
ATOM      4  CD  ARG D 557     -28.899   0.281 -16.492  1.00 35.49     0.116 C 
BRANCH   4   5
ATOM      5  NE  ARG D 557     -29.261  -0.951 -17.141  1.00 35.49    -0.212 N 
ATOM      6  CZ  ARG D 557     -28.626  -2.096 -17.024  1.00 35.49     0.666 C 
ATOM      7  NH1 ARG D 557     -27.542  -2.233 -16.284  1.00 35.49    -0.235 N 
ATOM      8  NH2 ARG D 557     -29.109  -3.119 -17.669  1.00 35.49    -0.235 N 
ATOM      9  HH  ARG D 557     -27.208  -1.575 -15.850  1.00 35.49     0.174 HD
ATOM     10  HH  ARG D 557     -27.171  -3.005 -16.244  1.00 35.49     0.174 HD
ATOM     11  HH  ARG D 557     -29.815  -3.002 -18.133  1.00 35.49     0.174 HD
ATOM     12  HH  ARG D 557     -28.729  -3.875 -17.615  1.00 35.49     0.174 HD
ATOM     13  HE  ARG D 557     -29.907  -0.937 -17.694  1.00 35.49     0.178 HD
ENDBRANCH   4   5
ENDBRANCH   3   4
ENDBRANCH   2   3
ENDBRANCH   1   2
END_RES ARG D 557
BEGIN_RES GLU D 570
REMARK  3 active torsions:
REMARK  status: ('A' for Active; 'I' for Inactive)
REMARK    5  A    between atoms: CA   and  CB  
REMARK    6  A    between atoms: CB   and  CG  
REMARK    7  A    between atoms: CG   and  CD  
ROOT
ATOM     14  CA  GLU D 570     -18.033  -6.348 -13.375  1.00 32.92     0.160 C 
ENDROOT
BRANCH  14  15
ATOM     15  CB  GLU D 570     -19.500  -6.345 -13.794  1.00 32.92     0.043 C 
BRANCH  15  16
ATOM     16  CG  GLU D 570     -20.448  -5.559 -12.963  1.00 32.92     0.100 C 
BRANCH  16  17
ATOM     17  CD  GLU D 570     -21.708  -5.179 -13.705  1.00 32.92     0.185 C 
ATOM     18  OE1 GLU D 570     -22.734  -4.905 -13.054  1.00 32.92    -0.647 OA
ATOM     19  OE2 GLU D 570     -21.672  -5.171 -14.951  1.00 32.92    -0.647 OA
ENDBRANCH  16  17
ENDBRANCH  15  16
ENDBRANCH  14  15
END_RES GLU D 570
ENDMDL
MODEL 9
REMARK VINA RESULT:      -6.8      3.027      5.885
REMARK  2 active torsions:
REMARK  status: ('A' for Active; 'I' for Inactive)
REMARK    1  A    between atoms: C_14  and  O_28 
REMARK    2  A    between atoms: C_20  and  O_25 
ROOT
HETATM    1  C   UNL     1     -15.979 -14.056   2.597  1.00  0.00     0.001 A 
HETATM    2  C   UNL     1     -15.817 -12.749   2.103  1.00  0.00     0.001 A 
HETATM    3  C   UNL     1     -16.255 -12.412   0.818  1.00  0.00     0.012 A 
HETATM    4  C   UNL     1     -16.855 -13.399   0.049  1.00  0.00     0.003 A 
HETATM    5  C   UNL     1     -17.003 -14.680   0.546  1.00  0.00     0.049 A 
HETATM    6  C   UNL     1     -16.579 -15.042   1.812  1.00  0.00     0.018 A 
HETATM    7  C   UNL     1     -17.658 -15.505  -0.459  1.00  0.00     0.295 A 
HETATM    8  O   UNL     1     -17.927 -16.683  -0.363  1.00  0.00    -0.259 OA
HETATM    9  O   UNL     1     -17.905 -14.699  -1.534  1.00  0.00    -0.291 OA
HETATM   10  C   UNL     1     -17.438 -13.340  -1.327  1.00  0.00     0.159 A 
HETATM   11  C   UNL     1     -16.394 -13.045  -2.382  1.00  0.00     0.023 A 
HETATM   12  C   UNL     1     -15.267 -13.877  -2.546  1.00  0.00     0.036 A 
HETATM   13  C   UNL     1     -14.282 -13.572  -3.482  1.00  0.00     0.046 A 
HETATM   14  C   UNL     1     -14.406 -12.440  -4.286  1.00  0.00     0.103 A 
HETATM   15  C   UNL     1     -15.526 -11.610  -4.147  1.00  0.00     0.080 A 
HETATM   16  C   UNL     1     -16.517 -11.910  -3.192  1.00  0.00     0.106 A 
HETATM   17  O   UNL     1     -17.576 -11.039  -3.089  1.00  0.00    -0.306 OA
HETATM   18  C   UNL     1     -18.623 -11.310  -2.242  1.00  0.00     0.106 A 
HETATM   19  C   UNL     1     -19.703 -10.408  -2.242  1.00  0.00     0.080 A 
HETATM   20  C   UNL     1     -20.798 -10.610  -1.391  1.00  0.00     0.103 A 
HETATM   21  C   UNL     1     -20.822 -11.718  -0.549  1.00  0.00     0.046 A 
HETATM   22  C   UNL     1     -19.756 -12.618  -0.555  1.00  0.00     0.036 A 
HETATM   23  C   UNL     1     -18.637 -12.417  -1.390  1.00  0.00     0.023 A 
HETATM   24 BR   UNL     1     -22.260 -12.038   0.644  1.00  0.00    -0.048 Br
HETATM   25 BR   UNL     1     -19.689  -8.882  -3.384  1.00  0.00    -0.045 Br
HETATM   26 BR   UNL     1     -15.699 -10.064  -5.249  1.00  0.00    -0.045 Br
HETATM   27 BR   UNL     1     -12.771 -14.708  -3.620  1.00  0.00    -0.048 Br
ENDROOT
BRANCH  14  28
HETATM   28  O   UNL     1     -13.438 -12.131  -5.206  1.00  0.00    -0.358 OA
HETATM   29  H   UNL     1     -13.731 -11.348  -5.708  1.00  0.00     0.217 HD
ENDBRANCH  14  28
BRANCH  20  30
HETATM   30  O   UNL     1     -21.847  -9.728  -1.364  1.00  0.00    -0.358 OA
HETATM   31  H   UNL     1     -21.576  -8.950  -0.845  1.00  0.00     0.217 HD
ENDBRANCH  20  30
TORSDOF 2
BEGIN_RES ARG D 557
REMARK  4 active torsions:
REMARK  status: ('A' for Active; 'I' for Inactive)
REMARK    1  A    between atoms: CA   and  CB  
REMARK    2  A    between atoms: CB   and  CG  
REMARK    3  A    between atoms: CG   and  CD  
REMARK    4  A    between atoms: CD   and  NE  
REMARK       I    between atoms: NE   and  CZ  
REMARK       I    between atoms: CZ   and  NH1 
REMARK       I    between atoms: CZ   and  NH2 
ROOT
ATOM      1  CA  ARG D 557     -26.217   2.705 -17.014  1.00 35.49     0.159 C 
ENDROOT
BRANCH   1   2
ATOM      2  CB  ARG D 557     -26.789   1.319 -17.183  1.00 35.49     0.034 C 
BRANCH   2   3
ATOM      3  CG  ARG D 557     -25.837   0.202 -17.147  1.00 35.49     0.027 C 
BRANCH   3   4
ATOM      4  CD  ARG D 557     -24.757   0.413 -16.156  1.00 35.49     0.116 C 
BRANCH   4   5
ATOM      5  NE  ARG D 557     -24.899  -0.446 -15.009  1.00 35.49    -0.212 N 
ATOM      6  CZ  ARG D 557     -24.074  -1.409 -14.665  1.00 35.49     0.666 C 
ATOM      7  NH1 ARG D 557     -22.998  -1.707 -15.370  1.00 35.49    -0.235 N 
ATOM      8  NH2 ARG D 557     -24.347  -2.074 -13.580  1.00 35.49    -0.235 N 
ATOM      9  HH  ARG D 557     -22.798  -1.281 -16.086  1.00 35.49     0.174 HD
ATOM     10  HH  ARG D 557     -22.495  -2.344 -15.095  1.00 35.49     0.174 HD
ATOM     11  HH  ARG D 557     -25.044  -1.855 -13.141  1.00 35.49     0.174 HD
ATOM     12  HH  ARG D 557     -23.836  -2.700 -13.324  1.00 35.49     0.174 HD
ATOM     13  HE  ARG D 557     -25.603  -0.371 -14.539  1.00 35.49     0.178 HD
ENDBRANCH   4   5
ENDBRANCH   3   4
ENDBRANCH   2   3
ENDBRANCH   1   2
END_RES ARG D 557
BEGIN_RES GLU D 570
REMARK  3 active torsions:
REMARK  status: ('A' for Active; 'I' for Inactive)
REMARK    5  A    between atoms: CA   and  CB  
REMARK    6  A    between atoms: CB   and  CG  
REMARK    7  A    between atoms: CG   and  CD  
ROOT
ATOM     14  CA  GLU D 570     -18.033  -6.348 -13.375  1.00 32.92     0.160 C 
ENDROOT
BRANCH  14  15
ATOM     15  CB  GLU D 570     -19.500  -6.345 -13.794  1.00 32.92     0.043 C 
BRANCH  15  16
ATOM     16  CG  GLU D 570     -20.443  -5.535 -12.980  1.00 32.92     0.100 C 
BRANCH  16  17
ATOM     17  CD  GLU D 570     -21.734  -5.231 -13.702  1.00 32.92     0.185 C 
ATOM     18  OE1 GLU D 570     -22.284  -4.128 -13.520  1.00 32.92    -0.647 OA
ATOM     19  OE2 GLU D 570     -22.210  -6.111 -14.446  1.00 32.92    -0.647 OA
ENDBRANCH  16  17
ENDBRANCH  15  16
ENDBRANCH  14  15
END_RES GLU D 570
ENDMDL
