MODEL 1
REMARK VINA RESULT:      -6.9      0.000      0.000
REMARK  26 active torsions:
REMARK  status: ('A' for Active; 'I' for Inactive)
REMARK    1  A    between atoms: C_2  and  C_3 
REMARK    2  A    between atoms: C_3  and  C_4 
REMARK    3  A    between atoms: C_4  and  C_5 
REMARK    4  A    between atoms: C_5  and  C_6 
REMARK    5  A    between atoms: C_6  and  C_7 
REMARK    6  A    between atoms: C_7  and  C_8 
REMARK    7  A    between atoms: C_8  and  O_10 
REMARK    8  A    between atoms: O_10  and  C_11 
REMARK    9  A    between atoms: C_11  and  C_12 
REMARK   10  A    between atoms: C_12  and  C_13 
REMARK   11  A    between atoms: C_12  and  O_24 
REMARK   12  A    between atoms: C_13  and  O_14 
REMARK   13  A    between atoms: O_14  and  C_15 
REMARK   14  A    between atoms: C_15  and  C_17 
REMARK   15  A    between atoms: C_17  and  C_18 
REMARK   16  A    between atoms: C_18  and  C_19 
REMARK   17  A    between atoms: C_19  and  C_20 
REMARK   18  A    between atoms: C_20  and  C_21 
REMARK   19  A    between atoms: C_21  and  C_22 
REMARK   20  A    between atoms: O_24  and  C_25 
REMARK   21  A    between atoms: C_25  and  C_27 
REMARK   22  A    between atoms: C_27  and  C_28 
REMARK   23  A    between atoms: C_28  and  C_29 
REMARK   24  A    between atoms: C_29  and  C_30 
REMARK   25  A    between atoms: C_30  and  C_31 
REMARK   26  A    between atoms: C_31  and  C_32 
ROOT
HETATM    1  C   UNL     1     -33.695  -3.267 -15.907  1.00  0.00     0.180 C 
ENDROOT
BRANCH   1   2
HETATM    2  C   UNL     1     -32.885  -4.145 -16.875  1.00  0.00     0.213 C 
BRANCH   2   3
HETATM    3  O   UNL     1     -32.019  -3.348 -17.701  1.00  0.00    -0.319 OA
BRANCH   3   4
HETATM    4  C   UNL     1     -30.689  -3.474 -17.429  1.00  0.00     0.258 C 
HETATM    5  O   UNL     1     -29.874  -2.571 -17.505  1.00  0.00    -0.265 OA
BRANCH   4   6
HETATM    6  C   UNL     1     -30.359  -4.893 -17.043  1.00  0.00     0.111 C 
BRANCH   6   7
HETATM    7  C   UNL     1     -29.683  -5.643 -18.185  1.00  0.00     0.010 C 
BRANCH   7   8
HETATM    8  C   UNL     1     -28.159  -5.627 -18.063  1.00  0.00     0.000 C 
BRANCH   8   9
HETATM    9  C   UNL     1     -27.730  -5.424 -16.613  1.00  0.00     0.000 C 
BRANCH   9  10
HETATM   10  C   UNL     1     -27.233  -6.733 -16.004  1.00  0.00    -0.000 C 
BRANCH  10  11
HETATM   11  C   UNL     1     -25.755  -6.641 -15.634  1.00  0.00    -0.005 C 
HETATM   12  C   UNL     1     -24.872  -6.992 -16.818  1.00  0.00     0.005 C 
ENDBRANCH  10  11
ENDBRANCH   9  10
ENDBRANCH   8   9
ENDBRANCH   7   8
ENDBRANCH   6   7
ENDBRANCH   4   6
ENDBRANCH   3   4
ENDBRANCH   2   3
ENDBRANCH   1   2
BRANCH   1  13
HETATM   13  C   UNL     1     -34.785  -2.508 -16.679  1.00  0.00     0.213 C 
BRANCH  13  14
HETATM   14  O   UNL     1     -34.869  -1.134 -16.252  1.00  0.00    -0.319 OA
BRANCH  14  15
HETATM   15  C   UNL     1     -36.139  -0.653 -16.151  1.00  0.00     0.258 C 
HETATM   16  O   UNL     1     -37.077  -1.026 -16.847  1.00  0.00    -0.265 OA
BRANCH  15  17
HETATM   17  C   UNL     1     -36.237   0.411 -15.082  1.00  0.00     0.111 C 
BRANCH  17  18
HETATM   18  C   UNL     1     -34.884   0.652 -14.414  1.00  0.00     0.010 C 
BRANCH  18  19
HETATM   19  C   UNL     1     -34.946   0.458 -12.897  1.00  0.00     0.000 C 
BRANCH  19  20
HETATM   20  C   UNL     1     -36.365   0.136 -12.438  1.00  0.00     0.000 C 
BRANCH  20  21
HETATM   21  C   UNL     1     -36.356  -0.474 -11.039  1.00  0.00    -0.000 C 
BRANCH  21  22
HETATM   22  C   UNL     1     -37.019   0.456 -10.028  1.00  0.00    -0.005 C 
HETATM   23  C   UNL     1     -36.817  -0.047  -8.610  1.00  0.00     0.005 C 
ENDBRANCH  21  22
ENDBRANCH  20  21
ENDBRANCH  19  20
ENDBRANCH  18  19
ENDBRANCH  17  18
ENDBRANCH  15  17
ENDBRANCH  14  15
ENDBRANCH  13  14
ENDBRANCH   1  13
BRANCH   1  24
HETATM   24  O   UNL     1     -34.300  -4.148 -14.932  1.00  0.00    -0.312 OA
BRANCH  24  25
HETATM   25  C   UNL     1     -34.304  -3.668 -13.654  1.00  0.00     0.259 C 
HETATM   26  O   UNL     1     -35.100  -2.861 -13.195  1.00  0.00    -0.265 OA
BRANCH  25  27
HETATM   27  C   UNL     1     -33.118  -4.184 -12.880  1.00  0.00     0.111 C 
BRANCH  27  28
HETATM   28  C   UNL     1     -33.078  -3.630 -11.466  1.00  0.00     0.010 C 
BRANCH  28  29
HETATM   29  C   UNL     1     -33.908  -4.477 -10.504  1.00  0.00     0.000 C 
BRANCH  29  30
HETATM   30  C   UNL     1     -33.838  -5.956 -10.872  1.00  0.00     0.000 C 
BRANCH  30  31
HETATM   31  C   UNL     1     -34.981  -6.726 -10.216  1.00  0.00    -0.000 C 
BRANCH  31  32
HETATM   32  C   UNL     1     -34.454  -7.733  -9.198  1.00  0.00    -0.005 C 
HETATM   33  C   UNL     1     -33.909  -8.971  -9.891  1.00  0.00     0.005 C 
ENDBRANCH  31  32
ENDBRANCH  30  31
ENDBRANCH  29  30
ENDBRANCH  28  29
ENDBRANCH  27  28
ENDBRANCH  25  27
ENDBRANCH  24  25
ENDBRANCH   1  24
TORSDOF 26
BEGIN_RES ARG D 557
REMARK  4 active torsions:
REMARK  status: ('A' for Active; 'I' for Inactive)
REMARK    1  A    between atoms: CA   and  CB  
REMARK    2  A    between atoms: CB   and  CG  
REMARK    3  A    between atoms: CG   and  CD  
REMARK    4  A    between atoms: CD   and  NE  
REMARK       I    between atoms: NE   and  CZ  
REMARK       I    between atoms: CZ   and  NH1 
REMARK       I    between atoms: CZ   and  NH2 
ROOT
ATOM      1  CA  ARG D 557     -26.217   2.705 -17.014  1.00 35.49     0.159 C 
ENDROOT
BRANCH   1   2
ATOM      2  CB  ARG D 557     -26.789   1.319 -17.183  1.00 35.49     0.034 C 
BRANCH   2   3
ATOM      3  CG  ARG D 557     -25.859   0.196 -17.015  1.00 35.49     0.027 C 
BRANCH   3   4
ATOM      4  CD  ARG D 557     -26.264  -0.713 -15.918  1.00 35.49     0.116 C 
BRANCH   4   5
ATOM      5  NE  ARG D 557     -25.220  -0.884 -14.943  1.00 35.49    -0.212 N 
ATOM      6  CZ  ARG D 557     -24.892  -2.015 -14.360  1.00 35.49     0.666 C 
ATOM      7  NH1 ARG D 557     -25.519  -3.150 -14.609  1.00 35.49    -0.235 N 
ATOM      8  NH2 ARG D 557     -23.903  -1.989 -13.513  1.00 35.49    -0.235 N 
ATOM      9  HH  ARG D 557     -26.170  -3.191 -15.164  1.00 35.49     0.174 HD
ATOM     10  HH  ARG D 557     -25.258  -3.857 -14.201  1.00 35.49     0.174 HD
ATOM     11  HH  ARG D 557     -23.512  -1.244 -13.378  1.00 35.49     0.174 HD
ATOM     12  HH  ARG D 557     -23.659  -2.700 -13.120  1.00 35.49     0.174 HD
ATOM     13  HE  ARG D 557     -24.812  -0.190 -14.669  1.00 35.49     0.178 HD
ENDBRANCH   4   5
ENDBRANCH   3   4
ENDBRANCH   2   3
ENDBRANCH   1   2
END_RES ARG D 557
BEGIN_RES GLU D 570
REMARK  3 active torsions:
REMARK  status: ('A' for Active; 'I' for Inactive)
REMARK    5  A    between atoms: CA   and  CB  
REMARK    6  A    between atoms: CB   and  CG  
REMARK    7  A    between atoms: CG   and  CD  
ROOT
ATOM     14  CA  GLU D 570     -18.033  -6.348 -13.375  1.00 32.92     0.160 C 
ENDROOT
BRANCH  14  15
ATOM     15  CB  GLU D 570     -19.500  -6.345 -13.794  1.00 32.92     0.043 C 
BRANCH  15  16
ATOM     16  CG  GLU D 570     -20.450  -5.572 -12.953  1.00 32.92     0.100 C 
BRANCH  16  17
ATOM     17  CD  GLU D 570     -21.734  -5.233 -13.675  1.00 32.92     0.185 C 
ATOM     18  OE1 GLU D 570     -21.872  -5.585 -14.862  1.00 32.92    -0.647 OA
ATOM     19  OE2 GLU D 570     -22.603  -4.592 -13.051  1.00 32.92    -0.647 OA
ENDBRANCH  16  17
ENDBRANCH  15  16
ENDBRANCH  14  15
END_RES GLU D 570
ENDMDL
MODEL 2
REMARK VINA RESULT:      -6.8      9.234     16.655
REMARK  26 active torsions:
REMARK  status: ('A' for Active; 'I' for Inactive)
REMARK    1  A    between atoms: C_2  and  C_3 
REMARK    2  A    between atoms: C_3  and  C_4 
REMARK    3  A    between atoms: C_4  and  C_5 
REMARK    4  A    between atoms: C_5  and  C_6 
REMARK    5  A    between atoms: C_6  and  C_7 
REMARK    6  A    between atoms: C_7  and  C_8 
REMARK    7  A    between atoms: C_8  and  O_10 
REMARK    8  A    between atoms: O_10  and  C_11 
REMARK    9  A    between atoms: C_11  and  C_12 
REMARK   10  A    between atoms: C_12  and  C_13 
REMARK   11  A    between atoms: C_12  and  O_24 
REMARK   12  A    between atoms: C_13  and  O_14 
REMARK   13  A    between atoms: O_14  and  C_15 
REMARK   14  A    between atoms: C_15  and  C_17 
REMARK   15  A    between atoms: C_17  and  C_18 
REMARK   16  A    between atoms: C_18  and  C_19 
REMARK   17  A    between atoms: C_19  and  C_20 
REMARK   18  A    between atoms: C_20  and  C_21 
REMARK   19  A    between atoms: C_21  and  C_22 
REMARK   20  A    between atoms: O_24  and  C_25 
REMARK   21  A    between atoms: C_25  and  C_27 
REMARK   22  A    between atoms: C_27  and  C_28 
REMARK   23  A    between atoms: C_28  and  C_29 
REMARK   24  A    between atoms: C_29  and  C_30 
REMARK   25  A    between atoms: C_30  and  C_31 
REMARK   26  A    between atoms: C_31  and  C_32 
ROOT
HETATM    1  C   UNL     1     -20.551  -8.175  -4.797  1.00  0.00     0.180 C 
ENDROOT
BRANCH   1   2
HETATM    2  C   UNL     1     -21.475  -8.408  -3.591  1.00  0.00     0.213 C 
BRANCH   2   3
HETATM    3  O   UNL     1     -21.017  -7.685  -2.436  1.00  0.00    -0.319 OA
BRANCH   3   4
HETATM    4  C   UNL     1     -21.952  -6.884  -1.851  1.00  0.00     0.258 C 
HETATM    5  O   UNL     1     -22.366  -5.839  -2.321  1.00  0.00    -0.265 OA
BRANCH   4   6
HETATM    6  C   UNL     1     -22.389  -7.459  -0.528  1.00  0.00     0.111 C 
BRANCH   6   7
HETATM    7  C   UNL     1     -21.327  -8.382   0.061  1.00  0.00     0.010 C 
BRANCH   7   8
HETATM    8  C   UNL     1     -21.819  -9.825   0.180  1.00  0.00     0.000 C 
BRANCH   8   9
HETATM    9  C   UNL     1     -23.305  -9.924  -0.156  1.00  0.00     0.000 C 
BRANCH   9  10
HETATM   10  C   UNL     1     -23.780 -11.373  -0.101  1.00  0.00    -0.000 C 
BRANCH  10  11
HETATM   11  C   UNL     1     -22.695 -12.288   0.460  1.00  0.00    -0.005 C 
HETATM   12  C   UNL     1     -23.288 -13.331   1.391  1.00  0.00     0.005 C 
ENDBRANCH  10  11
ENDBRANCH   9  10
ENDBRANCH   8   9
ENDBRANCH   7   8
ENDBRANCH   6   7
ENDBRANCH   4   6
ENDBRANCH   3   4
ENDBRANCH   2   3
ENDBRANCH   1   2
BRANCH   1  13
HETATM   13  C   UNL     1     -19.926  -9.505  -5.242  1.00  0.00     0.213 C 
BRANCH  13  14
HETATM   14  O   UNL     1     -18.488  -9.459  -5.172  1.00  0.00    -0.319 OA
BRANCH  14  15
HETATM   15  C   UNL     1     -17.859 -10.452  -5.859  1.00  0.00     0.258 C 
HETATM   16  O   UNL     1     -18.274 -10.941  -6.904  1.00  0.00    -0.265 OA
BRANCH  15  17
HETATM   17  C   UNL     1     -16.591 -10.885  -5.157  1.00  0.00     0.111 C 
BRANCH  17  18
HETATM   18  C   UNL     1     -15.906  -9.703  -4.473  1.00  0.00     0.010 C 
BRANCH  18  19
HETATM   19  C   UNL     1     -16.089  -9.727  -2.953  1.00  0.00     0.000 C 
BRANCH  19  20
HETATM   20  C   UNL     1     -16.003 -11.151  -2.410  1.00  0.00     0.000 C 
BRANCH  20  21
HETATM   21  C   UNL     1     -17.185 -11.451  -1.492  1.00  0.00    -0.000 C 
BRANCH  21  22
HETATM   22  C   UNL     1     -18.414 -10.642  -1.893  1.00  0.00    -0.005 C 
HETATM   23  C   UNL     1     -19.581 -11.552  -2.230  1.00  0.00     0.005 C 
ENDBRANCH  21  22
ENDBRANCH  20  21
ENDBRANCH  19  20
ENDBRANCH  18  19
ENDBRANCH  17  18
ENDBRANCH  15  17
ENDBRANCH  14  15
ENDBRANCH  13  14
ENDBRANCH   1  13
BRANCH   1  24
HETATM   24  O   UNL     1     -21.365  -7.629  -5.862  1.00  0.00    -0.312 OA
BRANCH  24  25
HETATM   25  C   UNL     1     -21.568  -6.280  -5.791  1.00  0.00     0.259 C 
HETATM   26  O   UNL     1     -22.650  -5.726  -5.654  1.00  0.00    -0.265 OA
BRANCH  25  27
HETATM   27  C   UNL     1     -20.281  -5.528  -6.013  1.00  0.00     0.111 C 
BRANCH  27  28
HETATM   28  C   UNL     1     -19.813  -5.617  -7.456  1.00  0.00     0.010 C 
BRANCH  28  29
HETATM   29  C   UNL     1     -19.752  -4.241  -8.116  1.00  0.00     0.000 C 
BRANCH  29  30
HETATM   30  C   UNL     1     -20.763  -4.129  -9.253  1.00  0.00     0.000 C 
BRANCH  30  31
HETATM   31  C   UNL     1     -22.151  -3.808  -8.706  1.00  0.00    -0.000 C 
BRANCH  31  32
HETATM   32  C   UNL     1     -23.239  -4.491  -9.529  1.00  0.00    -0.005 C 
HETATM   33  C   UNL     1     -24.335  -3.506  -9.902  1.00  0.00     0.005 C 
ENDBRANCH  31  32
ENDBRANCH  30  31
ENDBRANCH  29  30
ENDBRANCH  28  29
ENDBRANCH  27  28
ENDBRANCH  25  27
ENDBRANCH  24  25
ENDBRANCH   1  24
TORSDOF 26
BEGIN_RES ARG D 557
REMARK  4 active torsions:
REMARK  status: ('A' for Active; 'I' for Inactive)
REMARK    1  A    between atoms: CA   and  CB  
REMARK    2  A    between atoms: CB   and  CG  
REMARK    3  A    between atoms: CG   and  CD  
REMARK    4  A    between atoms: CD   and  NE  
REMARK       I    between atoms: NE   and  CZ  
REMARK       I    between atoms: CZ   and  NH1 
REMARK       I    between atoms: CZ   and  NH2 
ROOT
ATOM      1  CA  ARG D 557     -26.217   2.705 -17.014  1.00 35.49     0.159 C 
ENDROOT
BRANCH   1   2
ATOM      2  CB  ARG D 557     -26.789   1.319 -17.183  1.00 35.49     0.034 C 
BRANCH   2   3
ATOM      3  CG  ARG D 557     -25.930   0.197 -16.786  1.00 35.49     0.027 C 
BRANCH   3   4
ATOM      4  CD  ARG D 557     -26.677  -0.856 -16.061  1.00 35.49     0.116 C 
BRANCH   4   5
ATOM      5  NE  ARG D 557     -25.912  -1.417 -14.979  1.00 35.49    -0.212 N 
ATOM      6  CZ  ARG D 557     -25.886  -2.685 -14.633  1.00 35.49     0.666 C 
ATOM      7  NH1 ARG D 557     -26.597  -3.605 -15.257  1.00 35.49    -0.235 N 
ATOM      8  NH2 ARG D 557     -25.117  -3.020 -13.638  1.00 35.49    -0.235 N 
ATOM      9  HH  ARG D 557     -27.108  -3.408 -15.916  1.00 35.49     0.174 HD
ATOM     10  HH  ARG D 557     -26.537  -4.417 -14.989  1.00 35.49     0.174 HD
ATOM     11  HH  ARG D 557     -24.663  -2.405 -13.258  1.00 35.49     0.174 HD
ATOM     12  HH  ARG D 557     -25.070  -3.829 -13.388  1.00 35.49     0.174 HD
ATOM     13  HE  ARG D 557     -25.480  -0.884 -14.477  1.00 35.49     0.178 HD
ENDBRANCH   4   5
ENDBRANCH   3   4
ENDBRANCH   2   3
ENDBRANCH   1   2
END_RES ARG D 557
BEGIN_RES GLU D 570
REMARK  3 active torsions:
REMARK  status: ('A' for Active; 'I' for Inactive)
REMARK    5  A    between atoms: CA   and  CB  
REMARK    6  A    between atoms: CB   and  CG  
REMARK    7  A    between atoms: CG   and  CD  
ROOT
ATOM     14  CA  GLU D 570     -18.033  -6.348 -13.375  1.00 32.92     0.160 C 
ENDROOT
BRANCH  14  15
ATOM     15  CB  GLU D 570     -19.500  -6.345 -13.794  1.00 32.92     0.043 C 
BRANCH  15  16
ATOM     16  CG  GLU D 570     -20.453  -5.587 -12.943  1.00 32.92     0.100 C 
BRANCH  16  17
ATOM     17  CD  GLU D 570     -21.699  -5.164 -13.686  1.00 32.92     0.185 C 
ATOM     18  OE1 GLU D 570     -22.654  -4.686 -13.045  1.00 32.92    -0.647 OA
ATOM     19  OE2 GLU D 570     -21.726  -5.328 -14.922  1.00 32.92    -0.647 OA
ENDBRANCH  16  17
ENDBRANCH  15  16
ENDBRANCH  14  15
END_RES GLU D 570
ENDMDL
MODEL 3
REMARK VINA RESULT:      -6.6      8.928     15.916
REMARK  26 active torsions:
REMARK  status: ('A' for Active; 'I' for Inactive)
REMARK    1  A    between atoms: C_2  and  C_3 
REMARK    2  A    between atoms: C_3  and  C_4 
REMARK    3  A    between atoms: C_4  and  C_5 
REMARK    4  A    between atoms: C_5  and  C_6 
REMARK    5  A    between atoms: C_6  and  C_7 
REMARK    6  A    between atoms: C_7  and  C_8 
REMARK    7  A    between atoms: C_8  and  O_10 
REMARK    8  A    between atoms: O_10  and  C_11 
REMARK    9  A    between atoms: C_11  and  C_12 
REMARK   10  A    between atoms: C_12  and  C_13 
REMARK   11  A    between atoms: C_12  and  O_24 
REMARK   12  A    between atoms: C_13  and  O_14 
REMARK   13  A    between atoms: O_14  and  C_15 
REMARK   14  A    between atoms: C_15  and  C_17 
REMARK   15  A    between atoms: C_17  and  C_18 
REMARK   16  A    between atoms: C_18  and  C_19 
REMARK   17  A    between atoms: C_19  and  C_20 
REMARK   18  A    between atoms: C_20  and  C_21 
REMARK   19  A    between atoms: C_21  and  C_22 
REMARK   20  A    between atoms: O_24  and  C_25 
REMARK   21  A    between atoms: C_25  and  C_27 
REMARK   22  A    between atoms: C_27  and  C_28 
REMARK   23  A    between atoms: C_28  and  C_29 
REMARK   24  A    between atoms: C_29  and  C_30 
REMARK   25  A    between atoms: C_30  and  C_31 
REMARK   26  A    between atoms: C_31  and  C_32 
ROOT
HETATM    1  C   UNL     1     -21.238  -7.669  -4.562  1.00  0.00     0.180 C 
ENDROOT
BRANCH   1   2
HETATM    2  C   UNL     1     -20.312  -7.114  -5.656  1.00  0.00     0.213 C 
BRANCH   2   3
HETATM    3  O   UNL     1     -21.056  -6.731  -6.825  1.00  0.00    -0.319 OA
BRANCH   3   4
HETATM    4  C   UNL     1     -21.291  -5.393  -6.945  1.00  0.00     0.258 C 
HETATM    5  O   UNL     1     -22.395  -4.879  -6.964  1.00  0.00    -0.265 OA
BRANCH   4   6
HETATM    6  C   UNL     1     -19.993  -4.638  -7.074  1.00  0.00     0.111 C 
BRANCH   6   7
HETATM    7  C   UNL     1     -19.931  -3.845  -8.375  1.00  0.00     0.010 C 
BRANCH   7   8
HETATM    8  C   UNL     1     -20.008  -4.750  -9.606  1.00  0.00     0.000 C 
BRANCH   8   9
HETATM    9  C   UNL     1     -20.791  -4.077 -10.729  1.00  0.00     0.000 C 
BRANCH   9  10
HETATM   10  C   UNL     1     -22.172  -3.644 -10.247  1.00  0.00    -0.000 C 
BRANCH  10  11
HETATM   11  C   UNL     1     -23.242  -4.650 -10.663  1.00  0.00    -0.005 C 
HETATM   12  C   UNL     1     -23.286  -4.807 -12.173  1.00  0.00     0.005 C 
ENDBRANCH  10  11
ENDBRANCH   9  10
ENDBRANCH   8   9
ENDBRANCH   7   8
ENDBRANCH   6   7
ENDBRANCH   4   6
ENDBRANCH   3   4
ENDBRANCH   2   3
ENDBRANCH   1   2
BRANCH   1  13
HETATM   13  C   UNL     1     -21.223  -9.204  -4.594  1.00  0.00     0.213 C 
BRANCH  13  14
HETATM   14  O   UNL     1     -19.877  -9.715  -4.654  1.00  0.00    -0.319 OA
BRANCH  14  15
HETATM   15  C   UNL     1     -19.487 -10.402  -3.546  1.00  0.00     0.258 C 
HETATM   16  O   UNL     1     -20.196 -10.591  -2.563  1.00  0.00    -0.265 OA
BRANCH  15  17
HETATM   17  C   UNL     1     -18.060 -10.886  -3.676  1.00  0.00     0.111 C 
BRANCH  17  18
HETATM   18  C   UNL     1     -17.066  -9.780  -3.325  1.00  0.00     0.010 C 
BRANCH  18  19
HETATM   19  C   UNL     1     -15.926  -9.683  -4.342  1.00  0.00     0.000 C 
BRANCH  19  20
HETATM   20  C   UNL     1     -16.348 -10.237  -5.699  1.00  0.00     0.000 C 
BRANCH  20  21
HETATM   21  C   UNL     1     -15.296 -11.202  -6.240  1.00  0.00    -0.000 C 
BRANCH  21  22
HETATM   22  C   UNL     1     -15.028 -12.334  -5.254  1.00  0.00    -0.005 C 
HETATM   23  C   UNL     1     -13.550 -12.426  -4.917  1.00  0.00     0.005 C 
ENDBRANCH  21  22
ENDBRANCH  20  21
ENDBRANCH  19  20
ENDBRANCH  18  19
ENDBRANCH  17  18
ENDBRANCH  15  17
ENDBRANCH  14  15
ENDBRANCH  13  14
ENDBRANCH   1  13
BRANCH   1  24
HETATM   24  O   UNL     1     -20.733  -7.195  -3.291  1.00  0.00    -0.312 OA
BRANCH  24  25
HETATM   25  C   UNL     1     -21.697  -6.866  -2.381  1.00  0.00     0.259 C 
HETATM   26  O   UNL     1     -22.497  -5.946  -2.487  1.00  0.00    -0.265 OA
BRANCH  25  27
HETATM   27  C   UNL     1     -21.591  -7.726  -1.148  1.00  0.00     0.111 C 
BRANCH  27  28
HETATM   28  C   UNL     1     -22.593  -7.316  -0.082  1.00  0.00     0.010 C 
BRANCH  28  29
HETATM   29  C   UNL     1     -23.339  -8.521   0.486  1.00  0.00     0.000 C 
BRANCH  29  30
HETATM   30  C   UNL     1     -22.850  -9.820  -0.148  1.00  0.00     0.000 C 
BRANCH  30  31
HETATM   31  C   UNL     1     -23.982 -10.840  -0.220  1.00  0.00    -0.000 C 
BRANCH  31  32
HETATM   32  C   UNL     1     -23.551 -12.185   0.357  1.00  0.00    -0.005 C 
HETATM   33  C   UNL     1     -22.048 -12.224   0.576  1.00  0.00     0.005 C 
ENDBRANCH  31  32
ENDBRANCH  30  31
ENDBRANCH  29  30
ENDBRANCH  28  29
ENDBRANCH  27  28
ENDBRANCH  25  27
ENDBRANCH  24  25
ENDBRANCH   1  24
TORSDOF 26
BEGIN_RES ARG D 557
REMARK  4 active torsions:
REMARK  status: ('A' for Active; 'I' for Inactive)
REMARK    1  A    between atoms: CA   and  CB  
REMARK    2  A    between atoms: CB   and  CG  
REMARK    3  A    between atoms: CG   and  CD  
REMARK    4  A    between atoms: CD   and  NE  
REMARK       I    between atoms: NE   and  CZ  
REMARK       I    between atoms: CZ   and  NH1 
REMARK       I    between atoms: CZ   and  NH2 
ROOT
ATOM      1  CA  ARG D 557     -26.217   2.705 -17.014  1.00 35.49     0.159 C 
ENDROOT
BRANCH   1   2
ATOM      2  CB  ARG D 557     -26.789   1.319 -17.183  1.00 35.49     0.034 C 
BRANCH   2   3
ATOM      3  CG  ARG D 557     -28.233   1.226 -17.429  1.00 35.49     0.027 C 
BRANCH   3   4
ATOM      4  CD  ARG D 557     -28.907   0.300 -16.489  1.00 35.49     0.116 C 
BRANCH   4   5
ATOM      5  NE  ARG D 557     -29.317  -0.921 -17.131  1.00 35.49    -0.212 N 
ATOM      6  CZ  ARG D 557     -28.700  -2.078 -17.047  1.00 35.49     0.666 C 
ATOM      7  NH1 ARG D 557     -27.591  -2.241 -16.349  1.00 35.49    -0.235 N 
ATOM      8  NH2 ARG D 557     -29.227  -3.086 -17.679  1.00 35.49    -0.235 N 
ATOM      9  HH  ARG D 557     -27.229  -1.591 -15.924  1.00 35.49     0.174 HD
ATOM     10  HH  ARG D 557     -27.234  -3.020 -16.328  1.00 35.49     0.174 HD
ATOM     11  HH  ARG D 557     -29.947  -2.953 -18.115  1.00 35.49     0.174 HD
ATOM     12  HH  ARG D 557     -28.859  -3.850 -17.645  1.00 35.49     0.174 HD
ATOM     13  HE  ARG D 557     -29.983  -0.890 -17.660  1.00 35.49     0.178 HD
ENDBRANCH   4   5
ENDBRANCH   3   4
ENDBRANCH   2   3
ENDBRANCH   1   2
END_RES ARG D 557
BEGIN_RES GLU D 570
REMARK  3 active torsions:
REMARK  status: ('A' for Active; 'I' for Inactive)
REMARK    5  A    between atoms: CA   and  CB  
REMARK    6  A    between atoms: CB   and  CG  
REMARK    7  A    between atoms: CG   and  CD  
ROOT
ATOM     14  CA  GLU D 570     -18.033  -6.348 -13.375  1.00 32.92     0.160 C 
ENDROOT
BRANCH  14  15
ATOM     15  CB  GLU D 570     -19.500  -6.345 -13.794  1.00 32.92     0.043 C 
BRANCH  15  16
ATOM     16  CG  GLU D 570     -19.806  -6.022 -15.212  1.00 32.92     0.100 C 
BRANCH  16  17
ATOM     17  CD  GLU D 570     -21.279  -5.792 -15.459  1.00 32.92     0.185 C 
ATOM     18  OE1 GLU D 570     -22.100  -6.637 -15.053  1.00 32.92    -0.647 OA
ATOM     19  OE2 GLU D 570     -21.614  -4.764 -16.079  1.00 32.92    -0.647 OA
ENDBRANCH  16  17
ENDBRANCH  15  16
ENDBRANCH  14  15
END_RES GLU D 570
ENDMDL
MODEL 4
REMARK VINA RESULT:      -6.6      9.776     16.026
REMARK  26 active torsions:
REMARK  status: ('A' for Active; 'I' for Inactive)
REMARK    1  A    between atoms: C_2  and  C_3 
REMARK    2  A    between atoms: C_3  and  C_4 
REMARK    3  A    between atoms: C_4  and  C_5 
REMARK    4  A    between atoms: C_5  and  C_6 
REMARK    5  A    between atoms: C_6  and  C_7 
REMARK    6  A    between atoms: C_7  and  C_8 
REMARK    7  A    between atoms: C_8  and  O_10 
REMARK    8  A    between atoms: O_10  and  C_11 
REMARK    9  A    between atoms: C_11  and  C_12 
REMARK   10  A    between atoms: C_12  and  C_13 
REMARK   11  A    between atoms: C_12  and  O_24 
REMARK   12  A    between atoms: C_13  and  O_14 
REMARK   13  A    between atoms: O_14  and  C_15 
REMARK   14  A    between atoms: C_15  and  C_17 
REMARK   15  A    between atoms: C_17  and  C_18 
REMARK   16  A    between atoms: C_18  and  C_19 
REMARK   17  A    between atoms: C_19  and  C_20 
REMARK   18  A    between atoms: C_20  and  C_21 
REMARK   19  A    between atoms: C_21  and  C_22 
REMARK   20  A    between atoms: O_24  and  C_25 
REMARK   21  A    between atoms: C_25  and  C_27 
REMARK   22  A    between atoms: C_27  and  C_28 
REMARK   23  A    between atoms: C_28  and  C_29 
REMARK   24  A    between atoms: C_29  and  C_30 
REMARK   25  A    between atoms: C_30  and  C_31 
REMARK   26  A    between atoms: C_31  and  C_32 
ROOT
HETATM    1  C   UNL     1     -20.672  -7.917  -3.722  1.00  0.00     0.180 C 
ENDROOT
BRANCH   1   2
HETATM    2  C   UNL     1     -19.663  -9.056  -3.503  1.00  0.00     0.213 C 
BRANCH   2   3
HETATM    3  O   UNL     1     -18.770  -9.184  -4.623  1.00  0.00    -0.319 OA
BRANCH   3   4
HETATM    4  C   UNL     1     -17.539  -9.684  -4.321  1.00  0.00     0.258 C 
HETATM    5  O   UNL     1     -16.753 -10.138  -5.135  1.00  0.00    -0.265 OA
BRANCH   4   6
HETATM    6  C   UNL     1     -17.289  -9.619  -2.837  1.00  0.00     0.111 C 
BRANCH   6   7
HETATM    7  C   UNL     1     -15.877 -10.073  -2.484  1.00  0.00     0.010 C 
BRANCH   7   8
HETATM    8  C   UNL     1     -15.871 -11.391  -1.709  1.00  0.00     0.000 C 
BRANCH   8   9
HETATM    9  C   UNL     1     -17.265 -11.721  -1.184  1.00  0.00     0.000 C 
BRANCH   9  10
HETATM   10  C   UNL     1     -17.238 -11.960   0.323  1.00  0.00    -0.000 C 
BRANCH  10  11
HETATM   11  C   UNL     1     -15.806 -12.104   0.832  1.00  0.00    -0.005 C 
HETATM   12  C   UNL     1     -15.736 -13.069   2.002  1.00  0.00     0.005 C 
ENDBRANCH  10  11
ENDBRANCH   9  10
ENDBRANCH   8   9
ENDBRANCH   7   8
ENDBRANCH   6   7
ENDBRANCH   4   6
ENDBRANCH   3   4
ENDBRANCH   2   3
ENDBRANCH   1   2
BRANCH   1  13
HETATM   13  C   UNL     1     -21.213  -7.967  -5.159  1.00  0.00     0.213 C 
BRANCH  13  14
HETATM   14  O   UNL     1     -20.796  -6.814  -5.917  1.00  0.00    -0.319 OA
BRANCH  14  15
HETATM   15  C   UNL     1     -21.655  -5.759  -5.853  1.00  0.00     0.258 C 
HETATM   16  O   UNL     1     -22.830  -5.844  -5.511  1.00  0.00    -0.265 OA
BRANCH  15  17
HETATM   17  C   UNL     1     -20.977  -4.476  -6.276  1.00  0.00     0.111 C 
BRANCH  17  18
HETATM   18  C   UNL     1     -19.589  -4.747  -6.854  1.00  0.00     0.010 C 
BRANCH  18  19
HETATM   19  C   UNL     1     -19.412  -4.132  -8.245  1.00  0.00     0.000 C 
BRANCH  19  20
HETATM   20  C   UNL     1     -20.398  -4.730  -9.244  1.00  0.00     0.000 C 
BRANCH  20  21
HETATM   21  C   UNL     1     -20.372  -3.957 -10.560  1.00  0.00    -0.000 C 
BRANCH  21  22
HETATM   22  C   UNL     1     -21.762  -3.452 -10.931  1.00  0.00    -0.005 C 
HETATM   23  C   UNL     1     -22.780  -3.823  -9.867  1.00  0.00     0.005 C 
ENDBRANCH  21  22
ENDBRANCH  20  21
ENDBRANCH  19  20
ENDBRANCH  18  19
ENDBRANCH  17  18
ENDBRANCH  15  17
ENDBRANCH  14  15
ENDBRANCH  13  14
ENDBRANCH   1  13
BRANCH   1  24
HETATM   24  O   UNL     1     -21.752  -8.113  -2.779  1.00  0.00    -0.312 OA
BRANCH  24  25
HETATM   25  C   UNL     1     -22.014  -7.036  -1.980  1.00  0.00     0.259 C 
HETATM   26  O   UNL     1     -22.045  -5.868  -2.342  1.00  0.00    -0.265 OA
BRANCH  25  27
HETATM   27  C   UNL     1     -22.163  -7.457  -0.540  1.00  0.00     0.111 C 
BRANCH  27  28
HETATM   28  C   UNL     1     -20.993  -8.307  -0.074  1.00  0.00     0.010 C 
BRANCH  28  29
HETATM   29  C   UNL     1     -21.448  -9.433   0.853  1.00  0.00     0.000 C 
BRANCH  29  30
HETATM   30  C   UNL     1     -21.056 -10.798   0.294  1.00  0.00     0.000 C 
BRANCH  30  31
HETATM   31  C   UNL     1     -22.225 -11.773   0.393  1.00  0.00    -0.000 C 
BRANCH  31  32
HETATM   32  C   UNL     1     -23.533 -11.109  -0.026  1.00  0.00    -0.005 C 
HETATM   33  C   UNL     1     -23.733 -11.204  -1.529  1.00  0.00     0.005 C 
ENDBRANCH  31  32
ENDBRANCH  30  31
ENDBRANCH  29  30
ENDBRANCH  28  29
ENDBRANCH  27  28
ENDBRANCH  25  27
ENDBRANCH  24  25
ENDBRANCH   1  24
TORSDOF 26
BEGIN_RES ARG D 557
REMARK  4 active torsions:
REMARK  status: ('A' for Active; 'I' for Inactive)
REMARK    1  A    between atoms: CA   and  CB  
REMARK    2  A    between atoms: CB   and  CG  
REMARK    3  A    between atoms: CG   and  CD  
REMARK    4  A    between atoms: CD   and  NE  
REMARK       I    between atoms: NE   and  CZ  
REMARK       I    between atoms: CZ   and  NH1 
REMARK       I    between atoms: CZ   and  NH2 
ROOT
ATOM      1  CA  ARG D 557     -26.217   2.705 -17.014  1.00 35.49     0.159 C 
ENDROOT
BRANCH   1   2
ATOM      2  CB  ARG D 557     -26.789   1.319 -17.183  1.00 35.49     0.034 C 
BRANCH   2   3
ATOM      3  CG  ARG D 557     -28.234   1.170 -16.969  1.00 35.49     0.027 C 
BRANCH   3   4
ATOM      4  CD  ARG D 557     -28.626  -0.238 -16.729  1.00 35.49     0.116 C 
BRANCH   4   5
ATOM      5  NE  ARG D 557     -27.605  -0.974 -16.030  1.00 35.49    -0.212 N 
ATOM      6  CZ  ARG D 557     -27.418  -2.273 -16.089  1.00 35.49     0.666 C 
ATOM      7  NH1 ARG D 557     -28.186  -3.068 -16.812  1.00 35.49    -0.235 N 
ATOM      8  NH2 ARG D 557     -26.429  -2.769 -15.405  1.00 35.49    -0.235 N 
ATOM      9  HH  ARG D 557     -28.841  -2.763 -17.272  1.00 35.49     0.174 HD
ATOM     10  HH  ARG D 557     -28.014  -3.907 -16.815  1.00 35.49     0.174 HD
ATOM     11  HH  ARG D 557     -25.945  -2.231 -14.953  1.00 35.49     0.174 HD
ATOM     12  HH  ARG D 557     -26.275  -3.603 -15.421  1.00 35.49     0.174 HD
ATOM     13  HE  ARG D 557     -27.111  -0.550 -15.483  1.00 35.49     0.178 HD
ENDBRANCH   4   5
ENDBRANCH   3   4
ENDBRANCH   2   3
ENDBRANCH   1   2
END_RES ARG D 557
BEGIN_RES GLU D 570
REMARK  3 active torsions:
REMARK  status: ('A' for Active; 'I' for Inactive)
REMARK    5  A    between atoms: CA   and  CB  
REMARK    6  A    between atoms: CB   and  CG  
REMARK    7  A    between atoms: CG   and  CD  
ROOT
ATOM     14  CA  GLU D 570     -18.033  -6.348 -13.375  1.00 32.92     0.160 C 
ENDROOT
BRANCH  14  15
ATOM     15  CB  GLU D 570     -19.500  -6.345 -13.794  1.00 32.92     0.043 C 
BRANCH  15  16
ATOM     16  CG  GLU D 570     -19.807  -6.011 -15.209  1.00 32.92     0.100 C 
BRANCH  16  17
ATOM     17  CD  GLU D 570     -21.278  -5.764 -15.450  1.00 32.92     0.185 C 
ATOM     18  OE1 GLU D 570     -21.637  -4.676 -15.940  1.00 32.92    -0.647 OA
ATOM     19  OE2 GLU D 570     -22.082  -6.662 -15.130  1.00 32.92    -0.647 OA
ENDBRANCH  16  17
ENDBRANCH  15  16
ENDBRANCH  14  15
END_RES GLU D 570
ENDMDL
MODEL 5
REMARK VINA RESULT:      -6.6     10.000     16.498
REMARK  26 active torsions:
REMARK  status: ('A' for Active; 'I' for Inactive)
REMARK    1  A    between atoms: C_2  and  C_3 
REMARK    2  A    between atoms: C_3  and  C_4 
REMARK    3  A    between atoms: C_4  and  C_5 
REMARK    4  A    between atoms: C_5  and  C_6 
REMARK    5  A    between atoms: C_6  and  C_7 
REMARK    6  A    between atoms: C_7  and  C_8 
REMARK    7  A    between atoms: C_8  and  O_10 
REMARK    8  A    between atoms: O_10  and  C_11 
REMARK    9  A    between atoms: C_11  and  C_12 
REMARK   10  A    between atoms: C_12  and  C_13 
REMARK   11  A    between atoms: C_12  and  O_24 
REMARK   12  A    between atoms: C_13  and  O_14 
REMARK   13  A    between atoms: O_14  and  C_15 
REMARK   14  A    between atoms: C_15  and  C_17 
REMARK   15  A    between atoms: C_17  and  C_18 
REMARK   16  A    between atoms: C_18  and  C_19 
REMARK   17  A    between atoms: C_19  and  C_20 
REMARK   18  A    between atoms: C_20  and  C_21 
REMARK   19  A    between atoms: C_21  and  C_22 
REMARK   20  A    between atoms: O_24  and  C_25 
REMARK   21  A    between atoms: C_25  and  C_27 
REMARK   22  A    between atoms: C_27  and  C_28 
REMARK   23  A    between atoms: C_28  and  C_29 
REMARK   24  A    between atoms: C_29  and  C_30 
REMARK   25  A    between atoms: C_30  and  C_31 
REMARK   26  A    between atoms: C_31  and  C_32 
ROOT
HETATM    1  C   UNL     1     -20.347  -8.290  -4.339  1.00  0.00     0.180 C 
ENDROOT
BRANCH   1   2
HETATM    2  C   UNL     1     -21.357  -9.272  -4.954  1.00  0.00     0.213 C 
BRANCH   2   3
HETATM    3  O   UNL     1     -22.021 -10.041  -3.937  1.00  0.00    -0.319 OA
BRANCH   3   4
HETATM    4  C   UNL     1     -22.173 -11.365  -4.225  1.00  0.00     0.258 C 
HETATM    5  O   UNL     1     -21.927 -11.876  -5.303  1.00  0.00    -0.265 OA
BRANCH   4   6
HETATM    6  C   UNL     1     -22.708 -12.109  -3.029  1.00  0.00     0.111 C 
BRANCH   6   7
HETATM    7  C   UNL     1     -23.268 -11.155  -1.979  1.00  0.00     0.010 C 
BRANCH   7   8
HETATM    8  C   UNL     1     -24.183 -11.868  -0.982  1.00  0.00     0.000 C 
BRANCH   8   9
HETATM    9  C   UNL     1     -23.630 -11.765   0.436  1.00  0.00     0.000 C 
BRANCH   9  10
HETATM   10  C   UNL     1     -23.555 -13.140   1.094  1.00  0.00    -0.000 C 
BRANCH  10  11
HETATM   11  C   UNL     1     -22.108 -13.544   1.362  1.00  0.00    -0.005 C 
HETATM   12  C   UNL     1     -21.530 -14.316   0.190  1.00  0.00     0.005 C 
ENDBRANCH  10  11
ENDBRANCH   9  10
ENDBRANCH   8   9
ENDBRANCH   7   8
ENDBRANCH   6   7
ENDBRANCH   4   6
ENDBRANCH   3   4
ENDBRANCH   2   3
ENDBRANCH   1   2
BRANCH   1  13
HETATM   13  C   UNL     1     -18.989  -8.985  -4.154  1.00  0.00     0.213 C 
BRANCH  13  14
HETATM   14  O   UNL     1     -18.630  -9.070  -2.761  1.00  0.00    -0.319 OA
BRANCH  14  15
HETATM   15  C   UNL     1     -18.329 -10.327  -2.334  1.00  0.00     0.258 C 
HETATM   16  O   UNL     1     -17.222 -10.845  -2.433  1.00  0.00    -0.265 OA
BRANCH  15  17
HETATM   17  C   UNL     1     -19.542 -11.007  -1.738  1.00  0.00     0.111 C 
BRANCH  17  18
HETATM   18  C   UNL     1     -19.308 -11.371  -0.273  1.00  0.00     0.010 C 
BRANCH  18  19
HETATM   19  C   UNL     1     -20.250 -10.616   0.668  1.00  0.00     0.000 C 
BRANCH  19  20
HETATM   20  C   UNL     1     -20.905  -9.432  -0.039  1.00  0.00     0.000 C 
BRANCH  20  21
HETATM   21  C   UNL     1     -21.651  -8.551   0.960  1.00  0.00    -0.000 C 
BRANCH  21  22
HETATM   22  C   UNL     1     -22.826  -7.840   0.297  1.00  0.00    -0.005 C 
HETATM   23  C   UNL     1     -22.366  -7.020  -0.895  1.00  0.00     0.005 C 
ENDBRANCH  21  22
ENDBRANCH  20  21
ENDBRANCH  19  20
ENDBRANCH  18  19
ENDBRANCH  17  18
ENDBRANCH  15  17
ENDBRANCH  14  15
ENDBRANCH  13  14
ENDBRANCH   1  13
BRANCH   1  24
HETATM   24  O   UNL     1     -20.213  -7.180  -5.258  1.00  0.00    -0.312 OA
BRANCH  24  25
HETATM   25  C   UNL     1     -20.878  -6.046  -4.884  1.00  0.00     0.259 C 
HETATM   26  O   UNL     1     -21.942  -6.007  -4.283  1.00  0.00    -0.265 OA
BRANCH  25  27
HETATM   27  C   UNL     1     -20.181  -4.815  -5.405  1.00  0.00     0.111 C 
BRANCH  27  28
HETATM   28  C   UNL     1     -20.812  -4.306  -6.690  1.00  0.00     0.010 C 
BRANCH  28  29
HETATM   29  C   UNL     1     -19.845  -4.398  -7.869  1.00  0.00     0.000 C 
BRANCH  29  30
HETATM   30  C   UNL     1     -20.581  -4.252  -9.197  1.00  0.00     0.000 C 
BRANCH  30  31
HETATM   31  C   UNL     1     -22.065  -3.989  -8.961  1.00  0.00    -0.000 C 
BRANCH  31  32
HETATM   32  C   UNL     1     -22.809  -3.804 -10.280  1.00  0.00    -0.005 C 
HETATM   33  C   UNL     1     -23.746  -4.970 -10.544  1.00  0.00     0.005 C 
ENDBRANCH  31  32
ENDBRANCH  30  31
ENDBRANCH  29  30
ENDBRANCH  28  29
ENDBRANCH  27  28
ENDBRANCH  25  27
ENDBRANCH  24  25
ENDBRANCH   1  24
TORSDOF 26
BEGIN_RES ARG D 557
REMARK  4 active torsions:
REMARK  status: ('A' for Active; 'I' for Inactive)
REMARK    1  A    between atoms: CA   and  CB  
REMARK    2  A    between atoms: CB   and  CG  
REMARK    3  A    between atoms: CG   and  CD  
REMARK    4  A    between atoms: CD   and  NE  
REMARK       I    between atoms: NE   and  CZ  
REMARK       I    between atoms: CZ   and  NH1 
REMARK       I    between atoms: CZ   and  NH2 
ROOT
ATOM      1  CA  ARG D 557     -26.217   2.705 -17.014  1.00 35.49     0.159 C 
ENDROOT
BRANCH   1   2
ATOM      2  CB  ARG D 557     -26.789   1.319 -17.183  1.00 35.49     0.034 C 
BRANCH   2   3
ATOM      3  CG  ARG D 557     -28.236   1.225 -17.411  1.00 35.49     0.027 C 
BRANCH   3   4
ATOM      4  CD  ARG D 557     -28.894   0.280 -16.480  1.00 35.49     0.116 C 
BRANCH   4   5
ATOM      5  NE  ARG D 557     -29.312  -0.929 -17.140  1.00 35.49    -0.212 N 
ATOM      6  CZ  ARG D 557     -28.713  -2.096 -17.058  1.00 35.49     0.666 C 
ATOM      7  NH1 ARG D 557     -27.617  -2.281 -16.346  1.00 35.49    -0.235 N 
ATOM      8  NH2 ARG D 557     -29.244  -3.091 -17.707  1.00 35.49    -0.235 N 
ATOM      9  HH  ARG D 557     -27.251  -1.641 -15.909  1.00 35.49     0.174 HD
ATOM     10  HH  ARG D 557     -27.271  -3.065 -16.327  1.00 35.49     0.174 HD
ATOM     11  HH  ARG D 557     -29.956  -2.943 -18.153  1.00 35.49     0.174 HD
ATOM     12  HH  ARG D 557     -28.888  -3.860 -17.675  1.00 35.49     0.174 HD
ATOM     13  HE  ARG D 557     -29.969  -0.883 -17.678  1.00 35.49     0.178 HD
ENDBRANCH   4   5
ENDBRANCH   3   4
ENDBRANCH   2   3
ENDBRANCH   1   2
END_RES ARG D 557
BEGIN_RES GLU D 570
REMARK  3 active torsions:
REMARK  status: ('A' for Active; 'I' for Inactive)
REMARK    5  A    between atoms: CA   and  CB  
REMARK    6  A    between atoms: CB   and  CG  
REMARK    7  A    between atoms: CG   and  CD  
ROOT
ATOM     14  CA  GLU D 570     -18.033  -6.348 -13.375  1.00 32.92     0.160 C 
ENDROOT
BRANCH  14  15
ATOM     15  CB  GLU D 570     -19.500  -6.345 -13.794  1.00 32.92     0.043 C 
BRANCH  15  16
ATOM     16  CG  GLU D 570     -20.438  -5.514 -12.996  1.00 32.92     0.100 C 
BRANCH  16  17
ATOM     17  CD  GLU D 570     -21.734  -5.229 -13.719  1.00 32.92     0.185 C 
ATOM     18  OE1 GLU D 570     -22.198  -4.073 -13.696  1.00 32.92    -0.647 OA
ATOM     19  OE2 GLU D 570     -22.299  -6.176 -14.301  1.00 32.92    -0.647 OA
ENDBRANCH  16  17
ENDBRANCH  15  16
ENDBRANCH  14  15
END_RES GLU D 570
ENDMDL
MODEL 6
REMARK VINA RESULT:      -6.6      9.101     15.713
REMARK  26 active torsions:
REMARK  status: ('A' for Active; 'I' for Inactive)
REMARK    1  A    between atoms: C_2  and  C_3 
REMARK    2  A    between atoms: C_3  and  C_4 
REMARK    3  A    between atoms: C_4  and  C_5 
REMARK    4  A    between atoms: C_5  and  C_6 
REMARK    5  A    between atoms: C_6  and  C_7 
REMARK    6  A    between atoms: C_7  and  C_8 
REMARK    7  A    between atoms: C_8  and  O_10 
REMARK    8  A    between atoms: O_10  and  C_11 
REMARK    9  A    between atoms: C_11  and  C_12 
REMARK   10  A    between atoms: C_12  and  C_13 
REMARK   11  A    between atoms: C_12  and  O_24 
REMARK   12  A    between atoms: C_13  and  O_14 
REMARK   13  A    between atoms: O_14  and  C_15 
REMARK   14  A    between atoms: C_15  and  C_17 
REMARK   15  A    between atoms: C_17  and  C_18 
REMARK   16  A    between atoms: C_18  and  C_19 
REMARK   17  A    between atoms: C_19  and  C_20 
REMARK   18  A    between atoms: C_20  and  C_21 
REMARK   19  A    between atoms: C_21  and  C_22 
REMARK   20  A    between atoms: O_24  and  C_25 
REMARK   21  A    between atoms: C_25  and  C_27 
REMARK   22  A    between atoms: C_27  and  C_28 
REMARK   23  A    between atoms: C_28  and  C_29 
REMARK   24  A    between atoms: C_29  and  C_30 
REMARK   25  A    between atoms: C_30  and  C_31 
REMARK   26  A    between atoms: C_31  and  C_32 
ROOT
HETATM    1  C   UNL     1     -21.458  -6.833  -3.973  1.00  0.00     0.180 C 
ENDROOT
BRANCH   1   2
HETATM    2  C   UNL     1     -21.727  -6.012  -5.245  1.00  0.00     0.213 C 
BRANCH   2   3
HETATM    3  O   UNL     1     -20.589  -5.207  -5.596  1.00  0.00    -0.319 OA
BRANCH   3   4
HETATM    4  C   UNL     1     -19.986  -5.545  -6.771  1.00  0.00     0.258 C 
HETATM    5  O   UNL     1     -19.650  -6.675  -7.081  1.00  0.00    -0.265 OA
BRANCH   4   6
HETATM    6  C   UNL     1     -19.770  -4.324  -7.626  1.00  0.00     0.111 C 
BRANCH   6   7
HETATM    7  C   UNL     1     -20.900  -4.137  -8.633  1.00  0.00     0.010 C 
BRANCH   7   8
HETATM    8  C   UNL     1     -20.426  -4.329 -10.074  1.00  0.00     0.000 C 
BRANCH   8   9
HETATM    9  C   UNL     1     -21.294  -3.533 -11.044  1.00  0.00     0.000 C 
BRANCH   9  10
HETATM   10  C   UNL     1     -22.098  -4.466 -11.947  1.00  0.00    -0.000 C 
BRANCH  10  11
HETATM   11  C   UNL     1     -23.520  -4.648 -11.424  1.00  0.00    -0.005 C 
HETATM   12  C   UNL     1     -24.057  -3.355 -10.837  1.00  0.00     0.005 C 
ENDBRANCH  10  11
ENDBRANCH   9  10
ENDBRANCH   8   9
ENDBRANCH   7   8
ENDBRANCH   6   7
ENDBRANCH   4   6
ENDBRANCH   3   4
ENDBRANCH   2   3
ENDBRANCH   1   2
BRANCH   1  13
HETATM   13  C   UNL     1     -22.315  -6.298  -2.816  1.00  0.00     0.213 C 
BRANCH  13  14
HETATM   14  O   UNL     1     -21.612  -6.382  -1.560  1.00  0.00    -0.319 OA
BRANCH  14  15
HETATM   15  C   UNL     1     -22.126  -7.292  -0.688  1.00  0.00     0.258 C 
HETATM   16  O   UNL     1     -23.267  -7.253  -0.240  1.00  0.00    -0.265 OA
BRANCH  15  17
HETATM   17  C   UNL     1     -21.102  -8.346  -0.331  1.00  0.00     0.111 C 
BRANCH  17  18
HETATM   18  C   UNL     1     -21.159  -8.691   1.156  1.00  0.00     0.010 C 
BRANCH  18  19
HETATM   19  C   UNL     1     -20.500 -10.039   1.463  1.00  0.00     0.000 C 
BRANCH  19  20
HETATM   20  C   UNL     1     -20.678 -11.016   0.304  1.00  0.00     0.000 C 
BRANCH  20  21
HETATM   21  C   UNL     1     -21.862 -11.945   0.557  1.00  0.00    -0.000 C 
BRANCH  21  22
HETATM   22  C   UNL     1     -22.926 -11.790  -0.525  1.00  0.00    -0.005 C 
HETATM   23  C   UNL     1     -24.026 -10.844  -0.078  1.00  0.00     0.005 C 
ENDBRANCH  21  22
ENDBRANCH  20  21
ENDBRANCH  19  20
ENDBRANCH  18  19
ENDBRANCH  17  18
ENDBRANCH  15  17
ENDBRANCH  14  15
ENDBRANCH  13  14
ENDBRANCH   1  13
BRANCH   1  24
HETATM   24  O   UNL     1     -21.818  -8.204  -4.263  1.00  0.00    -0.312 OA
BRANCH  24  25
HETATM   25  C   UNL     1     -20.835  -8.936  -4.868  1.00  0.00     0.259 C 
HETATM   26  O   UNL     1     -20.996  -9.725  -5.788  1.00  0.00    -0.265 OA
BRANCH  25  27
HETATM   27  C   UNL     1     -19.510  -8.732  -4.180  1.00  0.00     0.111 C 
BRANCH  27  28
HETATM   28  C   UNL     1     -19.234  -9.812  -3.148  1.00  0.00     0.010 C 
BRANCH  28  29
HETATM   29  C   UNL     1     -17.812  -9.718  -2.597  1.00  0.00     0.000 C 
BRANCH  29  30
HETATM   30  C   UNL     1     -17.041 -11.011  -2.840  1.00  0.00     0.000 C 
BRANCH  30  31
HETATM   31  C   UNL     1     -15.702 -10.718  -3.511  1.00  0.00    -0.000 C 
BRANCH  31  32
HETATM   32  C   UNL     1     -15.894  -9.946  -4.813  1.00  0.00    -0.005 C 
HETATM   33  C   UNL     1     -15.673 -10.847  -6.016  1.00  0.00     0.005 C 
ENDBRANCH  31  32
ENDBRANCH  30  31
ENDBRANCH  29  30
ENDBRANCH  28  29
ENDBRANCH  27  28
ENDBRANCH  25  27
ENDBRANCH  24  25
ENDBRANCH   1  24
TORSDOF 26
BEGIN_RES ARG D 557
REMARK  4 active torsions:
REMARK  status: ('A' for Active; 'I' for Inactive)
REMARK    1  A    between atoms: CA   and  CB  
REMARK    2  A    between atoms: CB   and  CG  
REMARK    3  A    between atoms: CG   and  CD  
REMARK    4  A    between atoms: CD   and  NE  
REMARK       I    between atoms: NE   and  CZ  
REMARK       I    between atoms: CZ   and  NH1 
REMARK       I    between atoms: CZ   and  NH2 
ROOT
ATOM      1  CA  ARG D 557     -26.217   2.705 -17.014  1.00 35.49     0.159 C 
ENDROOT
BRANCH   1   2
ATOM      2  CB  ARG D 557     -26.789   1.319 -17.183  1.00 35.49     0.034 C 
BRANCH   2   3
ATOM      3  CG  ARG D 557     -28.152   1.101 -16.683  1.00 35.49     0.027 C 
BRANCH   3   4
ATOM      4  CD  ARG D 557     -28.792  -0.089 -17.289  1.00 35.49     0.116 C 
BRANCH   4   5
ATOM      5  NE  ARG D 557     -28.175  -1.315 -16.856  1.00 35.49    -0.212 N 
ATOM      6  CZ  ARG D 557     -28.659  -2.524 -17.038  1.00 35.49     0.666 C 
ATOM      7  NH1 ARG D 557     -29.810  -2.743 -17.647  1.00 35.49    -0.235 N 
ATOM      8  NH2 ARG D 557     -27.954  -3.525 -16.597  1.00 35.49    -0.235 N 
ATOM      9  HH  ARG D 557     -30.289  -2.099 -17.947  1.00 35.49     0.174 HD
ATOM     10  HH  ARG D 557     -30.073  -3.553 -17.739  1.00 35.49     0.174 HD
ATOM     11  HH  ARG D 557     -27.211  -3.354 -16.215  1.00 35.49     0.174 HD
ATOM     12  HH  ARG D 557     -28.231  -4.320 -16.700  1.00 35.49     0.174 HD
ATOM     13  HE  ARG D 557     -27.466  -1.263 -16.391  1.00 35.49     0.178 HD
ENDBRANCH   4   5
ENDBRANCH   3   4
ENDBRANCH   2   3
ENDBRANCH   1   2
END_RES ARG D 557
BEGIN_RES GLU D 570
REMARK  3 active torsions:
REMARK  status: ('A' for Active; 'I' for Inactive)
REMARK    5  A    between atoms: CA   and  CB  
REMARK    6  A    between atoms: CB   and  CG  
REMARK    7  A    between atoms: CG   and  CD  
ROOT
ATOM     14  CA  GLU D 570     -18.033  -6.348 -13.375  1.00 32.92     0.160 C 
ENDROOT
BRANCH  14  15
ATOM     15  CB  GLU D 570     -19.500  -6.345 -13.794  1.00 32.92     0.043 C 
BRANCH  15  16
ATOM     16  CG  GLU D 570     -19.797  -6.239 -15.246  1.00 32.92     0.100 C 
BRANCH  16  17
ATOM     17  CD  GLU D 570     -20.811  -7.255 -15.716  1.00 32.92     0.185 C 
ATOM     18  OE1 GLU D 570     -20.612  -8.463 -15.481  1.00 32.92    -0.647 OA
ATOM     19  OE2 GLU D 570     -21.808  -6.841 -16.340  1.00 32.92    -0.647 OA
ENDBRANCH  16  17
ENDBRANCH  15  16
ENDBRANCH  14  15
END_RES GLU D 570
ENDMDL
MODEL 7
REMARK VINA RESULT:      -6.6      8.587     15.151
REMARK  26 active torsions:
REMARK  status: ('A' for Active; 'I' for Inactive)
REMARK    1  A    between atoms: C_2  and  C_3 
REMARK    2  A    between atoms: C_3  and  C_4 
REMARK    3  A    between atoms: C_4  and  C_5 
REMARK    4  A    between atoms: C_5  and  C_6 
REMARK    5  A    between atoms: C_6  and  C_7 
REMARK    6  A    between atoms: C_7  and  C_8 
REMARK    7  A    between atoms: C_8  and  O_10 
REMARK    8  A    between atoms: O_10  and  C_11 
REMARK    9  A    between atoms: C_11  and  C_12 
REMARK   10  A    between atoms: C_12  and  C_13 
REMARK   11  A    between atoms: C_12  and  O_24 
REMARK   12  A    between atoms: C_13  and  O_14 
REMARK   13  A    between atoms: O_14  and  C_15 
REMARK   14  A    between atoms: C_15  and  C_17 
REMARK   15  A    between atoms: C_17  and  C_18 
REMARK   16  A    between atoms: C_18  and  C_19 
REMARK   17  A    between atoms: C_19  and  C_20 
REMARK   18  A    between atoms: C_20  and  C_21 
REMARK   19  A    between atoms: C_21  and  C_22 
REMARK   20  A    between atoms: O_24  and  C_25 
REMARK   21  A    between atoms: C_25  and  C_27 
REMARK   22  A    between atoms: C_27  and  C_28 
REMARK   23  A    between atoms: C_28  and  C_29 
REMARK   24  A    between atoms: C_29  and  C_30 
REMARK   25  A    between atoms: C_30  and  C_31 
REMARK   26  A    between atoms: C_31  and  C_32 
ROOT
HETATM    1  C   UNL     1     -20.537  -8.001  -4.888  1.00  0.00     0.180 C 
ENDROOT
BRANCH   1   2
HETATM    2  C   UNL     1     -20.265  -6.729  -5.708  1.00  0.00     0.213 C 
BRANCH   2   3
HETATM    3  O   UNL     1     -21.020  -6.726  -6.931  1.00  0.00    -0.319 OA
BRANCH   3   4
HETATM    4  C   UNL     1     -21.211  -5.496  -7.485  1.00  0.00     0.258 C 
HETATM    5  O   UNL     1     -22.190  -4.793  -7.300  1.00  0.00    -0.265 OA
BRANCH   4   6
HETATM    6  C   UNL     1     -20.054  -5.131  -8.379  1.00  0.00     0.111 C 
BRANCH   6   7
HETATM    7  C   UNL     1     -20.411  -3.985  -9.320  1.00  0.00     0.010 C 
BRANCH   7   8
HETATM    8  C   UNL     1     -20.296  -4.390 -10.790  1.00  0.00     0.000 C 
BRANCH   8   9
HETATM    9  C   UNL     1     -21.669  -4.420 -11.456  1.00  0.00     0.000 C 
BRANCH   9  10
HETATM   10  C   UNL     1     -22.450  -3.144 -11.153  1.00  0.00    -0.000 C 
BRANCH  10  11
HETATM   11  C   UNL     1     -23.789  -3.462 -10.492  1.00  0.00    -0.005 C 
HETATM   12  C   UNL     1     -23.974  -4.960 -10.325  1.00  0.00     0.005 C 
ENDBRANCH  10  11
ENDBRANCH   9  10
ENDBRANCH   8   9
ENDBRANCH   7   8
ENDBRANCH   6   7
ENDBRANCH   4   6
ENDBRANCH   3   4
ENDBRANCH   2   3
ENDBRANCH   1   2
BRANCH   1  13
HETATM   13  C   UNL     1     -21.750  -7.782  -3.971  1.00  0.00     0.213 C 
BRANCH  13  14
HETATM   14  O   UNL     1     -21.370  -7.817  -2.582  1.00  0.00    -0.319 OA
BRANCH  14  15
HETATM   15  C   UNL     1     -21.960  -6.861  -1.813  1.00  0.00     0.258 C 
HETATM   16  O   UNL     1     -22.157  -5.706  -2.177  1.00  0.00    -0.265 OA
BRANCH  15  17
HETATM   17  C   UNL     1     -22.324  -7.402  -0.449  1.00  0.00     0.111 C 
BRANCH  17  18
HETATM   18  C   UNL     1     -22.253  -8.928  -0.423  1.00  0.00     0.010 C 
BRANCH  18  19
HETATM   19  C   UNL     1     -23.518  -9.556   0.168  1.00  0.00     0.000 C 
BRANCH  19  20
HETATM   20  C   UNL     1     -23.842 -10.885  -0.509  1.00  0.00     0.000 C 
BRANCH  20  21
HETATM   21  C   UNL     1     -23.047 -11.041  -1.802  1.00  0.00    -0.000 C 
BRANCH  21  22
HETATM   22  C   UNL     1     -22.860 -12.512  -2.160  1.00  0.00    -0.005 C 
HETATM   23  C   UNL     1     -23.694 -13.404  -1.258  1.00  0.00     0.005 C 
ENDBRANCH  21  22
ENDBRANCH  20  21
ENDBRANCH  19  20
ENDBRANCH  18  19
ENDBRANCH  17  18
ENDBRANCH  15  17
ENDBRANCH  14  15
ENDBRANCH  13  14
ENDBRANCH   1  13
BRANCH   1  24
HETATM   24  O   UNL     1     -20.813  -9.067  -5.828  1.00  0.00    -0.312 OA
BRANCH  24  25
HETATM   25  C   UNL     1     -20.743 -10.325  -5.300  1.00  0.00     0.259 C 
HETATM   26  O   UNL     1     -21.665 -11.127  -5.241  1.00  0.00    -0.265 OA
BRANCH  25  27
HETATM   27  C   UNL     1     -19.390 -10.580  -4.688  1.00  0.00     0.111 C 
BRANCH  27  28
HETATM   28  C   UNL     1     -19.501 -11.174  -3.294  1.00  0.00     0.010 C 
BRANCH  28  29
HETATM   29  C   UNL     1     -18.621 -10.429  -2.291  1.00  0.00     0.000 C 
BRANCH  29  30
HETATM   30  C   UNL     1     -17.767  -9.373  -2.985  1.00  0.00     0.000 C 
BRANCH  30  31
HETATM   31  C   UNL     1     -16.283  -9.662  -2.776  1.00  0.00    -0.000 C 
BRANCH  31  32
HETATM   32  C   UNL     1     -15.749 -10.604  -3.851  1.00  0.00    -0.005 C 
HETATM   33  C   UNL     1     -15.723  -9.921  -5.208  1.00  0.00     0.005 C 
ENDBRANCH  31  32
ENDBRANCH  30  31
ENDBRANCH  29  30
ENDBRANCH  28  29
ENDBRANCH  27  28
ENDBRANCH  25  27
ENDBRANCH  24  25
ENDBRANCH   1  24
TORSDOF 26
BEGIN_RES ARG D 557
REMARK  4 active torsions:
REMARK  status: ('A' for Active; 'I' for Inactive)
REMARK    1  A    between atoms: CA   and  CB  
REMARK    2  A    between atoms: CB   and  CG  
REMARK    3  A    between atoms: CG   and  CD  
REMARK    4  A    between atoms: CD   and  NE  
REMARK       I    between atoms: NE   and  CZ  
REMARK       I    between atoms: CZ   and  NH1 
REMARK       I    between atoms: CZ   and  NH2 
ROOT
ATOM      1  CA  ARG D 557     -26.217   2.705 -17.014  1.00 35.49     0.159 C 
ENDROOT
BRANCH   1   2
ATOM      2  CB  ARG D 557     -26.789   1.319 -17.183  1.00 35.49     0.034 C 
BRANCH   2   3
ATOM      3  CG  ARG D 557     -25.941   0.198 -16.759  1.00 35.49     0.027 C 
BRANCH   3   4
ATOM      4  CD  ARG D 557     -26.718  -0.883 -16.111  1.00 35.49     0.116 C 
BRANCH   4   5
ATOM      5  NE  ARG D 557     -25.999  -1.489 -15.021  1.00 35.49    -0.212 N 
ATOM      6  CZ  ARG D 557     -26.004  -2.767 -14.713  1.00 35.49     0.666 C 
ATOM      7  NH1 ARG D 557     -26.707  -3.656 -15.390  1.00 35.49    -0.235 N 
ATOM      8  NH2 ARG D 557     -25.275  -3.144 -13.703  1.00 35.49    -0.235 N 
ATOM      9  HH  ARG D 557     -27.192  -3.430 -16.059  1.00 35.49     0.174 HD
ATOM     10  HH  ARG D 557     -26.669  -4.476 -15.145  1.00 35.49     0.174 HD
ATOM     11  HH  ARG D 557     -24.826  -2.549 -13.290  1.00 35.49     0.174 HD
ATOM     12  HH  ARG D 557     -25.250  -3.961 -13.477  1.00 35.49     0.174 HD
ATOM     13  HE  ARG D 557     -25.577  -0.978 -14.488  1.00 35.49     0.178 HD
ENDBRANCH   4   5
ENDBRANCH   3   4
ENDBRANCH   2   3
ENDBRANCH   1   2
END_RES ARG D 557
BEGIN_RES GLU D 570
REMARK  3 active torsions:
REMARK  status: ('A' for Active; 'I' for Inactive)
REMARK    5  A    between atoms: CA   and  CB  
REMARK    6  A    between atoms: CB   and  CG  
REMARK    7  A    between atoms: CG   and  CD  
ROOT
ATOM     14  CA  GLU D 570     -18.033  -6.348 -13.375  1.00 32.92     0.160 C 
ENDROOT
BRANCH  14  15
ATOM     15  CB  GLU D 570     -19.500  -6.345 -13.794  1.00 32.92     0.043 C 
BRANCH  15  16
ATOM     16  CG  GLU D 570     -19.796  -6.271 -15.248  1.00 32.92     0.100 C 
BRANCH  16  17
ATOM     17  CD  GLU D 570     -21.217  -5.846 -15.539  1.00 32.92     0.185 C 
ATOM     18  OE1 GLU D 570     -21.914  -6.545 -16.300  1.00 32.92    -0.647 OA
ATOM     19  OE2 GLU D 570     -21.632  -4.795 -15.013  1.00 32.92    -0.647 OA
ENDBRANCH  16  17
ENDBRANCH  15  16
ENDBRANCH  14  15
END_RES GLU D 570
ENDMDL
MODEL 8
REMARK VINA RESULT:      -6.5      9.089     15.816
REMARK  26 active torsions:
REMARK  status: ('A' for Active; 'I' for Inactive)
REMARK    1  A    between atoms: C_2  and  C_3 
REMARK    2  A    between atoms: C_3  and  C_4 
REMARK    3  A    between atoms: C_4  and  C_5 
REMARK    4  A    between atoms: C_5  and  C_6 
REMARK    5  A    between atoms: C_6  and  C_7 
REMARK    6  A    between atoms: C_7  and  C_8 
REMARK    7  A    between atoms: C_8  and  O_10 
REMARK    8  A    between atoms: O_10  and  C_11 
REMARK    9  A    between atoms: C_11  and  C_12 
REMARK   10  A    between atoms: C_12  and  C_13 
REMARK   11  A    between atoms: C_12  and  O_24 
REMARK   12  A    between atoms: C_13  and  O_14 
REMARK   13  A    between atoms: O_14  and  C_15 
REMARK   14  A    between atoms: C_15  and  C_17 
REMARK   15  A    between atoms: C_17  and  C_18 
REMARK   16  A    between atoms: C_18  and  C_19 
REMARK   17  A    between atoms: C_19  and  C_20 
REMARK   18  A    between atoms: C_20  and  C_21 
REMARK   19  A    between atoms: C_21  and  C_22 
REMARK   20  A    between atoms: O_24  and  C_25 
REMARK   21  A    between atoms: C_25  and  C_27 
REMARK   22  A    between atoms: C_27  and  C_28 
REMARK   23  A    between atoms: C_28  and  C_29 
REMARK   24  A    between atoms: C_29  and  C_30 
REMARK   25  A    between atoms: C_30  and  C_31 
REMARK   26  A    between atoms: C_31  and  C_32 
ROOT
HETATM    1  C   UNL     1     -20.520  -8.383  -5.148  1.00  0.00     0.180 C 
ENDROOT
BRANCH   1   2
HETATM    2  C   UNL     1     -19.158  -8.950  -4.715  1.00  0.00     0.213 C 
BRANCH   2   3
HETATM    3  O   UNL     1     -19.005  -8.903  -3.286  1.00  0.00    -0.319 OA
BRANCH   3   4
HETATM    4  C   UNL     1     -18.214  -9.881  -2.760  1.00  0.00     0.258 C 
HETATM    5  O   UNL     1     -18.622 -10.923  -2.278  1.00  0.00    -0.265 OA
BRANCH   4   6
HETATM    6  C   UNL     1     -16.762  -9.486  -2.837  1.00  0.00     0.111 C 
BRANCH   6   7
HETATM    7  C   UNL     1     -15.931 -10.539  -3.563  1.00  0.00     0.010 C 
BRANCH   7   8
HETATM    8  C   UNL     1     -15.538 -10.094  -4.972  1.00  0.00     0.000 C 
BRANCH   8   9
HETATM    9  C   UNL     1     -16.181 -10.990  -6.026  1.00  0.00     0.000 C 
BRANCH   9  10
HETATM   10  C   UNL     1     -15.466 -12.337  -6.105  1.00  0.00    -0.000 C 
BRANCH  10  11
HETATM   11  C   UNL     1     -13.951 -12.158  -6.084  1.00  0.00    -0.005 C 
HETATM   12  C   UNL     1     -13.242 -13.480  -6.322  1.00  0.00     0.005 C 
ENDBRANCH  10  11
ENDBRANCH   9  10
ENDBRANCH   8   9
ENDBRANCH   7   8
ENDBRANCH   6   7
ENDBRANCH   4   6
ENDBRANCH   3   4
ENDBRANCH   2   3
ENDBRANCH   1   2
BRANCH   1  13
HETATM   13  C   UNL     1     -21.649  -9.106  -4.399  1.00  0.00     0.213 C 
BRANCH  13  14
HETATM   14  O   UNL     1     -21.593 -10.530  -4.613  1.00  0.00    -0.319 OA
BRANCH  14  15
HETATM   15  C   UNL     1     -22.135 -11.271  -3.608  1.00  0.00     0.258 C 
HETATM   16  O   UNL     1     -22.414 -12.462  -3.700  1.00  0.00    -0.265 OA
BRANCH  15  17
HETATM   17  C   UNL     1     -22.363 -10.432  -2.372  1.00  0.00     0.111 C 
BRANCH  17  18
HETATM   18  C   UNL     1     -23.207 -11.182  -1.342  1.00  0.00     0.010 C 
BRANCH  18  19
HETATM   19  C   UNL     1     -22.985 -10.659   0.080  1.00  0.00     0.000 C 
BRANCH  19  20
HETATM   20  C   UNL     1     -21.649  -9.931   0.197  1.00  0.00     0.000 C 
BRANCH  20  21
HETATM   21  C   UNL     1     -21.829  -8.575   0.874  1.00  0.00    -0.000 C 
BRANCH  21  22
HETATM   22  C   UNL     1     -22.901  -7.747   0.172  1.00  0.00    -0.005 C 
HETATM   23  C   UNL     1     -22.309  -6.948  -0.975  1.00  0.00     0.005 C 
ENDBRANCH  21  22
ENDBRANCH  20  21
ENDBRANCH  19  20
ENDBRANCH  18  19
ENDBRANCH  17  18
ENDBRANCH  15  17
ENDBRANCH  14  15
ENDBRANCH  13  14
ENDBRANCH   1  13
BRANCH   1  24
HETATM   24  O   UNL     1     -20.525  -6.975  -4.813  1.00  0.00    -0.312 OA
BRANCH  24  25
HETATM   25  C   UNL     1     -21.392  -6.217  -5.548  1.00  0.00     0.259 C 
HETATM   26  O   UNL     1     -22.521  -5.893  -5.209  1.00  0.00    -0.265 OA
BRANCH  25  27
HETATM   27  C   UNL     1     -20.818  -5.905  -6.907  1.00  0.00     0.111 C 
BRANCH  27  28
HETATM   28  C   UNL     1     -20.426  -4.443  -7.035  1.00  0.00     0.010 C 
BRANCH  28  29
HETATM   29  C   UNL     1     -21.524  -3.620  -7.705  1.00  0.00     0.000 C 
BRANCH  29  30
HETATM   30  C   UNL     1     -22.437  -4.503  -8.549  1.00  0.00     0.000 C 
BRANCH  30  31
HETATM   31  C   UNL     1     -22.371  -4.094 -10.017  1.00  0.00    -0.000 C 
BRANCH  31  32
HETATM   32  C   UNL     1     -23.759  -4.086 -10.651  1.00  0.00    -0.005 C 
HETATM   33  C   UNL     1     -24.763  -3.387  -9.749  1.00  0.00     0.005 C 
ENDBRANCH  31  32
ENDBRANCH  30  31
ENDBRANCH  29  30
ENDBRANCH  28  29
ENDBRANCH  27  28
ENDBRANCH  25  27
ENDBRANCH  24  25
ENDBRANCH   1  24
TORSDOF 26
BEGIN_RES ARG D 557
REMARK  4 active torsions:
REMARK  status: ('A' for Active; 'I' for Inactive)
REMARK    1  A    between atoms: CA   and  CB  
REMARK    2  A    between atoms: CB   and  CG  
REMARK    3  A    between atoms: CG   and  CD  
REMARK    4  A    between atoms: CD   and  NE  
REMARK       I    between atoms: NE   and  CZ  
REMARK       I    between atoms: CZ   and  NH1 
REMARK       I    between atoms: CZ   and  NH2 
ROOT
ATOM      1  CA  ARG D 557     -26.217   2.705 -17.014  1.00 35.49     0.159 C 
ENDROOT
BRANCH   1   2
ATOM      2  CB  ARG D 557     -26.789   1.319 -17.183  1.00 35.49     0.034 C 
BRANCH   2   3
ATOM      3  CG  ARG D 557     -25.838   0.202 -17.136  1.00 35.49     0.027 C 
BRANCH   3   4
ATOM      4  CD  ARG D 557     -24.749   0.429 -16.159  1.00 35.49     0.116 C 
BRANCH   4   5
ATOM      5  NE  ARG D 557     -24.870  -0.421 -15.004  1.00 35.49    -0.212 N 
ATOM      6  CZ  ARG D 557     -24.049  -1.394 -14.676  1.00 35.49     0.666 C 
ATOM      7  NH1 ARG D 557     -22.998  -1.711 -15.409  1.00 35.49    -0.235 N 
ATOM      8  NH2 ARG D 557     -24.301  -2.048 -13.580  1.00 35.49    -0.235 N 
ATOM      9  HH  ARG D 557     -22.811  -1.292 -16.133  1.00 35.49     0.174 HD
ATOM     10  HH  ARG D 557     -22.496  -2.354 -15.144  1.00 35.49     0.174 HD
ATOM     11  HH  ARG D 557     -24.983  -1.816 -13.123  1.00 35.49     0.174 HD
ATOM     12  HH  ARG D 557     -23.792  -2.680 -13.334  1.00 35.49     0.174 HD
ATOM     13  HE  ARG D 557     -25.560  -0.334 -14.514  1.00 35.49     0.178 HD
ENDBRANCH   4   5
ENDBRANCH   3   4
ENDBRANCH   2   3
ENDBRANCH   1   2
END_RES ARG D 557
BEGIN_RES GLU D 570
REMARK  3 active torsions:
REMARK  status: ('A' for Active; 'I' for Inactive)
REMARK    5  A    between atoms: CA   and  CB  
REMARK    6  A    between atoms: CB   and  CG  
REMARK    7  A    between atoms: CG   and  CD  
ROOT
ATOM     14  CA  GLU D 570     -18.033  -6.348 -13.375  1.00 32.92     0.160 C 
ENDROOT
BRANCH  14  15
ATOM     15  CB  GLU D 570     -19.500  -6.345 -13.794  1.00 32.92     0.043 C 
BRANCH  15  16
ATOM     16  CG  GLU D 570     -20.451  -5.576 -12.950  1.00 32.92     0.100 C 
BRANCH  16  17
ATOM     17  CD  GLU D 570     -21.731  -5.228 -13.673  1.00 32.92     0.185 C 
ATOM     18  OE1 GLU D 570     -22.380  -6.136 -14.227  1.00 32.92    -0.647 OA
ATOM     19  OE2 GLU D 570     -22.081  -4.031 -13.701  1.00 32.92    -0.647 OA
ENDBRANCH  16  17
ENDBRANCH  15  16
ENDBRANCH  14  15
END_RES GLU D 570
ENDMDL
MODEL 9
REMARK VINA RESULT:      -6.5      9.698     16.384
REMARK  26 active torsions:
REMARK  status: ('A' for Active; 'I' for Inactive)
REMARK    1  A    between atoms: C_2  and  C_3 
REMARK    2  A    between atoms: C_3  and  C_4 
REMARK    3  A    between atoms: C_4  and  C_5 
REMARK    4  A    between atoms: C_5  and  C_6 
REMARK    5  A    between atoms: C_6  and  C_7 
REMARK    6  A    between atoms: C_7  and  C_8 
REMARK    7  A    between atoms: C_8  and  O_10 
REMARK    8  A    between atoms: O_10  and  C_11 
REMARK    9  A    between atoms: C_11  and  C_12 
REMARK   10  A    between atoms: C_12  and  C_13 
REMARK   11  A    between atoms: C_12  and  O_24 
REMARK   12  A    between atoms: C_13  and  O_14 
REMARK   13  A    between atoms: O_14  and  C_15 
REMARK   14  A    between atoms: C_15  and  C_17 
REMARK   15  A    between atoms: C_17  and  C_18 
REMARK   16  A    between atoms: C_18  and  C_19 
REMARK   17  A    between atoms: C_19  and  C_20 
REMARK   18  A    between atoms: C_20  and  C_21 
REMARK   19  A    between atoms: C_21  and  C_22 
REMARK   20  A    between atoms: O_24  and  C_25 
REMARK   21  A    between atoms: C_25  and  C_27 
REMARK   22  A    between atoms: C_27  and  C_28 
REMARK   23  A    between atoms: C_28  and  C_29 
REMARK   24  A    between atoms: C_29  and  C_30 
REMARK   25  A    between atoms: C_30  and  C_31 
REMARK   26  A    between atoms: C_31  and  C_32 
ROOT
HETATM    1  C   UNL     1     -21.620  -7.054  -2.428  1.00  0.00     0.180 C 
ENDROOT
BRANCH   1   2
HETATM    2  C   UNL     1     -22.144  -6.407  -1.135  1.00  0.00     0.213 C 
BRANCH   2   3
HETATM    3  O   UNL     1     -23.163  -7.215  -0.523  1.00  0.00    -0.319 OA
BRANCH   3   4
HETATM    4  C   UNL     1     -22.710  -8.115   0.395  1.00  0.00     0.258 C 
HETATM    5  O   UNL     1     -21.758  -7.936   1.134  1.00  0.00    -0.265 OA
BRANCH   4   6
HETATM    6  C   UNL     1     -23.536  -9.374   0.355  1.00  0.00     0.111 C 
BRANCH   6   7
HETATM    7  C   UNL     1     -23.135 -10.273  -0.809  1.00  0.00     0.010 C 
BRANCH   7   8
HETATM    8  C   UNL     1     -23.917 -11.587  -0.820  1.00  0.00     0.000 C 
BRANCH   8   9
HETATM    9  C   UNL     1     -23.571 -12.437   0.400  1.00  0.00     0.000 C 
BRANCH   9  10
HETATM   10  C   UNL     1     -23.309 -13.886  -0.003  1.00  0.00    -0.000 C 
BRANCH  10  11
HETATM   11  C   UNL     1     -23.631 -14.842   1.143  1.00  0.00    -0.005 C 
HETATM   12  C   UNL     1     -23.541 -14.137   2.484  1.00  0.00     0.005 C 
ENDBRANCH  10  11
ENDBRANCH   9  10
ENDBRANCH   8   9
ENDBRANCH   7   8
ENDBRANCH   6   7
ENDBRANCH   4   6
ENDBRANCH   3   4
ENDBRANCH   2   3
ENDBRANCH   1   2
BRANCH   1  13
HETATM   13  C   UNL     1     -21.312  -5.967  -3.468  1.00  0.00     0.213 C 
BRANCH  13  14
HETATM   14  O   UNL     1     -21.573  -6.432  -4.806  1.00  0.00    -0.319 OA
BRANCH  14  15
HETATM   15  C   UNL     1     -20.497  -6.387  -5.638  1.00  0.00     0.258 C 
HETATM   16  O   UNL     1     -20.001  -7.368  -6.181  1.00  0.00    -0.265 OA
BRANCH  15  17
HETATM   17  C   UNL     1     -19.981  -4.974  -5.790  1.00  0.00     0.111 C 
BRANCH  17  18
HETATM   18  C   UNL     1     -20.778  -4.204  -6.842  1.00  0.00     0.010 C 
BRANCH  18  19
HETATM   19  C   UNL     1     -19.937  -3.873  -8.077  1.00  0.00     0.000 C 
BRANCH  19  20
HETATM   20  C   UNL     1     -20.420  -4.651  -9.298  1.00  0.00     0.000 C 
BRANCH  20  21
HETATM   21  C   UNL     1     -21.490  -3.865 -10.052  1.00  0.00    -0.000 C 
BRANCH  21  22
HETATM   22  C   UNL     1     -22.833  -4.588 -10.015  1.00  0.00    -0.005 C 
HETATM   23  C   UNL     1     -23.812  -3.873  -9.101  1.00  0.00     0.005 C 
ENDBRANCH  21  22
ENDBRANCH  20  21
ENDBRANCH  19  20
ENDBRANCH  18  19
ENDBRANCH  17  18
ENDBRANCH  15  17
ENDBRANCH  14  15
ENDBRANCH  13  14
ENDBRANCH   1  13
BRANCH   1  24
HETATM   24  O   UNL     1     -20.411  -7.773  -2.089  1.00  0.00    -0.312 OA
BRANCH  24  25
HETATM   25  C   UNL     1     -20.201  -8.910  -2.816  1.00  0.00     0.259 C 
HETATM   26  O   UNL     1     -21.023  -9.462  -3.533  1.00  0.00    -0.265 OA
BRANCH  25  27
HETATM   27  C   UNL     1     -18.833  -9.481  -2.543  1.00  0.00     0.111 C 
BRANCH  27  28
HETATM   28  C   UNL     1     -17.977  -9.528  -3.797  1.00  0.00     0.010 C 
BRANCH  28  29
HETATM   29  C   UNL     1     -16.493  -9.671  -3.464  1.00  0.00     0.000 C 
BRANCH  29  30
HETATM   30  C   UNL     1     -15.646  -9.715  -4.731  1.00  0.00     0.000 C 
BRANCH  30  31
HETATM   31  C   UNL     1     -16.460 -10.258  -5.902  1.00  0.00    -0.000 C 
BRANCH  31  32
HETATM   32  C   UNL     1     -16.002 -11.660  -6.289  1.00  0.00    -0.005 C 
HETATM   33  C   UNL     1     -14.563 -11.899  -5.861  1.00  0.00     0.005 C 
ENDBRANCH  31  32
ENDBRANCH  30  31
ENDBRANCH  29  30
ENDBRANCH  28  29
ENDBRANCH  27  28
ENDBRANCH  25  27
ENDBRANCH  24  25
ENDBRANCH   1  24
TORSDOF 26
BEGIN_RES ARG D 557
REMARK  4 active torsions:
REMARK  status: ('A' for Active; 'I' for Inactive)
REMARK    1  A    between atoms: CA   and  CB  
REMARK    2  A    between atoms: CB   and  CG  
REMARK    3  A    between atoms: CG   and  CD  
REMARK    4  A    between atoms: CD   and  NE  
REMARK       I    between atoms: NE   and  CZ  
REMARK       I    between atoms: CZ   and  NH1 
REMARK       I    between atoms: CZ   and  NH2 
ROOT
ATOM      1  CA  ARG D 557     -26.217   2.705 -17.014  1.00 35.49     0.159 C 
ENDROOT
BRANCH   1   2
ATOM      2  CB  ARG D 557     -26.789   1.319 -17.183  1.00 35.49     0.034 C 
BRANCH   2   3
ATOM      3  CG  ARG D 557     -28.214   1.150 -16.874  1.00 35.49     0.027 C 
BRANCH   3   4
ATOM      4  CD  ARG D 557     -28.580  -0.268 -16.656  1.00 35.49     0.116 C 
BRANCH   4   5
ATOM      5  NE  ARG D 557     -27.568  -0.983 -15.925  1.00 35.49    -0.212 N 
ATOM      6  CZ  ARG D 557     -27.333  -2.274 -16.000  1.00 35.49     0.666 C 
ATOM      7  NH1 ARG D 557     -28.039  -3.079 -16.773  1.00 35.49    -0.235 N 
ATOM      8  NH2 ARG D 557     -26.359  -2.750 -15.280  1.00 35.49    -0.235 N 
ATOM      9  HH  ARG D 557     -28.683  -2.787 -17.257  1.00 35.49     0.174 HD
ATOM     10  HH  ARG D 557     -27.839  -3.912 -16.783  1.00 35.49     0.174 HD
ATOM     11  HH  ARG D 557     -25.916  -2.206 -14.797  1.00 35.49     0.174 HD
ATOM     12  HH  ARG D 557     -26.176  -3.578 -15.306  1.00 35.49     0.174 HD
ATOM     13  HE  ARG D 557     -27.113  -0.554 -15.348  1.00 35.49     0.178 HD
ENDBRANCH   4   5
ENDBRANCH   3   4
ENDBRANCH   2   3
ENDBRANCH   1   2
END_RES ARG D 557
BEGIN_RES GLU D 570
REMARK  3 active torsions:
REMARK  status: ('A' for Active; 'I' for Inactive)
REMARK    5  A    between atoms: CA   and  CB  
REMARK    6  A    between atoms: CB   and  CG  
REMARK    7  A    between atoms: CG   and  CD  
ROOT
ATOM     14  CA  GLU D 570     -18.033  -6.348 -13.375  1.00 32.92     0.160 C 
ENDROOT
BRANCH  14  15
ATOM     15  CB  GLU D 570     -19.500  -6.345 -13.794  1.00 32.92     0.043 C 
BRANCH  15  16
ATOM     16  CG  GLU D 570     -20.445  -5.543 -12.974  1.00 32.92     0.100 C 
BRANCH  16  17
ATOM     17  CD  GLU D 570     -21.754  -5.273 -13.678  1.00 32.92     0.185 C 
ATOM     18  OE1 GLU D 570     -22.246  -6.160 -14.401  1.00 32.92    -0.647 OA
ATOM     19  OE2 GLU D 570     -22.284  -4.156 -13.518  1.00 32.92    -0.647 OA
ENDBRANCH  16  17
ENDBRANCH  15  16
ENDBRANCH  14  15
END_RES GLU D 570
ENDMDL
