MODEL 1
REMARK VINA RESULT:      -9.1      0.000      0.000
REMARK  6 active torsions:
REMARK  status: ('A' for Active; 'I' for Inactive)
REMARK    1  A    between atoms: C6_4  and  N6_22 
REMARK    2  A    between atoms: N9_9  and  C1*_13 
REMARK    3  A    between atoms: C2*_14  and  O2*_21 
REMARK    4  A    between atoms: C3*_15  and  O3*_20 
REMARK    5  A    between atoms: C4*_16  and  C5*_18 
REMARK    6  A    between atoms: C5*_18  and  O5*_19 
ROOT
ATOM      1  C2    A A   1     -20.416  -4.478  -9.636  1.00  0.00     0.183 A 
ATOM      2  N1    A A   1     -20.652  -4.722  -8.328  1.00  0.00    -0.337 N 
ATOM      3  H1    A A   1     -19.902  -5.028  -7.709  1.00  0.00     0.168 HD
ATOM      4  C6    A A   1     -21.908  -4.548  -7.864  1.00  0.00     0.131 A 
ATOM      5  C5    A A   1     -22.885  -4.069  -8.749  1.00  0.00     0.122 A 
ATOM      6  C4    A A   1     -22.509  -3.880 -10.071  1.00  0.00     0.142 A 
ATOM      7  N3    A A   1     -21.285  -4.084 -10.595  1.00  0.00    -0.336 N 
ATOM      8  H3    A A   1     -21.046  -3.958 -11.579  1.00  0.00     0.168 HD
ATOM      9  N9    A A   1     -23.660  -3.512 -10.707  1.00  0.00    -0.297 N 
ATOM     10  C8    A A   1     -24.647  -3.427  -9.754  1.00  0.00     0.188 A 
ATOM     11  N7    A A   1     -24.213  -3.751  -8.557  1.00  0.00    -0.346 N 
ATOM     12  H7    A A   1     -24.740  -3.764  -7.684  1.00  0.00     0.167 HD
ENDROOT
BRANCH   9  13
ATOM     13  C1*   A A   1     -23.929  -3.443 -12.126  1.00  0.00     0.262 C 
ATOM     14  C2*   A A   1     -22.972  -2.546 -12.904  1.00  0.00     0.198 C 
ATOM     15  C3*   A A   1     -23.837  -1.983 -14.031  1.00  0.00     0.182 C 
ATOM     16  C4*   A A   1     -25.239  -2.569 -13.782  1.00  0.00     0.179 C 
ATOM     17  O4*   A A   1     -25.264  -2.989 -12.403  1.00  0.00    -0.353 OA
BRANCH  14  18
ATOM     18  O2*   A A   1     -21.875  -3.311 -13.412  1.00  0.00    -0.388 OA
ATOM     19  H2*   A A   1     -22.080  -3.450 -14.363  1.00  0.00     0.210 HD
ENDBRANCH  14  18
BRANCH  15  20
ATOM     20  O3*   A A   1     -23.227  -2.278 -15.290  1.00  0.00    -0.390 OA
ATOM     21  H3*   A A   1     -23.902  -2.688 -15.875  1.00  0.00     0.210 HD
ENDBRANCH  15  20
BRANCH  16  22
ATOM     22  C5*   A A   1     -25.597  -3.745 -14.704  1.00  0.00     0.198 C 
BRANCH  22  23
ATOM     23  O5*   A A   1     -24.482  -4.623 -14.847  1.00  0.00    -0.398 OA
ATOM     24  H5*   A A   1     -24.780  -5.387 -15.374  1.00  0.00     0.209 HD
ENDBRANCH  22  23
ENDBRANCH  16  22
ENDBRANCH   9  13
BRANCH   4  25
ATOM     25  N6    A A   1     -22.184  -4.866  -6.542  1.00  0.00    -0.383 N 
ATOM     26  H61   A A   1     -21.830  -5.768  -6.263  1.00  0.00     0.157 HD
ATOM     27  H62   A A   1     -22.082  -4.084  -5.904  1.00  0.00     0.157 HD
ENDBRANCH   4  25
TORSDOF 6
BEGIN_RES ARG D 557
REMARK  4 active torsions:
REMARK  status: ('A' for Active; 'I' for Inactive)
REMARK    1  A    between atoms: CA   and  CB  
REMARK    2  A    between atoms: CB   and  CG  
REMARK    3  A    between atoms: CG   and  CD  
REMARK    4  A    between atoms: CD   and  NE  
REMARK       I    between atoms: NE   and  CZ  
REMARK       I    between atoms: CZ   and  NH1 
REMARK       I    between atoms: CZ   and  NH2 
ROOT
ATOM      1  CA  ARG D 557     -26.217   2.705 -17.014  1.00 35.49     0.159 C 
ENDROOT
BRANCH   1   2
ATOM      2  CB  ARG D 557     -26.789   1.319 -17.183  1.00 35.49     0.034 C 
BRANCH   2   3
ATOM      3  CG  ARG D 557     -28.102   1.068 -16.577  1.00 35.49     0.027 C 
BRANCH   3   4
ATOM      4  CD  ARG D 557     -28.851  -0.001 -17.276  1.00 35.49     0.116 C 
BRANCH   4   5
ATOM      5  NE  ARG D 557     -28.315  -1.308 -17.002  1.00 35.49    -0.212 N 
ATOM      6  CZ  ARG D 557     -28.957  -2.446 -17.141  1.00 35.49     0.666 C 
ATOM      7  NH1 ARG D 557     -30.211  -2.508 -17.549  1.00 35.49    -0.235 N 
ATOM      8  NH2 ARG D 557     -28.307  -3.540 -16.866  1.00 35.49    -0.235 N 
ATOM      9  HH  ARG D 557     -30.658  -1.801 -17.737  1.00 35.49     0.174 HD
ATOM     10  HH  ARG D 557     -30.577  -3.279 -17.623  1.00 35.49     0.174 HD
ATOM     11  HH  ARG D 557     -27.496  -3.470 -16.612  1.00 35.49     0.174 HD
ATOM     12  HH  ARG D 557     -28.686  -4.293 -16.948  1.00 35.49     0.174 HD
ATOM     13  HE  ARG D 557     -27.536  -1.357 -16.665  1.00 35.49     0.178 HD
ENDBRANCH   4   5
ENDBRANCH   3   4
ENDBRANCH   2   3
ENDBRANCH   1   2
END_RES ARG D 557
BEGIN_RES GLU D 570
REMARK  3 active torsions:
REMARK  status: ('A' for Active; 'I' for Inactive)
REMARK    5  A    between atoms: CA   and  CB  
REMARK    6  A    between atoms: CB   and  CG  
REMARK    7  A    between atoms: CG   and  CD  
ROOT
ATOM     14  CA  GLU D 570     -18.033  -6.348 -13.375  1.00 32.92     0.160 C 
ENDROOT
BRANCH  14  15
ATOM     15  CB  GLU D 570     -19.500  -6.345 -13.794  1.00 32.92     0.043 C 
BRANCH  15  16
ATOM     16  CG  GLU D 570     -19.813  -5.935 -15.187  1.00 32.92     0.100 C 
BRANCH  16  17
ATOM     17  CD  GLU D 570     -21.292  -5.734 -15.425  1.00 32.92     0.185 C 
ATOM     18  OE1 GLU D 570     -22.092  -6.603 -15.029  1.00 32.92    -0.647 OA
ATOM     19  OE2 GLU D 570     -21.652  -4.704 -16.027  1.00 32.92    -0.647 OA
ENDBRANCH  16  17
ENDBRANCH  15  16
ENDBRANCH  14  15
END_RES GLU D 570
ENDMDL
MODEL 2
REMARK VINA RESULT:      -8.2      1.210      2.381
REMARK  6 active torsions:
REMARK  status: ('A' for Active; 'I' for Inactive)
REMARK    1  A    between atoms: C6_4  and  N6_22 
REMARK    2  A    between atoms: N9_9  and  C1*_13 
REMARK    3  A    between atoms: C2*_14  and  O2*_21 
REMARK    4  A    between atoms: C3*_15  and  O3*_20 
REMARK    5  A    between atoms: C4*_16  and  C5*_18 
REMARK    6  A    between atoms: C5*_18  and  O5*_19 
ROOT
ATOM      1  C2    A A   1     -22.844  -4.054  -7.769  1.00  0.00     0.183 A 
ATOM      2  N1    A A   1     -21.640  -4.343  -7.226  1.00  0.00    -0.337 N 
ATOM      3  H1    A A   1     -21.543  -4.509  -6.225  1.00  0.00     0.168 HD
ATOM      4  C6    A A   1     -20.570  -4.406  -8.047  1.00  0.00     0.131 A 
ATOM      5  C5    A A   1     -20.774  -4.226  -9.424  1.00  0.00     0.122 A 
ATOM      6  C4    A A   1     -22.060  -3.915  -9.841  1.00  0.00     0.142 A 
ATOM      7  N3    A A   1     -23.151  -3.793  -9.060  1.00  0.00    -0.336 N 
ATOM      8  H3    A A   1     -24.081  -3.539  -9.395  1.00  0.00     0.168 HD
ATOM      9  N9    A A   1     -21.945  -3.704 -11.185  1.00  0.00    -0.297 N 
ATOM     10  C8    A A   1     -20.638  -3.958 -11.529  1.00  0.00     0.188 A 
ATOM     11  N7    A A   1     -19.903  -4.283 -10.491  1.00  0.00    -0.346 N 
ATOM     12  H7    A A   1     -18.912  -4.523 -10.477  1.00  0.00     0.167 HD
ENDROOT
BRANCH   9  13
ATOM     13  C1*   A A   1     -22.894  -3.100 -12.093  1.00  0.00     0.262 C 
ATOM     14  C2*   A A   1     -24.256  -3.783 -12.123  1.00  0.00     0.198 C 
ATOM     15  C3*   A A   1     -24.727  -3.591 -13.565  1.00  0.00     0.182 C 
ATOM     16  C4*   A A   1     -23.571  -2.849 -14.260  1.00  0.00     0.179 C 
ATOM     17  O4*   A A   1     -22.403  -3.059 -13.443  1.00  0.00    -0.353 OA
BRANCH  14  18
ATOM     18  O2*   A A   1     -25.146  -3.163 -11.191  1.00  0.00    -0.388 OA
ATOM     19  H2*   A A   1     -24.670  -3.183 -10.331  1.00  0.00     0.210 HD
ENDBRANCH  14  18
BRANCH  15  20
ATOM     20  O3*   A A   1     -26.003  -2.947 -13.565  1.00  0.00    -0.390 OA
ATOM     21  H3*   A A   1     -26.144  -2.533 -12.685  1.00  0.00     0.210 HD
ENDBRANCH  15  20
BRANCH  16  22
ATOM     22  C5*   A A   1     -23.822  -1.345 -14.455  1.00  0.00     0.198 C 
BRANCH  22  23
ATOM     23  O5*   A A   1     -24.943  -1.134 -15.311  1.00  0.00    -0.398 OA
ATOM     24  H5*   A A   1     -25.675  -1.683 -14.973  1.00  0.00     0.209 HD
ENDBRANCH  22  23
ENDBRANCH  16  22
ENDBRANCH   9  13
BRANCH   4  25
ATOM     25  N6    A A   1     -19.316  -4.627  -7.498  1.00  0.00    -0.383 N 
ATOM     26  H61   A A   1     -18.714  -3.817  -7.529  1.00  0.00     0.157 HD
ATOM     27  H62   A A   1     -19.333  -5.188  -6.654  1.00  0.00     0.157 HD
ENDBRANCH   4  25
TORSDOF 6
BEGIN_RES ARG D 557
REMARK  4 active torsions:
REMARK  status: ('A' for Active; 'I' for Inactive)
REMARK    1  A    between atoms: CA   and  CB  
REMARK    2  A    between atoms: CB   and  CG  
REMARK    3  A    between atoms: CG   and  CD  
REMARK    4  A    between atoms: CD   and  NE  
REMARK       I    between atoms: NE   and  CZ  
REMARK       I    between atoms: CZ   and  NH1 
REMARK       I    between atoms: CZ   and  NH2 
ROOT
ATOM      1  CA  ARG D 557     -26.217   2.705 -17.014  1.00 35.49     0.159 C 
ENDROOT
BRANCH   1   2
ATOM      2  CB  ARG D 557     -26.789   1.319 -17.183  1.00 35.49     0.034 C 
BRANCH   2   3
ATOM      3  CG  ARG D 557     -28.234   1.225 -17.423  1.00 35.49     0.027 C 
BRANCH   3   4
ATOM      4  CD  ARG D 557     -28.891   0.240 -16.534  1.00 35.49     0.116 C 
BRANCH   4   5
ATOM      5  NE  ARG D 557     -28.014  -0.847 -16.187  1.00 35.49    -0.212 N 
ATOM      6  CZ  ARG D 557     -28.131  -2.090 -16.598  1.00 35.49     0.666 C 
ATOM      7  NH1 ARG D 557     -29.111  -2.486 -17.389  1.00 35.49    -0.235 N 
ATOM      8  NH2 ARG D 557     -27.231  -2.941 -16.200  1.00 35.49    -0.235 N 
ATOM      9  HH  ARG D 557     -29.713  -1.942 -17.665  1.00 35.49     0.174 HD
ATOM     10  HH  ARG D 557     -29.135  -3.309 -17.627  1.00 35.49     0.174 HD
ATOM     11  HH  ARG D 557     -26.605  -2.655 -15.696  1.00 35.49     0.174 HD
ATOM     12  HH  ARG D 557     -27.271  -3.751 -16.448  1.00 35.49     0.174 HD
ATOM     13  HE  ARG D 557     -27.396  -0.697 -15.623  1.00 35.49     0.178 HD
ENDBRANCH   4   5
ENDBRANCH   3   4
ENDBRANCH   2   3
ENDBRANCH   1   2
END_RES ARG D 557
BEGIN_RES GLU D 570
REMARK  3 active torsions:
REMARK  status: ('A' for Active; 'I' for Inactive)
REMARK    5  A    between atoms: CA   and  CB  
REMARK    6  A    between atoms: CB   and  CG  
REMARK    7  A    between atoms: CG   and  CD  
ROOT
ATOM     14  CA  GLU D 570     -18.033  -6.348 -13.375  1.00 32.92     0.160 C 
ENDROOT
BRANCH  14  15
ATOM     15  CB  GLU D 570     -19.500  -6.345 -13.794  1.00 32.92     0.043 C 
BRANCH  15  16
ATOM     16  CG  GLU D 570     -19.807  -6.010 -15.209  1.00 32.92     0.100 C 
BRANCH  16  17
ATOM     17  CD  GLU D 570     -21.263  -5.674 -15.432  1.00 32.92     0.185 C 
ATOM     18  OE1 GLU D 570     -21.574  -4.930 -16.381  1.00 32.92    -0.647 OA
ATOM     19  OE2 GLU D 570     -22.101  -6.147 -14.638  1.00 32.92    -0.647 OA
ENDBRANCH  16  17
ENDBRANCH  15  16
ENDBRANCH  14  15
END_RES GLU D 570
ENDMDL
MODEL 3
REMARK VINA RESULT:      -8.0      1.586      1.981
REMARK  6 active torsions:
REMARK  status: ('A' for Active; 'I' for Inactive)
REMARK    1  A    between atoms: C6_4  and  N6_22 
REMARK    2  A    between atoms: N9_9  and  C1*_13 
REMARK    3  A    between atoms: C2*_14  and  O2*_21 
REMARK    4  A    between atoms: C3*_15  and  O3*_20 
REMARK    5  A    between atoms: C4*_16  and  C5*_18 
REMARK    6  A    between atoms: C5*_18  and  O5*_19 
ROOT
ATOM      1  C2    A A   1     -19.609  -5.543  -7.672  1.00  0.00     0.183 A 
ATOM      2  N1    A A   1     -20.087  -5.673  -6.414  1.00  0.00    -0.337 N 
ATOM      3  H1    A A   1     -19.487  -6.001  -5.657  1.00  0.00     0.168 HD
ATOM      4  C6    A A   1     -21.380  -5.356  -6.187  1.00  0.00     0.131 A 
ATOM      5  C5    A A   1     -22.140  -4.854  -7.255  1.00  0.00     0.122 A 
ATOM      6  C4    A A   1     -21.528  -4.793  -8.499  1.00  0.00     0.142 A 
ATOM      7  N3    A A   1     -20.258  -5.141  -8.788  1.00  0.00    -0.336 N 
ATOM      8  H3    A A   1     -19.844  -5.107  -9.720  1.00  0.00     0.168 HD
ATOM      9  N9    A A   1     -22.511  -4.369  -9.346  1.00  0.00    -0.297 N 
ATOM     10  C8    A A   1     -23.632  -4.131  -8.587  1.00  0.00     0.188 A 
ATOM     11  N7    A A   1     -23.442  -4.407  -7.317  1.00  0.00    -0.346 N 
ATOM     12  H7    A A   1     -24.108  -4.312  -6.551  1.00  0.00     0.167 HD
ENDROOT
BRANCH   9  13
ATOM     13  C1*   A A   1     -22.527  -4.376 -10.792  1.00  0.00     0.262 C 
ATOM     14  C2*   A A   1     -22.266  -3.016 -11.429  1.00  0.00     0.198 C 
ATOM     15  C3*   A A   1     -23.093  -3.052 -12.714  1.00  0.00     0.182 C 
ATOM     16  C4*   A A   1     -23.801  -4.419 -12.688  1.00  0.00     0.179 C 
ATOM     17  O4*   A A   1     -23.772  -4.865 -11.318  1.00  0.00    -0.353 OA
BRANCH  14  18
ATOM     18  O2*   A A   1     -20.871  -2.853 -11.703  1.00  0.00    -0.388 OA
ATOM     19  H2*   A A   1     -20.829  -2.186 -12.424  1.00  0.00     0.210 HD
ENDBRANCH  14  18
BRANCH  15  20
ATOM     20  O3*   A A   1     -22.243  -2.784 -13.833  1.00  0.00    -0.390 OA
ATOM     21  H3*   A A   1     -21.455  -3.369 -13.772  1.00  0.00     0.210 HD
ENDBRANCH  15  20
BRANCH  16  22
ATOM     22  C5*   A A   1     -23.160  -5.472 -13.605  1.00  0.00     0.198 C 
BRANCH  22  23
ATOM     23  O5*   A A   1     -23.358  -5.125 -14.975  1.00  0.00    -0.398 OA
ATOM     24  H5*   A A   1     -23.962  -5.788 -15.358  1.00  0.00     0.209 HD
ENDBRANCH  22  23
ENDBRANCH  16  22
ENDBRANCH   9  13
BRANCH   4  25
ATOM     25  N6    A A   1     -21.906  -5.554  -4.920  1.00  0.00    -0.383 N 
ATOM     26  H61   A A   1     -22.177  -6.510  -4.742  1.00  0.00     0.157 HD
ATOM     27  H62   A A   1     -21.423  -5.041  -4.192  1.00  0.00     0.157 HD
ENDBRANCH   4  25
TORSDOF 6
BEGIN_RES ARG D 557
REMARK  4 active torsions:
REMARK  status: ('A' for Active; 'I' for Inactive)
REMARK    1  A    between atoms: CA   and  CB  
REMARK    2  A    between atoms: CB   and  CG  
REMARK    3  A    between atoms: CG   and  CD  
REMARK    4  A    between atoms: CD   and  NE  
REMARK       I    between atoms: NE   and  CZ  
REMARK       I    between atoms: CZ   and  NH1 
REMARK       I    between atoms: CZ   and  NH2 
ROOT
ATOM      1  CA  ARG D 557     -26.217   2.705 -17.014  1.00 35.49     0.159 C 
ENDROOT
BRANCH   1   2
ATOM      2  CB  ARG D 557     -26.789   1.319 -17.183  1.00 35.49     0.034 C 
BRANCH   2   3
ATOM      3  CG  ARG D 557     -28.234   1.225 -17.422  1.00 35.49     0.027 C 
BRANCH   3   4
ATOM      4  CD  ARG D 557     -28.902   0.292 -16.485  1.00 35.49     0.116 C 
BRANCH   4   5
ATOM      5  NE  ARG D 557     -29.283  -0.939 -17.126  1.00 35.49    -0.212 N 
ATOM      6  CZ  ARG D 557     -28.647  -2.085 -17.027  1.00 35.49     0.666 C 
ATOM      7  NH1 ARG D 557     -27.545  -2.225 -16.314  1.00 35.49    -0.235 N 
ATOM      8  NH2 ARG D 557     -29.148  -3.106 -17.660  1.00 35.49    -0.235 N 
ATOM      9  HH  ARG D 557     -27.199  -1.568 -15.888  1.00 35.49     0.174 HD
ATOM     10  HH  ARG D 557     -27.175  -2.998 -16.284  1.00 35.49     0.174 HD
ATOM     11  HH  ARG D 557     -29.865  -2.987 -18.107  1.00 35.49     0.174 HD
ATOM     12  HH  ARG D 557     -28.768  -3.862 -17.617  1.00 35.49     0.174 HD
ATOM     13  HE  ARG D 557     -29.941  -0.922 -17.663  1.00 35.49     0.178 HD
ENDBRANCH   4   5
ENDBRANCH   3   4
ENDBRANCH   2   3
ENDBRANCH   1   2
END_RES ARG D 557
BEGIN_RES GLU D 570
REMARK  3 active torsions:
REMARK  status: ('A' for Active; 'I' for Inactive)
REMARK    5  A    between atoms: CA   and  CB  
REMARK    6  A    between atoms: CB   and  CG  
REMARK    7  A    between atoms: CG   and  CD  
ROOT
ATOM     14  CA  GLU D 570     -18.033  -6.348 -13.375  1.00 32.92     0.160 C 
ENDROOT
BRANCH  14  15
ATOM     15  CB  GLU D 570     -19.500  -6.345 -13.794  1.00 32.92     0.043 C 
BRANCH  15  16
ATOM     16  CG  GLU D 570     -20.085  -7.633 -14.247  1.00 32.92     0.100 C 
BRANCH  16  17
ATOM     17  CD  GLU D 570     -20.733  -7.540 -15.609  1.00 32.92     0.185 C 
ATOM     18  OE1 GLU D 570     -21.129  -8.584 -16.163  1.00 32.92    -0.647 OA
ATOM     19  OE2 GLU D 570     -20.829  -6.414 -16.135  1.00 32.92    -0.647 OA
ENDBRANCH  16  17
ENDBRANCH  15  16
ENDBRANCH  14  15
END_RES GLU D 570
ENDMDL
MODEL 4
REMARK VINA RESULT:      -8.0      3.592      8.046
REMARK  6 active torsions:
REMARK  status: ('A' for Active; 'I' for Inactive)
REMARK    1  A    between atoms: C6_4  and  N6_22 
REMARK    2  A    between atoms: N9_9  and  C1*_13 
REMARK    3  A    between atoms: C2*_14  and  O2*_21 
REMARK    4  A    between atoms: C3*_15  and  O3*_20 
REMARK    5  A    between atoms: C4*_16  and  C5*_18 
REMARK    6  A    between atoms: C5*_18  and  O5*_19 
ROOT
ATOM      1  C2    A A   1     -29.652  -2.805 -17.556  1.00  0.00     0.183 A 
ATOM      2  N1    A A   1     -31.000  -2.828 -17.460  1.00  0.00    -0.337 N 
ATOM      3  H1    A A   1     -31.544  -1.967 -17.508  1.00  0.00     0.168 HD
ATOM      4  C6    A A   1     -31.606  -4.024 -17.298  1.00  0.00     0.131 A 
ATOM      5  C5    A A   1     -30.811  -5.180 -17.297  1.00  0.00     0.122 A 
ATOM      6  C4    A A   1     -29.437  -5.008 -17.384  1.00  0.00     0.142 A 
ATOM      7  N3    A A   1     -28.780  -3.837 -17.499  1.00  0.00    -0.336 N 
ATOM      8  H3    A A   1     -27.765  -3.741 -17.537  1.00  0.00     0.168 HD
ATOM      9  N9    A A   1     -28.924  -6.267 -17.264  1.00  0.00    -0.297 N 
ATOM     10  C8    A A   1     -29.985  -7.136 -17.181  1.00  0.00     0.188 A 
ATOM     11  N7    A A   1     -31.141  -6.515 -17.204  1.00  0.00    -0.346 N 
ATOM     12  H7    A A   1     -32.073  -6.928 -17.163  1.00  0.00     0.167 HD
ENDROOT
BRANCH   9  13
ATOM     13  C1*   A A   1     -27.556  -6.669 -17.019  1.00  0.00     0.262 C 
ATOM     14  C2*   A A   1     -27.133  -6.598 -15.556  1.00  0.00     0.198 C 
ATOM     15  C3*   A A   1     -25.648  -6.244 -15.624  1.00  0.00     0.182 C 
ATOM     16  C4*   A A   1     -25.347  -6.095 -17.126  1.00  0.00     0.179 C 
ATOM     17  O4*   A A   1     -26.617  -5.887 -17.776  1.00  0.00    -0.353 OA
BRANCH  14  18
ATOM     18  O2*   A A   1     -27.346  -7.858 -14.914  1.00  0.00    -0.388 OA
ATOM     19  H2*   A A   1     -26.804  -7.823 -14.095  1.00  0.00     0.210 HD
ENDBRANCH  14  18
BRANCH  15  20
ATOM     20  O3*   A A   1     -24.893  -7.224 -14.907  1.00  0.00    -0.390 OA
ATOM     21  H3*   A A   1     -24.196  -7.578 -15.503  1.00  0.00     0.210 HD
ENDBRANCH  15  20
BRANCH  16  22
ATOM     22  C5*   A A   1     -24.625  -7.303 -17.742  1.00  0.00     0.198 C 
BRANCH  22  23
ATOM     23  O5*   A A   1     -23.311  -7.426 -17.200  1.00  0.00    -0.398 OA
ATOM     24  H5*   A A   1     -22.741  -7.797 -17.899  1.00  0.00     0.209 HD
ENDBRANCH  22  23
ENDBRANCH  16  22
ENDBRANCH   9  13
BRANCH   4  25
ATOM     25  N6    A A   1     -32.981  -4.060 -17.122  1.00  0.00    -0.383 N 
ATOM     26  H61   A A   1     -33.467  -3.311 -17.593  1.00  0.00     0.157 HD
ATOM     27  H62   A A   1     -33.374  -4.993 -17.159  1.00  0.00     0.157 HD
ENDBRANCH   4  25
TORSDOF 6
BEGIN_RES ARG D 557
REMARK  4 active torsions:
REMARK  status: ('A' for Active; 'I' for Inactive)
REMARK    1  A    between atoms: CA   and  CB  
REMARK    2  A    between atoms: CB   and  CG  
REMARK    3  A    between atoms: CG   and  CD  
REMARK    4  A    between atoms: CD   and  NE  
REMARK       I    between atoms: NE   and  CZ  
REMARK       I    between atoms: CZ   and  NH1 
REMARK       I    between atoms: CZ   and  NH2 
ROOT
ATOM      1  CA  ARG D 557     -26.217   2.705 -17.014  1.00 35.49     0.159 C 
ENDROOT
BRANCH   1   2
ATOM      2  CB  ARG D 557     -26.789   1.319 -17.183  1.00 35.49     0.034 C 
BRANCH   2   3
ATOM      3  CG  ARG D 557     -25.836   0.203 -17.153  1.00 35.49     0.027 C 
BRANCH   3   4
ATOM      4  CD  ARG D 557     -24.763   0.404 -16.153  1.00 35.49     0.116 C 
BRANCH   4   5
ATOM      5  NE  ARG D 557     -24.922  -0.450 -15.006  1.00 35.49    -0.212 N 
ATOM      6  CZ  ARG D 557     -24.113  -1.424 -14.655  1.00 35.49     0.666 C 
ATOM      7  NH1 ARG D 557     -23.038  -1.739 -15.353  1.00 35.49    -0.235 N 
ATOM      8  NH2 ARG D 557     -24.402  -2.083 -13.571  1.00 35.49    -0.235 N 
ATOM      9  HH  ARG D 557     -22.827  -1.317 -16.069  1.00 35.49     0.174 HD
ATOM     10  HH  ARG D 557     -22.545  -2.382 -15.074  1.00 35.49     0.174 HD
ATOM     11  HH  ARG D 557     -25.098  -1.853 -13.136  1.00 35.49     0.174 HD
ATOM     12  HH  ARG D 557     -23.901  -2.716 -13.310  1.00 35.49     0.174 HD
ATOM     13  HE  ARG D 557     -25.628  -0.365 -14.540  1.00 35.49     0.178 HD
ENDBRANCH   4   5
ENDBRANCH   3   4
ENDBRANCH   2   3
ENDBRANCH   1   2
END_RES ARG D 557
BEGIN_RES GLU D 570
REMARK  3 active torsions:
REMARK  status: ('A' for Active; 'I' for Inactive)
REMARK    5  A    between atoms: CA   and  CB  
REMARK    6  A    between atoms: CB   and  CG  
REMARK    7  A    between atoms: CG   and  CD  
ROOT
ATOM     14  CA  GLU D 570     -18.033  -6.348 -13.375  1.00 32.92     0.160 C 
ENDROOT
BRANCH  14  15
ATOM     15  CB  GLU D 570     -19.500  -6.345 -13.794  1.00 32.92     0.043 C 
BRANCH  15  16
ATOM     16  CG  GLU D 570     -20.430  -5.477 -13.026  1.00 32.92     0.100 C 
BRANCH  16  17
ATOM     17  CD  GLU D 570     -21.744  -5.248 -13.735  1.00 32.92     0.185 C 
ATOM     18  OE1 GLU D 570     -22.414  -4.236 -13.455  1.00 32.92    -0.647 OA
ATOM     19  OE2 GLU D 570     -22.114  -6.098 -14.569  1.00 32.92    -0.647 OA
ENDBRANCH  16  17
ENDBRANCH  15  16
ENDBRANCH  14  15
END_RES GLU D 570
ENDMDL
MODEL 5
REMARK VINA RESULT:      -7.5      3.232      5.571
REMARK  6 active torsions:
REMARK  status: ('A' for Active; 'I' for Inactive)
REMARK    1  A    between atoms: C6_4  and  N6_22 
REMARK    2  A    between atoms: N9_9  and  C1*_13 
REMARK    3  A    between atoms: C2*_14  and  O2*_21 
REMARK    4  A    between atoms: C3*_15  and  O3*_20 
REMARK    5  A    between atoms: C4*_16  and  C5*_18 
REMARK    6  A    between atoms: C5*_18  and  O5*_19 
ROOT
ATOM      1  C2    A A   1     -24.505  -3.358 -10.797  1.00  0.00     0.183 A 
ATOM      2  N1    A A   1     -24.202  -3.038 -12.075  1.00  0.00    -0.337 N 
ATOM      3  H1    A A   1     -24.922  -2.709 -12.718  1.00  0.00     0.168 HD
ATOM      4  C6    A A   1     -22.919  -3.166 -12.477  1.00  0.00     0.131 A 
ATOM      5  C5    A A   1     -21.961  -3.568 -11.533  1.00  0.00     0.122 A 
ATOM      6  C4    A A   1     -22.416  -3.885 -10.261  1.00  0.00     0.142 A 
ATOM      7  N3    A A   1     -23.688  -3.820  -9.823  1.00  0.00    -0.336 N 
ATOM      8  H3    A A   1     -23.994  -4.083  -8.886  1.00  0.00     0.168 HD
ATOM      9  N9    A A   1     -21.306  -4.326  -9.599  1.00  0.00    -0.297 N 
ATOM     10  C8    A A   1     -20.239  -4.196 -10.455  1.00  0.00     0.188 A 
ATOM     11  N7    A A   1     -20.597  -3.735 -11.632  1.00  0.00    -0.346 N 
ATOM     12  H7    A A   1     -19.999  -3.543 -12.436  1.00  0.00     0.167 HD
ENDROOT
BRANCH   9  13
ATOM     13  C1*   A A   1     -21.222  -5.031  -8.340  1.00  0.00     0.262 C 
ATOM     14  C2*   A A   1     -21.618  -4.197  -7.126  1.00  0.00     0.198 C 
ATOM     15  C3*   A A   1     -20.735  -4.744  -6.005  1.00  0.00     0.182 C 
ATOM     16  C4*   A A   1     -19.867  -5.822  -6.679  1.00  0.00     0.179 C 
ATOM     17  O4*   A A   1     -19.904  -5.548  -8.094  1.00  0.00    -0.353 OA
BRANCH  14  18
ATOM     18  O2*   A A   1     -23.008  -4.370  -6.834  1.00  0.00    -0.388 OA
ATOM     19  H2*   A A   1     -23.031  -4.895  -6.003  1.00  0.00     0.210 HD
ENDBRANCH  14  18
BRANCH  15  20
ATOM     20  O3*   A A   1     -21.558  -5.165  -4.914  1.00  0.00    -0.390 OA
ATOM     21  H3*   A A   1     -21.882  -6.075  -5.101  1.00  0.00     0.210 HD
ENDBRANCH  15  20
BRANCH  16  22
ATOM     22  C5*   A A   1     -20.330  -7.261  -6.403  1.00  0.00     0.198 C 
BRANCH  22  23
ATOM     23  O5*   A A   1     -19.994  -7.645  -5.071  1.00  0.00    -0.398 OA
ATOM     24  H5*   A A   1     -19.586  -8.529  -5.117  1.00  0.00     0.209 HD
ENDBRANCH  22  23
ENDBRANCH  16  22
ENDBRANCH   9  13
BRANCH   4  25
ATOM     25  N6    A A   1     -22.604  -2.914 -13.804  1.00  0.00    -0.383 N 
ATOM     26  H61   A A   1     -22.318  -1.962 -13.976  1.00  0.00     0.157 HD
ATOM     27  H62   A A   1     -22.090  -3.665 -14.252  1.00  0.00     0.157 HD
ENDBRANCH   4  25
TORSDOF 6
BEGIN_RES ARG D 557
REMARK  4 active torsions:
REMARK  status: ('A' for Active; 'I' for Inactive)
REMARK    1  A    between atoms: CA   and  CB  
REMARK    2  A    between atoms: CB   and  CG  
REMARK    3  A    between atoms: CG   and  CD  
REMARK    4  A    between atoms: CD   and  NE  
REMARK       I    between atoms: NE   and  CZ  
REMARK       I    between atoms: CZ   and  NH1 
REMARK       I    between atoms: CZ   and  NH2 
ROOT
ATOM      1  CA  ARG D 557     -26.217   2.705 -17.014  1.00 35.49     0.159 C 
ENDROOT
BRANCH   1   2
ATOM      2  CB  ARG D 557     -26.789   1.319 -17.183  1.00 35.49     0.034 C 
BRANCH   2   3
ATOM      3  CG  ARG D 557     -28.214   1.150 -16.872  1.00 35.49     0.027 C 
BRANCH   3   4
ATOM      4  CD  ARG D 557     -28.586  -0.271 -16.685  1.00 35.49     0.116 C 
BRANCH   4   5
ATOM      5  NE  ARG D 557     -27.576  -1.006 -15.970  1.00 35.49    -0.212 N 
ATOM      6  CZ  ARG D 557     -27.378  -2.304 -16.038  1.00 35.49     0.666 C 
ATOM      7  NH1 ARG D 557     -28.122  -3.097 -16.786  1.00 35.49    -0.235 N 
ATOM      8  NH2 ARG D 557     -26.400  -2.799 -15.336  1.00 35.49    -0.235 N 
ATOM      9  HH  ARG D 557     -28.770  -2.792 -17.258  1.00 35.49     0.174 HD
ATOM     10  HH  ARG D 557     -27.945  -3.935 -16.793  1.00 35.49     0.174 HD
ATOM     11  HH  ARG D 557     -25.931  -2.262 -14.868  1.00 35.49     0.174 HD
ATOM     12  HH  ARG D 557     -26.239  -3.632 -15.357  1.00 35.49     0.174 HD
ATOM     13  HE  ARG D 557     -27.097  -0.584 -15.409  1.00 35.49     0.178 HD
ENDBRANCH   4   5
ENDBRANCH   3   4
ENDBRANCH   2   3
ENDBRANCH   1   2
END_RES ARG D 557
BEGIN_RES GLU D 570
REMARK  3 active torsions:
REMARK  status: ('A' for Active; 'I' for Inactive)
REMARK    5  A    between atoms: CA   and  CB  
REMARK    6  A    between atoms: CB   and  CG  
REMARK    7  A    between atoms: CG   and  CD  
ROOT
ATOM     14  CA  GLU D 570     -18.033  -6.348 -13.375  1.00 32.92     0.160 C 
ENDROOT
BRANCH  14  15
ATOM     15  CB  GLU D 570     -19.500  -6.345 -13.794  1.00 32.92     0.043 C 
BRANCH  15  16
ATOM     16  CG  GLU D 570     -19.816  -5.907 -15.178  1.00 32.92     0.100 C 
BRANCH  16  17
ATOM     17  CD  GLU D 570     -21.262  -5.508 -15.355  1.00 32.92     0.185 C 
ATOM     18  OE1 GLU D 570     -22.114  -5.956 -14.564  1.00 32.92    -0.647 OA
ATOM     19  OE2 GLU D 570     -21.548  -4.752 -16.304  1.00 32.92    -0.647 OA
ENDBRANCH  16  17
ENDBRANCH  15  16
ENDBRANCH  14  15
END_RES GLU D 570
ENDMDL
MODEL 6
REMARK VINA RESULT:      -7.4      4.490      6.618
REMARK  6 active torsions:
REMARK  status: ('A' for Active; 'I' for Inactive)
REMARK    1  A    between atoms: C6_4  and  N6_22 
REMARK    2  A    between atoms: N9_9  and  C1*_13 
REMARK    3  A    between atoms: C2*_14  and  O2*_21 
REMARK    4  A    between atoms: C3*_15  and  O3*_20 
REMARK    5  A    between atoms: C4*_16  and  C5*_18 
REMARK    6  A    between atoms: C5*_18  and  O5*_19 
ROOT
ATOM      1  C2    A A   1     -22.202  -6.260  -1.744  1.00  0.00     0.183 A 
ATOM      2  N1    A A   1     -21.866  -7.363  -1.040  1.00  0.00    -0.337 N 
ATOM      3  H1    A A   1     -21.940  -7.379  -0.023  1.00  0.00     0.168 HD
ATOM      4  C6    A A   1     -21.429  -8.445  -1.720  1.00  0.00     0.131 A 
ATOM      5  C5    A A   1     -21.402  -8.385  -3.122  1.00  0.00     0.122 A 
ATOM      6  C4    A A   1     -21.755  -7.181  -3.714  1.00  0.00     0.142 A 
ATOM      7  N3    A A   1     -22.152  -6.059  -3.081  1.00  0.00    -0.336 N 
ATOM      8  H3    A A   1     -22.382  -5.181  -3.545  1.00  0.00     0.168 HD
ATOM      9  N9    A A   1     -21.548  -7.380  -5.049  1.00  0.00    -0.297 N 
ATOM     10  C8    A A   1     -21.154  -8.687  -5.212  1.00  0.00     0.188 A 
ATOM     11  N7    A A   1     -21.061  -9.326  -4.069  1.00  0.00    -0.346 N 
ATOM     12  H7    A A   1     -20.797 -10.300  -3.917  1.00  0.00     0.167 HD
ENDROOT
BRANCH   9  13
ATOM     13  C1*   A A   1     -21.495  -6.404  -6.113  1.00  0.00     0.262 C 
ATOM     14  C2*   A A   1     -20.120  -5.778  -6.323  1.00  0.00     0.198 C 
ATOM     15  C3*   A A   1     -20.434  -4.359  -6.795  1.00  0.00     0.182 C 
ATOM     16  C4*   A A   1     -21.971  -4.269  -6.774  1.00  0.00     0.179 C 
ATOM     17  O4*   A A   1     -22.429  -5.330  -5.913  1.00  0.00    -0.353 OA
BRANCH  14  18
ATOM     18  O2*   A A   1     -19.384  -6.511  -7.308  1.00  0.00    -0.388 OA
ATOM     19  H2*   A A   1     -19.102  -5.839  -7.967  1.00  0.00     0.210 HD
ENDBRANCH  14  18
BRANCH  15  20
ATOM     20  O3*   A A   1     -19.788  -4.121  -8.048  1.00  0.00    -0.390 OA
ATOM     21  H3*   A A   1     -20.436  -4.289  -8.769  1.00  0.00     0.210 HD
ENDBRANCH  15  20
BRANCH  16  22
ATOM     22  C5*   A A   1     -22.622  -4.389  -8.160  1.00  0.00     0.198 C 
BRANCH  22  23
ATOM     23  O5*   A A   1     -23.999  -4.023  -8.096  1.00  0.00    -0.398 OA
ATOM     24  H5*   A A   1     -24.241  -3.962  -7.153  1.00  0.00     0.209 HD
ENDBRANCH  22  23
ENDBRANCH  16  22
ENDBRANCH   9  13
BRANCH   4  25
ATOM     25  N6    A A   1     -21.008  -9.559  -1.009  1.00  0.00    -0.383 N 
ATOM     26  H61   A A   1     -20.371 -10.148  -1.524  1.00  0.00     0.157 HD
ATOM     27  H62   A A   1     -20.816  -9.371  -0.032  1.00  0.00     0.157 HD
ENDBRANCH   4  25
TORSDOF 6
BEGIN_RES ARG D 557
REMARK  4 active torsions:
REMARK  status: ('A' for Active; 'I' for Inactive)
REMARK    1  A    between atoms: CA   and  CB  
REMARK    2  A    between atoms: CB   and  CG  
REMARK    3  A    between atoms: CG   and  CD  
REMARK    4  A    between atoms: CD   and  NE  
REMARK       I    between atoms: NE   and  CZ  
REMARK       I    between atoms: CZ   and  NH1 
REMARK       I    between atoms: CZ   and  NH2 
ROOT
ATOM      1  CA  ARG D 557     -26.217   2.705 -17.014  1.00 35.49     0.159 C 
ENDROOT
BRANCH   1   2
ATOM      2  CB  ARG D 557     -26.789   1.319 -17.183  1.00 35.49     0.034 C 
BRANCH   2   3
ATOM      3  CG  ARG D 557     -25.836   0.203 -17.155  1.00 35.49     0.027 C 
BRANCH   3   4
ATOM      4  CD  ARG D 557     -24.751   0.412 -16.169  1.00 35.49     0.116 C 
BRANCH   4   5
ATOM      5  NE  ARG D 557     -24.896  -0.437 -15.015  1.00 35.49    -0.212 N 
ATOM      6  CZ  ARG D 557     -24.082  -1.408 -14.669  1.00 35.49     0.666 C 
ATOM      7  NH1 ARG D 557     -23.015  -1.726 -15.378  1.00 35.49    -0.235 N 
ATOM      8  NH2 ARG D 557     -24.357  -2.062 -13.577  1.00 35.49    -0.235 N 
ATOM      9  HH  ARG D 557     -22.814  -1.308 -16.099  1.00 35.49     0.174 HD
ATOM     10  HH  ARG D 557     -22.518  -2.367 -15.102  1.00 35.49     0.174 HD
ATOM     11  HH  ARG D 557     -25.048  -1.829 -13.135  1.00 35.49     0.174 HD
ATOM     12  HH  ARG D 557     -23.852  -2.692 -13.320  1.00 35.49     0.174 HD
ATOM     13  HE  ARG D 557     -25.597  -0.349 -14.541  1.00 35.49     0.178 HD
ENDBRANCH   4   5
ENDBRANCH   3   4
ENDBRANCH   2   3
ENDBRANCH   1   2
END_RES ARG D 557
BEGIN_RES GLU D 570
REMARK  3 active torsions:
REMARK  status: ('A' for Active; 'I' for Inactive)
REMARK    5  A    between atoms: CA   and  CB  
REMARK    6  A    between atoms: CB   and  CG  
REMARK    7  A    between atoms: CG   and  CD  
ROOT
ATOM     14  CA  GLU D 570     -18.033  -6.348 -13.375  1.00 32.92     0.160 C 
ENDROOT
BRANCH  14  15
ATOM     15  CB  GLU D 570     -19.500  -6.345 -13.794  1.00 32.92     0.043 C 
BRANCH  15  16
ATOM     16  CG  GLU D 570     -20.442  -5.533 -12.981  1.00 32.92     0.100 C 
BRANCH  16  17
ATOM     17  CD  GLU D 570     -21.741  -5.245 -13.698  1.00 32.92     0.185 C 
ATOM     18  OE1 GLU D 570     -22.217  -6.109 -14.459  1.00 32.92    -0.647 OA
ATOM     19  OE2 GLU D 570     -22.280  -4.137 -13.508  1.00 32.92    -0.647 OA
ENDBRANCH  16  17
ENDBRANCH  15  16
ENDBRANCH  14  15
END_RES GLU D 570
ENDMDL
MODEL 7
REMARK VINA RESULT:      -7.4      3.817      7.445
REMARK  6 active torsions:
REMARK  status: ('A' for Active; 'I' for Inactive)
REMARK    1  A    between atoms: C6_4  and  N6_22 
REMARK    2  A    between atoms: N9_9  and  C1*_13 
REMARK    3  A    between atoms: C2*_14  and  O2*_21 
REMARK    4  A    between atoms: C3*_15  and  O3*_20 
REMARK    5  A    between atoms: C4*_16  and  C5*_18 
REMARK    6  A    between atoms: C5*_18  and  O5*_19 
ROOT
ATOM      1  C2    A A   1     -29.410  -2.918 -17.404  1.00  0.00     0.183 A 
ATOM      2  N1    A A   1     -30.703  -3.280 -17.245  1.00  0.00    -0.337 N 
ATOM      3  H1    A A   1     -31.454  -2.598 -17.351  1.00  0.00     0.168 HD
ATOM      4  C6    A A   1     -30.971  -4.568 -16.944  1.00  0.00     0.131 A 
ATOM      5  C5    A A   1     -29.901  -5.472 -16.868  1.00  0.00     0.122 A 
ATOM      6  C4    A A   1     -28.622  -4.960 -17.033  1.00  0.00     0.142 A 
ATOM      7  N3    A A   1     -28.297  -3.677 -17.288  1.00  0.00    -0.336 N 
ATOM      8  H3    A A   1     -27.343  -3.327 -17.380  1.00  0.00     0.168 HD
ATOM      9  N9    A A   1     -27.794  -6.024 -16.817  1.00  0.00    -0.297 N 
ATOM     10  C8    A A   1     -28.589  -7.125 -16.603  1.00  0.00     0.188 A 
ATOM     11  N7    A A   1     -29.868  -6.830 -16.634  1.00  0.00    -0.346 N 
ATOM     12  H7    A A   1     -30.659  -7.463 -16.512  1.00  0.00     0.167 HD
ENDROOT
BRANCH   9  13
ATOM     13  C1*   A A   1     -26.365  -6.031 -16.596  1.00  0.00     0.262 C 
ATOM     14  C2*   A A   1     -25.590  -6.949 -17.534  1.00  0.00     0.198 C 
ATOM     15  C3*   A A   1     -24.414  -7.428 -16.684  1.00  0.00     0.182 C 
ATOM     16  C4*   A A   1     -24.634  -6.779 -15.306  1.00  0.00     0.179 C 
ATOM     17  O4*   A A   1     -26.026  -6.405 -15.251  1.00  0.00    -0.353 OA
BRANCH  14  18
ATOM     18  O2*   A A   1     -25.148  -6.226 -18.687  1.00  0.00    -0.388 OA
ATOM     19  H2*   A A   1     -24.630  -6.876 -19.212  1.00  0.00     0.210 HD
ENDBRANCH  14  18
BRANCH  15  20
ATOM     20  O3*   A A   1     -23.188  -7.123 -17.354  1.00  0.00    -0.390 OA
ATOM     21  H3*   A A   1     -23.175  -6.161 -17.556  1.00  0.00     0.210 HD
ENDBRANCH  15  20
BRANCH  16  22
ATOM     22  C5*   A A   1     -23.743  -5.555 -15.042  1.00  0.00     0.198 C 
BRANCH  22  23
ATOM     23  O5*   A A   1     -23.717  -5.251 -13.648  1.00  0.00    -0.398 OA
ATOM     24  H5*   A A   1     -23.011  -5.791 -13.246  1.00  0.00     0.209 HD
ENDBRANCH  22  23
ENDBRANCH  16  22
ENDBRANCH   9  13
BRANCH   4  25
ATOM     25  N6    A A   1     -32.285  -4.940 -16.703  1.00  0.00    -0.383 N 
ATOM     26  H61   A A   1     -32.535  -5.826 -17.117  1.00  0.00     0.157 HD
ATOM     27  H62   A A   1     -32.603  -4.736 -15.762  1.00  0.00     0.157 HD
ENDBRANCH   4  25
TORSDOF 6
BEGIN_RES ARG D 557
REMARK  4 active torsions:
REMARK  status: ('A' for Active; 'I' for Inactive)
REMARK    1  A    between atoms: CA   and  CB  
REMARK    2  A    between atoms: CB   and  CG  
REMARK    3  A    between atoms: CG   and  CD  
REMARK    4  A    between atoms: CD   and  NE  
REMARK       I    between atoms: NE   and  CZ  
REMARK       I    between atoms: CZ   and  NH1 
REMARK       I    between atoms: CZ   and  NH2 
ROOT
ATOM      1  CA  ARG D 557     -26.217   2.705 -17.014  1.00 35.49     0.159 C 
ENDROOT
BRANCH   1   2
ATOM      2  CB  ARG D 557     -26.789   1.319 -17.183  1.00 35.49     0.034 C 
BRANCH   2   3
ATOM      3  CG  ARG D 557     -25.871   0.194 -16.966  1.00 35.49     0.027 C 
BRANCH   3   4
ATOM      4  CD  ARG D 557     -26.361  -0.741 -15.928  1.00 35.49     0.116 C 
BRANCH   4   5
ATOM      5  NE  ARG D 557     -25.358  -1.023 -14.934  1.00 35.49    -0.212 N 
ATOM      6  CZ  ARG D 557     -25.227  -2.151 -14.273  1.00 35.49     0.666 C 
ATOM      7  NH1 ARG D 557     -26.042  -3.175 -14.449  1.00 35.49    -0.235 N 
ATOM      8  NH2 ARG D 557     -24.245  -2.238 -13.423  1.00 35.49    -0.235 N 
ATOM      9  HH  ARG D 557     -26.694  -3.140 -15.005  1.00 35.49     0.174 HD
ATOM     10  HH  ARG D 557     -25.907  -3.886 -13.991  1.00 35.49     0.174 HD
ATOM     11  HH  ARG D 557     -23.730  -1.564 -13.336  1.00 35.49     0.174 HD
ATOM     12  HH  ARG D 557     -24.127  -2.952 -12.981  1.00 35.49     0.174 HD
ATOM     13  HE  ARG D 557     -24.835  -0.393 -14.706  1.00 35.49     0.178 HD
ENDBRANCH   4   5
ENDBRANCH   3   4
ENDBRANCH   2   3
ENDBRANCH   1   2
END_RES ARG D 557
BEGIN_RES GLU D 570
REMARK  3 active torsions:
REMARK  status: ('A' for Active; 'I' for Inactive)
REMARK    5  A    between atoms: CA   and  CB  
REMARK    6  A    between atoms: CB   and  CG  
REMARK    7  A    between atoms: CG   and  CD  
ROOT
ATOM     14  CA  GLU D 570     -18.033  -6.348 -13.375  1.00 32.92     0.160 C 
ENDROOT
BRANCH  14  15
ATOM     15  CB  GLU D 570     -19.500  -6.345 -13.794  1.00 32.92     0.043 C 
BRANCH  15  16
ATOM     16  CG  GLU D 570     -20.090  -7.637 -14.229  1.00 32.92     0.100 C 
BRANCH  16  17
ATOM     17  CD  GLU D 570     -20.540  -7.624 -15.672  1.00 32.92     0.185 C 
ATOM     18  OE1 GLU D 570     -20.854  -8.699 -16.218  1.00 32.92    -0.647 OA
ATOM     19  OE2 GLU D 570     -20.562  -6.528 -16.267  1.00 32.92    -0.647 OA
ENDBRANCH  16  17
ENDBRANCH  15  16
ENDBRANCH  14  15
END_RES GLU D 570
ENDMDL
MODEL 8
REMARK VINA RESULT:      -7.0      4.279      6.624
REMARK  6 active torsions:
REMARK  status: ('A' for Active; 'I' for Inactive)
REMARK    1  A    between atoms: C6_4  and  N6_22 
REMARK    2  A    between atoms: N9_9  and  C1*_13 
REMARK    3  A    between atoms: C2*_14  and  O2*_21 
REMARK    4  A    between atoms: C3*_15  and  O3*_20 
REMARK    5  A    between atoms: C4*_16  and  C5*_18 
REMARK    6  A    between atoms: C5*_18  and  O5*_19 
ROOT
ATOM      1  C2    A A   1     -23.925  -3.889  -8.637  1.00  0.00     0.183 A 
ATOM      2  N1    A A   1     -23.474  -3.530  -9.860  1.00  0.00    -0.337 N 
ATOM      3  H1    A A   1     -24.109  -3.156 -10.564  1.00  0.00     0.168 HD
ATOM      4  C6    A A   1     -22.158  -3.681 -10.123  1.00  0.00     0.131 A 
ATOM      5  C5    A A   1     -21.322  -4.146  -9.096  1.00  0.00     0.122 A 
ATOM      6  C4    A A   1     -21.923  -4.496  -7.895  1.00  0.00     0.142 A 
ATOM      7  N3    A A   1     -23.234  -4.410  -7.598  1.00  0.00    -0.336 N 
ATOM      8  H3    A A   1     -23.649  -4.699  -6.712  1.00  0.00     0.168 HD
ATOM      9  N9    A A   1     -20.905  -4.994  -7.134  1.00  0.00    -0.297 N 
ATOM     10  C8    A A   1     -19.746  -4.865  -7.861  1.00  0.00     0.188 A 
ATOM     11  N7    A A   1     -19.959  -4.350  -9.050  1.00  0.00    -0.346 N 
ATOM     12  H7    A A   1     -19.271  -4.146  -9.775  1.00  0.00     0.167 HD
ENDROOT
BRANCH   9  13
ATOM     13  C1*   A A   1     -20.980  -5.748  -5.902  1.00  0.00     0.262 C 
ATOM     14  C2*   A A   1     -20.911  -7.260  -6.086  1.00  0.00     0.198 C 
ATOM     15  C3*   A A   1     -21.779  -7.804  -4.952  1.00  0.00     0.182 C 
ATOM     16  C4*   A A   1     -22.316  -6.553  -4.232  1.00  0.00     0.179 C 
ATOM     17  O4*   A A   1     -22.177  -5.459  -5.161  1.00  0.00    -0.353 OA
BRANCH  14  18
ATOM     18  O2*   A A   1     -19.559  -7.714  -5.979  1.00  0.00    -0.388 OA
ATOM     19  H2*   A A   1     -19.078  -6.981  -5.534  1.00  0.00     0.210 HD
ENDBRANCH  14  18
BRANCH  15  20
ATOM     20  O3*   A A   1     -21.015  -8.723  -4.167  1.00  0.00    -0.390 OA
ATOM     21  H3*   A A   1     -21.409  -9.619  -4.266  1.00  0.00     0.210 HD
ENDBRANCH  15  20
BRANCH  16  22
ATOM     22  C5*   A A   1     -21.592  -6.230  -2.917  1.00  0.00     0.198 C 
BRANCH  22  23
ATOM     23  O5*   A A   1     -22.523  -5.785  -1.932  1.00  0.00    -0.398 OA
ATOM     24  H5*   A A   1     -22.009  -5.485  -1.160  1.00  0.00     0.209 HD
ENDBRANCH  22  23
ENDBRANCH  16  22
ENDBRANCH   9  13
BRANCH   4  25
ATOM     25  N6    A A   1     -21.691  -3.390 -11.396  1.00  0.00    -0.383 N 
ATOM     26  H61   A A   1     -21.897  -2.448 -11.694  1.00  0.00     0.157 HD
ATOM     27  H62   A A   1     -20.773  -3.773 -11.592  1.00  0.00     0.157 HD
ENDBRANCH   4  25
TORSDOF 6
BEGIN_RES ARG D 557
REMARK  4 active torsions:
REMARK  status: ('A' for Active; 'I' for Inactive)
REMARK    1  A    between atoms: CA   and  CB  
REMARK    2  A    between atoms: CB   and  CG  
REMARK    3  A    between atoms: CG   and  CD  
REMARK    4  A    between atoms: CD   and  NE  
REMARK       I    between atoms: NE   and  CZ  
REMARK       I    between atoms: CZ   and  NH1 
REMARK       I    between atoms: CZ   and  NH2 
ROOT
ATOM      1  CA  ARG D 557     -26.217   2.705 -17.014  1.00 35.49     0.159 C 
ENDROOT
BRANCH   1   2
ATOM      2  CB  ARG D 557     -26.789   1.319 -17.183  1.00 35.49     0.034 C 
BRANCH   2   3
ATOM      3  CG  ARG D 557     -25.866   0.195 -16.987  1.00 35.49     0.027 C 
BRANCH   3   4
ATOM      4  CD  ARG D 557     -26.340  -0.751 -15.952  1.00 35.49     0.116 C 
BRANCH   4   5
ATOM      5  NE  ARG D 557     -25.352  -0.976 -14.929  1.00 35.49    -0.212 N 
ATOM      6  CZ  ARG D 557     -25.110  -2.123 -14.334  1.00 35.49     0.666 C 
ATOM      7  NH1 ARG D 557     -25.784  -3.223 -14.614  1.00 35.49    -0.235 N 
ATOM      8  NH2 ARG D 557     -24.161  -2.149 -13.444  1.00 35.49    -0.235 N 
ATOM      9  HH  ARG D 557     -26.411  -3.230 -15.198  1.00 35.49     0.174 HD
ATOM     10  HH  ARG D 557     -25.580  -3.943 -14.196  1.00 35.49     0.174 HD
ATOM     11  HH  ARG D 557     -23.738  -1.425 -13.289  1.00 35.49     0.174 HD
ATOM     12  HH  ARG D 557     -23.974  -2.871 -13.042  1.00 35.49     0.174 HD
ATOM     13  HE  ARG D 557     -24.921  -0.305 -14.636  1.00 35.49     0.178 HD
ENDBRANCH   4   5
ENDBRANCH   3   4
ENDBRANCH   2   3
ENDBRANCH   1   2
END_RES ARG D 557
BEGIN_RES GLU D 570
REMARK  3 active torsions:
REMARK  status: ('A' for Active; 'I' for Inactive)
REMARK    5  A    between atoms: CA   and  CB  
REMARK    6  A    between atoms: CB   and  CG  
REMARK    7  A    between atoms: CG   and  CD  
ROOT
ATOM     14  CA  GLU D 570     -18.033  -6.348 -13.375  1.00 32.92     0.160 C 
ENDROOT
BRANCH  14  15
ATOM     15  CB  GLU D 570     -19.500  -6.345 -13.794  1.00 32.92     0.043 C 
BRANCH  15  16
ATOM     16  CG  GLU D 570     -19.804  -6.054 -15.219  1.00 32.92     0.100 C 
BRANCH  16  17
ATOM     17  CD  GLU D 570     -21.275  -5.813 -15.470  1.00 32.92     0.185 C 
ATOM     18  OE1 GLU D 570     -22.098  -6.679 -15.119  1.00 32.92    -0.647 OA
ATOM     19  OE2 GLU D 570     -21.605  -4.754 -16.039  1.00 32.92    -0.647 OA
ENDBRANCH  16  17
ENDBRANCH  15  16
ENDBRANCH  14  15
END_RES GLU D 570
ENDMDL
MODEL 9
REMARK VINA RESULT:      -7.0      4.272      6.257
REMARK  6 active torsions:
REMARK  status: ('A' for Active; 'I' for Inactive)
REMARK    1  A    between atoms: C6_4  and  N6_22 
REMARK    2  A    between atoms: N9_9  and  C1*_13 
REMARK    3  A    between atoms: C2*_14  and  O2*_21 
REMARK    4  A    between atoms: C3*_15  and  O3*_20 
REMARK    5  A    between atoms: C4*_16  and  C5*_18 
REMARK    6  A    between atoms: C5*_18  and  O5*_19 
ROOT
ATOM      1  C2    A A   1     -22.200  -6.269  -1.732  1.00  0.00     0.183 A 
ATOM      2  N1    A A   1     -21.859  -7.371  -1.026  1.00  0.00    -0.337 N 
ATOM      3  H1    A A   1     -21.935  -7.385  -0.009  1.00  0.00     0.168 HD
ATOM      4  C6    A A   1     -21.417  -8.451  -1.704  1.00  0.00     0.131 A 
ATOM      5  C5    A A   1     -21.389  -8.393  -3.106  1.00  0.00     0.122 A 
ATOM      6  C4    A A   1     -21.747  -7.191  -3.700  1.00  0.00     0.142 A 
ATOM      7  N3    A A   1     -22.149  -6.071  -3.069  1.00  0.00    -0.336 N 
ATOM      8  H3    A A   1     -22.383  -5.194  -3.535  1.00  0.00     0.168 HD
ATOM      9  N9    A A   1     -21.537  -7.392  -5.034  1.00  0.00    -0.297 N 
ATOM     10  C8    A A   1     -21.137  -8.696  -5.196  1.00  0.00     0.188 A 
ATOM     11  N7    A A   1     -21.042  -9.334  -4.052  1.00  0.00    -0.346 N 
ATOM     12  H7    A A   1     -20.774 -10.306  -3.898  1.00  0.00     0.167 HD
ENDROOT
BRANCH   9  13
ATOM     13  C1*   A A   1     -21.487  -6.416  -6.100  1.00  0.00     0.262 C 
ATOM     14  C2*   A A   1     -20.110  -5.798  -6.321  1.00  0.00     0.198 C 
ATOM     15  C3*   A A   1     -20.421  -4.378  -6.792  1.00  0.00     0.182 C 
ATOM     16  C4*   A A   1     -21.957  -4.279  -6.760  1.00  0.00     0.179 C 
ATOM     17  O4*   A A   1     -22.414  -5.337  -5.893  1.00  0.00    -0.353 OA
BRANCH  14  18
ATOM     18  O2*   A A   1     -19.386  -6.535  -7.311  1.00  0.00    -0.388 OA
ATOM     19  H2*   A A   1     -18.487  -6.139  -7.317  1.00  0.00     0.210 HD
ENDBRANCH  14  18
BRANCH  15  20
ATOM     20  O3*   A A   1     -19.784  -4.144  -8.050  1.00  0.00    -0.390 OA
ATOM     21  H3*   A A   1     -20.013  -3.237  -8.352  1.00  0.00     0.210 HD
ENDBRANCH  15  20
BRANCH  16  22
ATOM     22  C5*   A A   1     -22.620  -4.398  -8.140  1.00  0.00     0.198 C 
BRANCH  22  23
ATOM     23  O5*   A A   1     -23.997  -4.036  -8.064  1.00  0.00    -0.398 OA
ATOM     24  H5*   A A   1     -24.509  -4.860  -7.954  1.00  0.00     0.209 HD
ENDBRANCH  22  23
ENDBRANCH  16  22
ENDBRANCH   9  13
BRANCH   4  25
ATOM     25  N6    A A   1     -20.992  -9.562  -0.991  1.00  0.00    -0.383 N 
ATOM     26  H61   A A   1     -20.882 -10.388  -1.561  1.00  0.00     0.157 HD
ATOM     27  H62   A A   1     -20.287  -9.355  -0.293  1.00  0.00     0.157 HD
ENDBRANCH   4  25
TORSDOF 6
BEGIN_RES ARG D 557
REMARK  4 active torsions:
REMARK  status: ('A' for Active; 'I' for Inactive)
REMARK    1  A    between atoms: CA   and  CB  
REMARK    2  A    between atoms: CB   and  CG  
REMARK    3  A    between atoms: CG   and  CD  
REMARK    4  A    between atoms: CD   and  NE  
REMARK       I    between atoms: NE   and  CZ  
REMARK       I    between atoms: CZ   and  NH1 
REMARK       I    between atoms: CZ   and  NH2 
ROOT
ATOM      1  CA  ARG D 557     -26.217   2.705 -17.014  1.00 35.49     0.159 C 
ENDROOT
BRANCH   1   2
ATOM      2  CB  ARG D 557     -26.789   1.319 -17.183  1.00 35.49     0.034 C 
BRANCH   2   3
ATOM      3  CG  ARG D 557     -28.228   1.163 -16.935  1.00 35.49     0.027 C 
BRANCH   3   4
ATOM      4  CD  ARG D 557     -28.614  -0.251 -16.724  1.00 35.49     0.116 C 
BRANCH   4   5
ATOM      5  NE  ARG D 557     -27.605  -0.988 -16.010  1.00 35.49    -0.212 N 
ATOM      6  CZ  ARG D 557     -27.407  -2.285 -16.080  1.00 35.49     0.666 C 
ATOM      7  NH1 ARG D 557     -28.150  -3.076 -16.832  1.00 35.49    -0.235 N 
ATOM      8  NH2 ARG D 557     -26.430  -2.782 -15.378  1.00 35.49    -0.235 N 
ATOM      9  HH  ARG D 557     -28.797  -2.770 -17.304  1.00 35.49     0.174 HD
ATOM     10  HH  ARG D 557     -27.972  -3.914 -16.840  1.00 35.49     0.174 HD
ATOM     11  HH  ARG D 557     -25.962  -2.246 -14.908  1.00 35.49     0.174 HD
ATOM     12  HH  ARG D 557     -26.269  -3.614 -15.401  1.00 35.49     0.174 HD
ATOM     13  HE  ARG D 557     -27.127  -0.567 -15.446  1.00 35.49     0.178 HD
ENDBRANCH   4   5
ENDBRANCH   3   4
ENDBRANCH   2   3
ENDBRANCH   1   2
END_RES ARG D 557
BEGIN_RES GLU D 570
REMARK  3 active torsions:
REMARK  status: ('A' for Active; 'I' for Inactive)
REMARK    5  A    between atoms: CA   and  CB  
REMARK    6  A    between atoms: CB   and  CG  
REMARK    7  A    between atoms: CG   and  CD  
ROOT
ATOM     14  CA  GLU D 570     -18.033  -6.348 -13.375  1.00 32.92     0.160 C 
ENDROOT
BRANCH  14  15
ATOM     15  CB  GLU D 570     -19.500  -6.345 -13.794  1.00 32.92     0.043 C 
BRANCH  15  16
ATOM     16  CG  GLU D 570     -20.443  -5.536 -12.980  1.00 32.92     0.100 C 
BRANCH  16  17
ATOM     17  CD  GLU D 570     -21.733  -5.229 -13.703  1.00 32.92     0.185 C 
ATOM     18  OE1 GLU D 570     -22.134  -6.013 -14.584  1.00 32.92    -0.647 OA
ATOM     19  OE2 GLU D 570     -22.341  -4.184 -13.397  1.00 32.92    -0.647 OA
ENDBRANCH  16  17
ENDBRANCH  15  16
ENDBRANCH  14  15
END_RES GLU D 570
ENDMDL
