MODEL 1
REMARK VINA RESULT:      -8.6      0.000      0.000
REMARK  10 active torsions:
REMARK  status: ('A' for Active; 'I' for Inactive)
REMARK    1  A    between atoms: C_2  and  C_3 
REMARK    2  A    between atoms: C_3  and  C_4 
REMARK    3  A    between atoms: C_4  and  C_5 
REMARK    4  A    between atoms: C_5  and  C_6 
REMARK    5  A    between atoms: C_6  and  C_7 
REMARK    6  A    between atoms: C_7  and  C_8 
REMARK    7  A    between atoms: C_8  and  C_10 
REMARK    8  A    between atoms: C_12  and  C_17 
REMARK    9  A    between atoms: C_13  and  O_16 
REMARK   10  A    between atoms: C_17  and  O_19 
ROOT
HETATM    1  C   UNL     1     -23.942  -3.536 -11.621  1.00  0.00     0.011 A 
HETATM    2  C   UNL     1     -24.618  -2.735 -12.548  1.00  0.00     0.036 A 
HETATM    3  C   UNL     1     -24.100  -2.552 -13.838  1.00  0.00     0.071 A 
HETATM    4  C   UNL     1     -22.899  -3.181 -14.181  1.00  0.00     0.082 A 
HETATM    5  C   UNL     1     -22.218  -3.982 -13.263  1.00  0.00     0.038 A 
HETATM    6  C   UNL     1     -22.737  -4.153 -11.979  1.00  0.00     0.018 A 
ENDROOT
BRANCH   1   7
HETATM    7  C   UNL     1     -24.476  -3.752 -10.247  1.00  0.00     0.159 C 
HETATM    8  O   UNL     1     -25.527  -3.198  -9.929  1.00  0.00    -0.292 OA
BRANCH   7   9
HETATM    9  C   UNL     1     -23.677  -4.625  -9.293  1.00  0.00     0.084 C 
BRANCH   9  10
HETATM   10  C   UNL     1     -22.625  -3.819  -8.537  1.00  0.00     0.008 C 
BRANCH  10  11
HETATM   11  C   UNL     1     -21.351  -4.629  -8.304  1.00  0.00     0.000 C 
BRANCH  11  12
HETATM   12  C   UNL     1     -20.519  -4.028  -7.171  1.00  0.00     0.000 C 
BRANCH  12  13
HETATM   13  C   UNL     1     -20.262  -5.051  -6.065  1.00  0.00    -0.000 C 
BRANCH  13  14
HETATM   14  C   UNL     1     -21.128  -6.297  -6.247  1.00  0.00    -0.005 C 
HETATM   15  C   UNL     1     -22.137  -6.437  -5.117  1.00  0.00     0.005 C 
ENDBRANCH  13  14
ENDBRANCH  12  13
ENDBRANCH  11  12
ENDBRANCH  10  11
ENDBRANCH   9  10
ENDBRANCH   7   9
ENDBRANCH   1   7
BRANCH   3  16
HETATM   16  C   UNL     1     -24.840  -1.622 -14.737  1.00  0.00     0.179 C 
HETATM   17  O   UNL     1     -25.966  -1.853 -15.115  1.00  0.00    -0.646 OA
BRANCH  16  18
HETATM   18  O   UNL     1     -24.157  -0.517 -15.106  1.00  0.00    -0.773 OA
HETATM   19  H   UNL     1     -23.186  -0.647 -15.159  1.00  0.00     0.167 HD
ENDBRANCH  16  18
ENDBRANCH   3  16
BRANCH   4  20
HETATM   20  O   UNL     1     -22.350  -3.034 -15.424  1.00  0.00    -0.360 OA
HETATM   21  H   UNL     1     -23.047  -2.650 -15.994  1.00  0.00     0.217 HD
ENDBRANCH   4  20
TORSDOF 10
BEGIN_RES ARG D 557
REMARK  4 active torsions:
REMARK  status: ('A' for Active; 'I' for Inactive)
REMARK    1  A    between atoms: CA   and  CB  
REMARK    2  A    between atoms: CB   and  CG  
REMARK    3  A    between atoms: CG   and  CD  
REMARK    4  A    between atoms: CD   and  NE  
REMARK       I    between atoms: NE   and  CZ  
REMARK       I    between atoms: CZ   and  NH1 
REMARK       I    between atoms: CZ   and  NH2 
ROOT
ATOM      1  CA  ARG D 557     -26.217   2.705 -17.014  1.00 35.49     0.159 C 
ENDROOT
BRANCH   1   2
ATOM      2  CB  ARG D 557     -26.789   1.319 -17.183  1.00 35.49     0.034 C 
BRANCH   2   3
ATOM      3  CG  ARG D 557     -28.147   1.098 -16.672  1.00 35.49     0.027 C 
BRANCH   3   4
ATOM      4  CD  ARG D 557     -28.803  -0.073 -17.299  1.00 35.49     0.116 C 
BRANCH   4   5
ATOM      5  NE  ARG D 557     -28.208  -1.315 -16.882  1.00 35.49    -0.212 N 
ATOM      6  CZ  ARG D 557     -28.721  -2.511 -17.063  1.00 35.49     0.666 C 
ATOM      7  NH1 ARG D 557     -29.885  -2.701 -17.657  1.00 35.49    -0.235 N 
ATOM      8  NH2 ARG D 557     -28.033  -3.530 -16.638  1.00 35.49    -0.235 N 
ATOM      9  HH  ARG D 557     -30.354  -2.045 -17.947  1.00 35.49     0.174 HD
ATOM     10  HH  ARG D 557     -30.168  -3.504 -17.750  1.00 35.49     0.174 HD
ATOM     11  HH  ARG D 557     -27.281  -3.378 -16.265  1.00 35.49     0.174 HD
ATOM     12  HH  ARG D 557     -28.330  -4.318 -16.741  1.00 35.49     0.174 HD
ATOM     13  HE  ARG D 557     -27.491  -1.281 -16.426  1.00 35.49     0.178 HD
ENDBRANCH   4   5
ENDBRANCH   3   4
ENDBRANCH   2   3
ENDBRANCH   1   2
END_RES ARG D 557
BEGIN_RES GLU D 570
REMARK  3 active torsions:
REMARK  status: ('A' for Active; 'I' for Inactive)
REMARK    5  A    between atoms: CA   and  CB  
REMARK    6  A    between atoms: CB   and  CG  
REMARK    7  A    between atoms: CG   and  CD  
ROOT
ATOM     14  CA  GLU D 570     -18.033  -6.348 -13.375  1.00 32.92     0.160 C 
ENDROOT
BRANCH  14  15
ATOM     15  CB  GLU D 570     -19.500  -6.345 -13.794  1.00 32.92     0.043 C 
BRANCH  15  16
ATOM     16  CG  GLU D 570     -19.812  -5.943 -15.190  1.00 32.92     0.100 C 
BRANCH  16  17
ATOM     17  CD  GLU D 570     -21.078  -6.578 -15.717  1.00 32.92     0.185 C 
ATOM     18  OE1 GLU D 570     -21.932  -5.858 -16.269  1.00 32.92    -0.647 OA
ATOM     19  OE2 GLU D 570     -21.225  -7.807 -15.560  1.00 32.92    -0.647 OA
ENDBRANCH  16  17
ENDBRANCH  15  16
ENDBRANCH  14  15
END_RES GLU D 570
ENDMDL
MODEL 2
REMARK VINA RESULT:      -8.5      2.857      4.420
REMARK  10 active torsions:
REMARK  status: ('A' for Active; 'I' for Inactive)
REMARK    1  A    between atoms: C_2  and  C_3 
REMARK    2  A    between atoms: C_3  and  C_4 
REMARK    3  A    between atoms: C_4  and  C_5 
REMARK    4  A    between atoms: C_5  and  C_6 
REMARK    5  A    between atoms: C_6  and  C_7 
REMARK    6  A    between atoms: C_7  and  C_8 
REMARK    7  A    between atoms: C_8  and  C_10 
REMARK    8  A    between atoms: C_12  and  C_17 
REMARK    9  A    between atoms: C_13  and  O_16 
REMARK   10  A    between atoms: C_17  and  O_19 
ROOT
HETATM    1  C   UNL     1     -21.278  -4.768  -8.765  1.00  0.00     0.011 A 
HETATM    2  C   UNL     1     -22.603  -4.382  -8.996  1.00  0.00     0.036 A 
HETATM    3  C   UNL     1     -22.952  -3.719 -10.180  1.00  0.00     0.071 A 
HETATM    4  C   UNL     1     -21.957  -3.449 -11.125  1.00  0.00     0.082 A 
HETATM    5  C   UNL     1     -20.633  -3.832 -10.904  1.00  0.00     0.038 A 
HETATM    6  C   UNL     1     -20.292  -4.485  -9.718  1.00  0.00     0.018 A 
ENDROOT
BRANCH   1   7
HETATM    7  C   UNL     1     -20.883  -5.480  -7.517  1.00  0.00     0.159 C 
HETATM    8  O   UNL     1     -19.930  -6.256  -7.558  1.00  0.00    -0.292 OA
BRANCH   7   9
HETATM    9  C   UNL     1     -21.699  -5.233  -6.259  1.00  0.00     0.084 C 
BRANCH   9  10
HETATM   10  C   UNL     1     -20.948  -5.671  -5.005  1.00  0.00     0.008 C 
BRANCH  10  11
HETATM   11  C   UNL     1     -21.739  -6.703  -4.203  1.00  0.00     0.000 C 
BRANCH  11  12
HETATM   12  C   UNL     1     -21.231  -6.785  -2.763  1.00  0.00     0.000 C 
BRANCH  12  13
HETATM   13  C   UNL     1     -22.283  -6.285  -1.772  1.00  0.00    -0.000 C 
BRANCH  13  14
HETATM   14  C   UNL     1     -22.336  -7.167  -0.525  1.00  0.00    -0.005 C 
HETATM   15  C   UNL     1     -21.619  -8.488  -0.753  1.00  0.00     0.005 C 
ENDBRANCH  13  14
ENDBRANCH  12  13
ENDBRANCH  11  12
ENDBRANCH  10  11
ENDBRANCH   9  10
ENDBRANCH   7   9
ENDBRANCH   1   7
BRANCH   3  16
HETATM   16  C   UNL     1     -24.368  -3.271 -10.312  1.00  0.00     0.179 C 
HETATM   17  O   UNL     1     -24.923  -3.205 -11.385  1.00  0.00    -0.646 OA
BRANCH  16  18
HETATM   18  O   UNL     1     -24.974  -2.936  -9.154  1.00  0.00    -0.773 OA
HETATM   19  H   UNL     1     -24.376  -2.518  -8.497  1.00  0.00     0.167 HD
ENDBRANCH  16  18
ENDBRANCH   3  16
BRANCH   4  20
HETATM   20  O   UNL     1     -22.244  -2.805 -12.295  1.00  0.00    -0.360 OA
HETATM   21  H   UNL     1     -22.872  -2.089 -12.073  1.00  0.00     0.217 HD
ENDBRANCH   4  20
TORSDOF 10
BEGIN_RES ARG D 557
REMARK  4 active torsions:
REMARK  status: ('A' for Active; 'I' for Inactive)
REMARK    1  A    between atoms: CA   and  CB  
REMARK    2  A    between atoms: CB   and  CG  
REMARK    3  A    between atoms: CG   and  CD  
REMARK    4  A    between atoms: CD   and  NE  
REMARK       I    between atoms: NE   and  CZ  
REMARK       I    between atoms: CZ   and  NH1 
REMARK       I    between atoms: CZ   and  NH2 
ROOT
ATOM      1  CA  ARG D 557     -26.217   2.705 -17.014  1.00 35.49     0.159 C 
ENDROOT
BRANCH   1   2
ATOM      2  CB  ARG D 557     -26.789   1.319 -17.183  1.00 35.49     0.034 C 
BRANCH   2   3
ATOM      3  CG  ARG D 557     -25.885   0.194 -16.915  1.00 35.49     0.027 C 
BRANCH   3   4
ATOM      4  CD  ARG D 557     -25.029   0.428 -15.729  1.00 35.49     0.116 C 
BRANCH   4   5
ATOM      5  NE  ARG D 557     -23.899  -0.462 -15.692  1.00 35.49    -0.212 N 
ATOM      6  CZ  ARG D 557     -23.767  -1.503 -14.901  1.00 35.49     0.666 C 
ATOM      7  NH1 ARG D 557     -24.687  -1.843 -14.017  1.00 35.49    -0.235 N 
ATOM      8  NH2 ARG D 557     -22.682  -2.213 -15.019  1.00 35.49    -0.235 N 
ATOM      9  HH  ARG D 557     -25.409  -1.392 -13.924  1.00 35.49     0.174 HD
ATOM     10  HH  ARG D 557     -24.547  -2.535 -13.530  1.00 35.49     0.174 HD
ATOM     11  HH  ARG D 557     -22.109  -1.973 -15.603  1.00 35.49     0.174 HD
ATOM     12  HH  ARG D 557     -22.563  -2.894 -14.529  1.00 35.49     0.174 HD
ATOM     13  HE  ARG D 557     -23.227  -0.274 -16.178  1.00 35.49     0.178 HD
ENDBRANCH   4   5
ENDBRANCH   3   4
ENDBRANCH   2   3
ENDBRANCH   1   2
END_RES ARG D 557
BEGIN_RES GLU D 570
REMARK  3 active torsions:
REMARK  status: ('A' for Active; 'I' for Inactive)
REMARK    5  A    between atoms: CA   and  CB  
REMARK    6  A    between atoms: CB   and  CG  
REMARK    7  A    between atoms: CG   and  CD  
ROOT
ATOM     14  CA  GLU D 570     -18.033  -6.348 -13.375  1.00 32.92     0.160 C 
ENDROOT
BRANCH  14  15
ATOM     15  CB  GLU D 570     -19.500  -6.345 -13.794  1.00 32.92     0.043 C 
BRANCH  15  16
ATOM     16  CG  GLU D 570     -19.810  -5.977 -15.200  1.00 32.92     0.100 C 
BRANCH  16  17
ATOM     17  CD  GLU D 570     -21.139  -5.274 -15.346  1.00 32.92     0.185 C 
ATOM     18  OE1 GLU D 570     -21.526  -4.942 -16.483  1.00 32.92    -0.647 OA
ATOM     19  OE2 GLU D 570     -21.792  -5.037 -14.311  1.00 32.92    -0.647 OA
ENDBRANCH  16  17
ENDBRANCH  15  16
ENDBRANCH  14  15
END_RES GLU D 570
ENDMDL
MODEL 3
REMARK VINA RESULT:      -8.1      1.904      2.822
REMARK  10 active torsions:
REMARK  status: ('A' for Active; 'I' for Inactive)
REMARK    1  A    between atoms: C_2  and  C_3 
REMARK    2  A    between atoms: C_3  and  C_4 
REMARK    3  A    between atoms: C_4  and  C_5 
REMARK    4  A    between atoms: C_5  and  C_6 
REMARK    5  A    between atoms: C_6  and  C_7 
REMARK    6  A    between atoms: C_7  and  C_8 
REMARK    7  A    between atoms: C_8  and  C_10 
REMARK    8  A    between atoms: C_12  and  C_17 
REMARK    9  A    between atoms: C_13  and  O_16 
REMARK   10  A    between atoms: C_17  and  O_19 
ROOT
HETATM    1  C   UNL     1     -21.971  -4.034 -10.681  1.00  0.00     0.011 A 
HETATM    2  C   UNL     1     -21.857  -3.836 -12.062  1.00  0.00     0.036 A 
HETATM    3  C   UNL     1     -22.938  -3.329 -12.797  1.00  0.00     0.071 A 
HETATM    4  C   UNL     1     -24.128  -3.025 -12.130  1.00  0.00     0.082 A 
HETATM    5  C   UNL     1     -24.251  -3.218 -10.753  1.00  0.00     0.038 A 
HETATM    6  C   UNL     1     -23.173  -3.731 -10.030  1.00  0.00     0.018 A 
ENDROOT
BRANCH   1   7
HETATM    7  C   UNL     1     -20.836  -4.565  -9.877  1.00  0.00     0.159 C 
HETATM    8  O   UNL     1     -19.780  -4.829 -10.450  1.00  0.00    -0.292 OA
BRANCH   7   9
HETATM    9  C   UNL     1     -21.048  -4.783  -8.388  1.00  0.00     0.084 C 
BRANCH   9  10
HETATM   10  C   UNL     1     -19.726  -4.790  -7.626  1.00  0.00     0.008 C 
BRANCH  10  11
HETATM   11  C   UNL     1     -19.945  -4.804  -6.114  1.00  0.00     0.000 C 
BRANCH  11  12
HETATM   12  C   UNL     1     -20.348  -6.198  -5.631  1.00  0.00     0.000 C 
BRANCH  12  13
HETATM   13  C   UNL     1     -21.560  -6.137  -4.702  1.00  0.00    -0.000 C 
BRANCH  13  14
HETATM   14  C   UNL     1     -21.276  -6.830  -3.370  1.00  0.00    -0.005 C 
HETATM   15  C   UNL     1     -22.032  -6.166  -2.230  1.00  0.00     0.005 C 
ENDBRANCH  13  14
ENDBRANCH  12  13
ENDBRANCH  11  12
ENDBRANCH  10  11
ENDBRANCH   9  10
ENDBRANCH   7   9
ENDBRANCH   1   7
BRANCH   3  16
HETATM   16  C   UNL     1     -22.760  -3.224 -14.273  1.00  0.00     0.179 C 
HETATM   17  O   UNL     1     -23.413  -2.458 -14.946  1.00  0.00    -0.646 OA
BRANCH  16  18
HETATM   18  O   UNL     1     -21.834  -4.052 -14.800  1.00  0.00    -0.773 OA
HETATM   19  H   UNL     1     -22.084  -5.000 -14.771  1.00  0.00     0.167 HD
ENDBRANCH  16  18
ENDBRANCH   3  16
BRANCH   4  20
HETATM   20  O   UNL     1     -25.212  -2.529 -12.800  1.00  0.00    -0.360 OA
HETATM   21  H   UNL     1     -24.862  -2.005 -13.548  1.00  0.00     0.217 HD
ENDBRANCH   4  20
TORSDOF 10
BEGIN_RES ARG D 557
REMARK  4 active torsions:
REMARK  status: ('A' for Active; 'I' for Inactive)
REMARK    1  A    between atoms: CA   and  CB  
REMARK    2  A    between atoms: CB   and  CG  
REMARK    3  A    between atoms: CG   and  CD  
REMARK    4  A    between atoms: CD   and  NE  
REMARK       I    between atoms: NE   and  CZ  
REMARK       I    between atoms: CZ   and  NH1 
REMARK       I    between atoms: CZ   and  NH2 
ROOT
ATOM      1  CA  ARG D 557     -26.217   2.705 -17.014  1.00 35.49     0.159 C 
ENDROOT
BRANCH   1   2
ATOM      2  CB  ARG D 557     -26.789   1.319 -17.183  1.00 35.49     0.034 C 
BRANCH   2   3
ATOM      3  CG  ARG D 557     -26.178   0.250 -16.383  1.00 35.49     0.027 C 
BRANCH   3   4
ATOM      4  CD  ARG D 557     -27.096  -0.894 -16.176  1.00 35.49     0.116 C 
BRANCH   4   5
ATOM      5  NE  ARG D 557     -26.432  -2.018 -15.569  1.00 35.49    -0.212 N 
ATOM      6  CZ  ARG D 557     -26.789  -3.277 -15.691  1.00 35.49     0.666 C 
ATOM      7  NH1 ARG D 557     -27.840  -3.651 -16.396  1.00 35.49    -0.235 N 
ATOM      8  NH2 ARG D 557     -26.057  -4.169 -15.088  1.00 35.49    -0.235 N 
ATOM      9  HH  ARG D 557     -28.334  -3.082 -16.803  1.00 35.49     0.174 HD
ATOM     10  HH  ARG D 557     -28.023  -4.487 -16.442  1.00 35.49     0.174 HD
ATOM     11  HH  ARG D 557     -25.380  -3.898 -14.645  1.00 35.49     0.174 HD
ATOM     12  HH  ARG D 557     -26.254  -4.991 -15.146  1.00 35.49     0.174 HD
ATOM     13  HE  ARG D 557     -25.787  -1.862 -15.038  1.00 35.49     0.178 HD
ENDBRANCH   4   5
ENDBRANCH   3   4
ENDBRANCH   2   3
ENDBRANCH   1   2
END_RES ARG D 557
BEGIN_RES GLU D 570
REMARK  3 active torsions:
REMARK  status: ('A' for Active; 'I' for Inactive)
REMARK    5  A    between atoms: CA   and  CB  
REMARK    6  A    between atoms: CB   and  CG  
REMARK    7  A    between atoms: CG   and  CD  
ROOT
ATOM     14  CA  GLU D 570     -18.033  -6.348 -13.375  1.00 32.92     0.160 C 
ENDROOT
BRANCH  14  15
ATOM     15  CB  GLU D 570     -19.500  -6.345 -13.794  1.00 32.92     0.043 C 
BRANCH  15  16
ATOM     16  CG  GLU D 570     -20.078  -7.628 -14.271  1.00 32.92     0.100 C 
BRANCH  16  17
ATOM     17  CD  GLU D 570     -20.718  -7.514 -15.635  1.00 32.92     0.185 C 
ATOM     18  OE1 GLU D 570     -20.724  -6.409 -16.211  1.00 32.92    -0.647 OA
ATOM     19  OE2 GLU D 570     -21.234  -8.538 -16.126  1.00 32.92    -0.647 OA
ENDBRANCH  16  17
ENDBRANCH  15  16
ENDBRANCH  14  15
END_RES GLU D 570
ENDMDL
MODEL 4
REMARK VINA RESULT:      -7.8      7.113     10.004
REMARK  10 active torsions:
REMARK  status: ('A' for Active; 'I' for Inactive)
REMARK    1  A    between atoms: C_2  and  C_3 
REMARK    2  A    between atoms: C_3  and  C_4 
REMARK    3  A    between atoms: C_4  and  C_5 
REMARK    4  A    between atoms: C_5  and  C_6 
REMARK    5  A    between atoms: C_6  and  C_7 
REMARK    6  A    between atoms: C_7  and  C_8 
REMARK    7  A    between atoms: C_8  and  C_10 
REMARK    8  A    between atoms: C_12  and  C_17 
REMARK    9  A    between atoms: C_13  and  O_16 
REMARK   10  A    between atoms: C_17  and  O_19 
ROOT
HETATM    1  C   UNL     1     -35.301  -1.192 -12.452  1.00  0.00     0.011 A 
HETATM    2  C   UNL     1     -35.381  -1.649 -13.772  1.00  0.00     0.036 A 
HETATM    3  C   UNL     1     -35.327  -0.744 -14.841  1.00  0.00     0.071 A 
HETATM    4  C   UNL     1     -35.194   0.621 -14.568  1.00  0.00     0.082 A 
HETATM    5  C   UNL     1     -35.114   1.087 -13.254  1.00  0.00     0.038 A 
HETATM    6  C   UNL     1     -35.175   0.179 -12.195  1.00  0.00     0.018 A 
ENDROOT
BRANCH   1   7
HETATM    7  C   UNL     1     -35.348  -2.134 -11.300  1.00  0.00     0.159 C 
HETATM    8  O   UNL     1     -36.424  -2.652 -11.005  1.00  0.00    -0.292 OA
BRANCH   7   9
HETATM    9  C   UNL     1     -34.066  -2.388 -10.524  1.00  0.00     0.084 C 
BRANCH   9  10
HETATM   10  C   UNL     1     -32.963  -2.940 -11.423  1.00  0.00     0.008 C 
BRANCH  10  11
HETATM   11  C   UNL     1     -33.117  -4.444 -11.645  1.00  0.00     0.000 C 
BRANCH  11  12
HETATM   12  C   UNL     1     -33.902  -5.089 -10.503  1.00  0.00     0.000 C 
BRANCH  12  13
HETATM   13  C   UNL     1     -34.533  -6.412 -10.939  1.00  0.00    -0.000 C 
BRANCH  13  14
HETATM   14  C   UNL     1     -34.822  -7.313  -9.739  1.00  0.00    -0.005 C 
HETATM   15  C   UNL     1     -34.038  -8.614  -9.825  1.00  0.00     0.005 C 
ENDBRANCH  13  14
ENDBRANCH  12  13
ENDBRANCH  11  12
ENDBRANCH  10  11
ENDBRANCH   9  10
ENDBRANCH   7   9
ENDBRANCH   1   7
BRANCH   3  16
HETATM   16  C   UNL     1     -35.499  -1.306 -16.211  1.00  0.00     0.179 C 
HETATM   17  O   UNL     1     -34.975  -2.343 -16.550  1.00  0.00    -0.646 OA
BRANCH  16  18
HETATM   18  O   UNL     1     -36.267  -0.568 -17.041  1.00  0.00    -0.773 OA
HETATM   19  H   UNL     1     -35.944   0.349 -17.174  1.00  0.00     0.167 HD
ENDBRANCH  16  18
ENDBRANCH   3  16
BRANCH   4  20
HETATM   20  O   UNL     1     -35.139   1.545 -15.572  1.00  0.00    -0.360 OA
HETATM   21  H   UNL     1     -34.835   1.070 -16.372  1.00  0.00     0.217 HD
ENDBRANCH   4  20
TORSDOF 10
BEGIN_RES ARG D 557
REMARK  4 active torsions:
REMARK  status: ('A' for Active; 'I' for Inactive)
REMARK    1  A    between atoms: CA   and  CB  
REMARK    2  A    between atoms: CB   and  CG  
REMARK    3  A    between atoms: CG   and  CD  
REMARK    4  A    between atoms: CD   and  NE  
REMARK       I    between atoms: NE   and  CZ  
REMARK       I    between atoms: CZ   and  NH1 
REMARK       I    between atoms: CZ   and  NH2 
ROOT
ATOM      1  CA  ARG D 557     -26.217   2.705 -17.014  1.00 35.49     0.159 C 
ENDROOT
BRANCH   1   2
ATOM      2  CB  ARG D 557     -26.789   1.319 -17.183  1.00 35.49     0.034 C 
BRANCH   2   3
ATOM      3  CG  ARG D 557     -28.232   1.226 -17.434  1.00 35.49     0.027 C 
BRANCH   3   4
ATOM      4  CD  ARG D 557     -28.910   0.303 -16.495  1.00 35.49     0.116 C 
BRANCH   4   5
ATOM      5  NE  ARG D 557     -29.303  -0.926 -17.131  1.00 35.49    -0.212 N 
ATOM      6  CZ  ARG D 557     -28.677  -2.078 -17.031  1.00 35.49     0.666 C 
ATOM      7  NH1 ARG D 557     -27.575  -2.226 -16.320  1.00 35.49    -0.235 N 
ATOM      8  NH2 ARG D 557     -29.188  -3.096 -17.660  1.00 35.49    -0.235 N 
ATOM      9  HH  ARG D 557     -27.222  -1.570 -15.896  1.00 35.49     0.174 HD
ATOM     10  HH  ARG D 557     -27.212  -3.001 -16.289  1.00 35.49     0.174 HD
ATOM     11  HH  ARG D 557     -29.905  -2.972 -18.106  1.00 35.49     0.174 HD
ATOM     12  HH  ARG D 557     -28.815  -3.856 -17.616  1.00 35.49     0.174 HD
ATOM     13  HE  ARG D 557     -29.963  -0.905 -17.668  1.00 35.49     0.178 HD
ENDBRANCH   4   5
ENDBRANCH   3   4
ENDBRANCH   2   3
ENDBRANCH   1   2
END_RES ARG D 557
BEGIN_RES GLU D 570
REMARK  3 active torsions:
REMARK  status: ('A' for Active; 'I' for Inactive)
REMARK    5  A    between atoms: CA   and  CB  
REMARK    6  A    between atoms: CB   and  CG  
REMARK    7  A    between atoms: CG   and  CD  
ROOT
ATOM     14  CA  GLU D 570     -18.033  -6.348 -13.375  1.00 32.92     0.160 C 
ENDROOT
BRANCH  14  15
ATOM     15  CB  GLU D 570     -19.500  -6.345 -13.794  1.00 32.92     0.043 C 
BRANCH  15  16
ATOM     16  CG  GLU D 570     -20.443  -5.534 -12.981  1.00 32.92     0.100 C 
BRANCH  16  17
ATOM     17  CD  GLU D 570     -21.731  -5.224 -13.706  1.00 32.92     0.185 C 
ATOM     18  OE1 GLU D 570     -22.322  -4.155 -13.461  1.00 32.92    -0.647 OA
ATOM     19  OE2 GLU D 570     -22.163  -6.068 -14.517  1.00 32.92    -0.647 OA
ENDBRANCH  16  17
ENDBRANCH  15  16
ENDBRANCH  14  15
END_RES GLU D 570
ENDMDL
MODEL 5
REMARK VINA RESULT:      -7.8      2.710      4.527
REMARK  10 active torsions:
REMARK  status: ('A' for Active; 'I' for Inactive)
REMARK    1  A    between atoms: C_2  and  C_3 
REMARK    2  A    between atoms: C_3  and  C_4 
REMARK    3  A    between atoms: C_4  and  C_5 
REMARK    4  A    between atoms: C_5  and  C_6 
REMARK    5  A    between atoms: C_6  and  C_7 
REMARK    6  A    between atoms: C_7  and  C_8 
REMARK    7  A    between atoms: C_8  and  C_10 
REMARK    8  A    between atoms: C_12  and  C_17 
REMARK    9  A    between atoms: C_13  and  O_16 
REMARK   10  A    between atoms: C_17  and  O_19 
ROOT
HETATM    1  C   UNL     1     -21.277  -4.365  -8.208  1.00  0.00     0.011 A 
HETATM    2  C   UNL     1     -21.195  -4.311  -9.604  1.00  0.00     0.036 A 
HETATM    3  C   UNL     1     -22.353  -4.143 -10.377  1.00  0.00     0.071 A 
HETATM    4  C   UNL     1     -23.588  -4.032  -9.731  1.00  0.00     0.082 A 
HETATM    5  C   UNL     1     -23.680  -4.084  -8.339  1.00  0.00     0.038 A 
HETATM    6  C   UNL     1     -22.523  -4.259  -7.577  1.00  0.00     0.018 A 
ENDROOT
BRANCH   1   7
HETATM    7  C   UNL     1     -20.061  -4.534  -7.365  1.00  0.00     0.159 C 
HETATM    8  O   UNL     1     -18.969  -4.219  -7.835  1.00  0.00    -0.292 OA
BRANCH   7   9
HETATM    9  C   UNL     1     -20.226  -5.119  -5.972  1.00  0.00     0.084 C 
BRANCH   9  10
HETATM   10  C   UNL     1     -20.110  -6.640  -5.982  1.00  0.00     0.008 C 
BRANCH  10  11
HETATM   11  C   UNL     1     -20.799  -7.267  -4.771  1.00  0.00     0.000 C 
BRANCH  11  12
HETATM   12  C   UNL     1     -21.856  -6.325  -4.193  1.00  0.00     0.000 C 
BRANCH  12  13
HETATM   13  C   UNL     1     -21.719  -6.198  -2.676  1.00  0.00    -0.000 C 
BRANCH  13  14
HETATM   14  C   UNL     1     -21.132  -7.468  -2.062  1.00  0.00    -0.005 C 
HETATM   15  C   UNL     1     -21.708  -7.730  -0.679  1.00  0.00     0.005 C 
ENDBRANCH  13  14
ENDBRANCH  12  13
ENDBRANCH  11  12
ENDBRANCH  10  11
ENDBRANCH   9  10
ENDBRANCH   7   9
ENDBRANCH   1   7
BRANCH   3  16
HETATM   16  C   UNL     1     -22.187  -4.177 -11.857  1.00  0.00     0.179 C 
HETATM   17  O   UNL     1     -23.008  -4.690 -12.584  1.00  0.00    -0.646 OA
BRANCH  16  18
HETATM   18  O   UNL     1     -21.055  -3.608 -12.322  1.00  0.00    -0.773 OA
HETATM   19  H   UNL     1     -21.129  -3.259 -13.235  1.00  0.00     0.167 HD
ENDBRANCH  16  18
ENDBRANCH   3  16
BRANCH   4  20
HETATM   20  O   UNL     1     -24.747  -3.870 -10.437  1.00  0.00    -0.360 OA
HETATM   21  H   UNL     1     -25.230  -4.718 -10.379  1.00  0.00     0.217 HD
ENDBRANCH   4  20
TORSDOF 10
BEGIN_RES ARG D 557
REMARK  4 active torsions:
REMARK  status: ('A' for Active; 'I' for Inactive)
REMARK    1  A    between atoms: CA   and  CB  
REMARK    2  A    between atoms: CB   and  CG  
REMARK    3  A    between atoms: CG   and  CD  
REMARK    4  A    between atoms: CD   and  NE  
REMARK       I    between atoms: NE   and  CZ  
REMARK       I    between atoms: CZ   and  NH1 
REMARK       I    between atoms: CZ   and  NH2 
ROOT
ATOM      1  CA  ARG D 557     -26.217   2.705 -17.014  1.00 35.49     0.159 C 
ENDROOT
BRANCH   1   2
ATOM      2  CB  ARG D 557     -26.789   1.319 -17.183  1.00 35.49     0.034 C 
BRANCH   2   3
ATOM      3  CG  ARG D 557     -25.837   0.202 -17.146  1.00 35.49     0.027 C 
BRANCH   3   4
ATOM      4  CD  ARG D 557     -24.758   0.414 -16.154  1.00 35.49     0.116 C 
BRANCH   4   5
ATOM      5  NE  ARG D 557     -24.892  -0.453 -15.013  1.00 35.49    -0.212 N 
ATOM      6  CZ  ARG D 557     -24.060  -1.412 -14.675  1.00 35.49     0.666 C 
ATOM      7  NH1 ARG D 557     -22.983  -1.699 -15.383  1.00 35.49    -0.235 N 
ATOM      8  NH2 ARG D 557     -24.327  -2.086 -13.595  1.00 35.49    -0.235 N 
ATOM      9  HH  ARG D 557     -22.786  -1.267 -16.097  1.00 35.49     0.174 HD
ATOM     10  HH  ARG D 557     -22.475  -2.334 -15.113  1.00 35.49     0.174 HD
ATOM     11  HH  ARG D 557     -25.026  -1.874 -13.153  1.00 35.49     0.174 HD
ATOM     12  HH  ARG D 557     -23.811  -2.710 -13.343  1.00 35.49     0.174 HD
ATOM     13  HE  ARG D 557     -25.596  -0.386 -14.541  1.00 35.49     0.178 HD
ENDBRANCH   4   5
ENDBRANCH   3   4
ENDBRANCH   2   3
ENDBRANCH   1   2
END_RES ARG D 557
BEGIN_RES GLU D 570
REMARK  3 active torsions:
REMARK  status: ('A' for Active; 'I' for Inactive)
REMARK    5  A    between atoms: CA   and  CB  
REMARK    6  A    between atoms: CB   and  CG  
REMARK    7  A    between atoms: CG   and  CD  
ROOT
ATOM     14  CA  GLU D 570     -18.033  -6.348 -13.375  1.00 32.92     0.160 C 
ENDROOT
BRANCH  14  15
ATOM     15  CB  GLU D 570     -19.500  -6.345 -13.794  1.00 32.92     0.043 C 
BRANCH  15  16
ATOM     16  CG  GLU D 570     -19.816  -5.906 -15.178  1.00 32.92     0.100 C 
BRANCH  16  17
ATOM     17  CD  GLU D 570     -21.291  -5.663 -15.397  1.00 32.92     0.185 C 
ATOM     18  OE1 GLU D 570     -21.671  -4.532 -15.756  1.00 32.92    -0.647 OA
ATOM     19  OE2 GLU D 570     -22.076  -6.609 -15.191  1.00 32.92    -0.647 OA
ENDBRANCH  16  17
ENDBRANCH  15  16
ENDBRANCH  14  15
END_RES GLU D 570
ENDMDL
MODEL 6
REMARK VINA RESULT:      -7.6      7.610     10.511
REMARK  10 active torsions:
REMARK  status: ('A' for Active; 'I' for Inactive)
REMARK    1  A    between atoms: C_2  and  C_3 
REMARK    2  A    between atoms: C_3  and  C_4 
REMARK    3  A    between atoms: C_4  and  C_5 
REMARK    4  A    between atoms: C_5  and  C_6 
REMARK    5  A    between atoms: C_6  and  C_7 
REMARK    6  A    between atoms: C_7  and  C_8 
REMARK    7  A    between atoms: C_8  and  C_10 
REMARK    8  A    between atoms: C_12  and  C_17 
REMARK    9  A    between atoms: C_13  and  O_16 
REMARK   10  A    between atoms: C_17  and  O_19 
ROOT
HETATM    1  C   UNL     1     -35.337  -0.816 -12.725  1.00  0.00     0.011 A 
HETATM    2  C   UNL     1     -36.221  -0.958 -13.799  1.00  0.00     0.036 A 
HETATM    3  C   UNL     1     -36.300   0.031 -14.790  1.00  0.00     0.071 A 
HETATM    4  C   UNL     1     -35.483   1.161 -14.686  1.00  0.00     0.082 A 
HETATM    5  C   UNL     1     -34.597   1.312 -13.617  1.00  0.00     0.038 A 
HETATM    6  C   UNL     1     -34.530   0.325 -12.632  1.00  0.00     0.018 A 
ENDROOT
BRANCH   1   7
HETATM    7  C   UNL     1     -35.229  -1.856 -11.664  1.00  0.00     0.159 C 
HETATM    8  O   UNL     1     -36.262  -2.361 -11.227  1.00  0.00    -0.292 OA
BRANCH   7   9
HETATM    9  C   UNL     1     -33.846  -2.222 -11.152  1.00  0.00     0.084 C 
BRANCH   9  10
HETATM   10  C   UNL     1     -33.829  -3.608 -10.516  1.00  0.00     0.008 C 
BRANCH  10  11
HETATM   11  C   UNL     1     -33.075  -4.618 -11.380  1.00  0.00     0.000 C 
BRANCH  11  12
HETATM   12  C   UNL     1     -33.641  -6.026 -11.196  1.00  0.00     0.000 C 
BRANCH  12  13
HETATM   13  C   UNL     1     -34.693  -6.064 -10.087  1.00  0.00    -0.000 C 
BRANCH  13  14
HETATM   14  C   UNL     1     -35.031  -7.500  -9.689  1.00  0.00    -0.005 C 
HETATM   15  C   UNL     1     -33.891  -8.448 -10.025  1.00  0.00     0.005 C 
ENDBRANCH  13  14
ENDBRANCH  12  13
ENDBRANCH  11  12
ENDBRANCH  10  11
ENDBRANCH   9  10
ENDBRANCH   7   9
ENDBRANCH   1   7
BRANCH   3  16
HETATM   16  C   UNL     1     -37.324  -0.161 -15.855  1.00  0.00     0.179 C 
HETATM   17  O   UNL     1     -38.075   0.727 -16.192  1.00  0.00    -0.646 OA
BRANCH  16  18
HETATM   18  O   UNL     1     -37.359  -1.394 -16.403  1.00  0.00    -0.773 OA
HETATM   19  H   UNL     1     -36.512  -1.884 -16.337  1.00  0.00     0.167 HD
ENDBRANCH  16  18
ENDBRANCH   3  16
BRANCH   4  20
HETATM   20  O   UNL     1     -35.522   2.155 -15.622  1.00  0.00    -0.360 OA
HETATM   21  H   UNL     1     -34.673   2.637 -15.553  1.00  0.00     0.217 HD
ENDBRANCH   4  20
TORSDOF 10
BEGIN_RES ARG D 557
REMARK  4 active torsions:
REMARK  status: ('A' for Active; 'I' for Inactive)
REMARK    1  A    between atoms: CA   and  CB  
REMARK    2  A    between atoms: CB   and  CG  
REMARK    3  A    between atoms: CG   and  CD  
REMARK    4  A    between atoms: CD   and  NE  
REMARK       I    between atoms: NE   and  CZ  
REMARK       I    between atoms: CZ   and  NH1 
REMARK       I    between atoms: CZ   and  NH2 
ROOT
ATOM      1  CA  ARG D 557     -26.217   2.705 -17.014  1.00 35.49     0.159 C 
ENDROOT
BRANCH   1   2
ATOM      2  CB  ARG D 557     -26.789   1.319 -17.183  1.00 35.49     0.034 C 
BRANCH   2   3
ATOM      3  CG  ARG D 557     -25.870   0.194 -16.969  1.00 35.49     0.027 C 
BRANCH   3   4
ATOM      4  CD  ARG D 557     -26.242  -0.621 -15.790  1.00 35.49     0.116 C 
BRANCH   4   5
ATOM      5  NE  ARG D 557     -25.117  -0.877 -14.930  1.00 35.49    -0.212 N 
ATOM      6  CZ  ARG D 557     -24.866  -2.007 -14.308  1.00 35.49     0.666 C 
ATOM      7  NH1 ARG D 557     -25.659  -3.059 -14.401  1.00 35.49    -0.235 N 
ATOM      8  NH2 ARG D 557     -23.786  -2.068 -13.585  1.00 35.49    -0.235 N 
ATOM      9  HH  ARG D 557     -26.374  -3.042 -14.873  1.00 35.49     0.174 HD
ATOM     10  HH  ARG D 557     -25.444  -3.770 -13.975  1.00 35.49     0.174 HD
ATOM     11  HH  ARG D 557     -23.289  -1.376 -13.550  1.00 35.49     0.174 HD
ATOM     12  HH  ARG D 557     -23.589  -2.782 -13.172  1.00 35.49     0.174 HD
ATOM     13  HE  ARG D 557     -24.592  -0.230 -14.756  1.00 35.49     0.178 HD
ENDBRANCH   4   5
ENDBRANCH   3   4
ENDBRANCH   2   3
ENDBRANCH   1   2
END_RES ARG D 557
BEGIN_RES GLU D 570
REMARK  3 active torsions:
REMARK  status: ('A' for Active; 'I' for Inactive)
REMARK    5  A    between atoms: CA   and  CB  
REMARK    6  A    between atoms: CB   and  CG  
REMARK    7  A    between atoms: CG   and  CD  
ROOT
ATOM     14  CA  GLU D 570     -18.033  -6.348 -13.375  1.00 32.92     0.160 C 
ENDROOT
BRANCH  14  15
ATOM     15  CB  GLU D 570     -19.500  -6.345 -13.794  1.00 32.92     0.043 C 
BRANCH  15  16
ATOM     16  CG  GLU D 570     -20.419  -5.434 -13.063  1.00 32.92     0.100 C 
BRANCH  16  17
ATOM     17  CD  GLU D 570     -21.841  -5.501 -13.569  1.00 32.92     0.185 C 
ATOM     18  OE1 GLU D 570     -22.084  -6.144 -14.609  1.00 32.92    -0.647 OA
ATOM     19  OE2 GLU D 570     -22.719  -4.891 -12.928  1.00 32.92    -0.647 OA
ENDBRANCH  16  17
ENDBRANCH  15  16
ENDBRANCH  14  15
END_RES GLU D 570
ENDMDL
MODEL 7
REMARK VINA RESULT:      -7.5      2.189      3.727
REMARK  10 active torsions:
REMARK  status: ('A' for Active; 'I' for Inactive)
REMARK    1  A    between atoms: C_2  and  C_3 
REMARK    2  A    between atoms: C_3  and  C_4 
REMARK    3  A    between atoms: C_4  and  C_5 
REMARK    4  A    between atoms: C_5  and  C_6 
REMARK    5  A    between atoms: C_6  and  C_7 
REMARK    6  A    between atoms: C_7  and  C_8 
REMARK    7  A    between atoms: C_8  and  C_10 
REMARK    8  A    between atoms: C_12  and  C_17 
REMARK    9  A    between atoms: C_13  and  O_16 
REMARK   10  A    between atoms: C_17  and  O_19 
ROOT
HETATM    1  C   UNL     1     -21.073  -4.596  -8.765  1.00  0.00     0.011 A 
HETATM    2  C   UNL     1     -22.414  -4.340  -9.071  1.00  0.00     0.036 A 
HETATM    3  C   UNL     1     -22.786  -3.959 -10.368  1.00  0.00     0.071 A 
HETATM    4  C   UNL     1     -21.796  -3.838 -11.348  1.00  0.00     0.082 A 
HETATM    5  C   UNL     1     -20.456  -4.093 -11.053  1.00  0.00     0.038 A 
HETATM    6  C   UNL     1     -20.094  -4.465  -9.757  1.00  0.00     0.018 A 
ENDROOT
BRANCH   1   7
HETATM    7  C   UNL     1     -20.655  -5.010  -7.397  1.00  0.00     0.159 C 
HETATM    8  O   UNL     1     -19.453  -5.086  -7.146  1.00  0.00    -0.292 OA
BRANCH   7   9
HETATM    9  C   UNL     1     -21.737  -5.347  -6.384  1.00  0.00     0.084 C 
BRANCH   9  10
HETATM   10  C   UNL     1     -21.142  -5.793  -5.052  1.00  0.00     0.008 C 
BRANCH  10  11
HETATM   11  C   UNL     1     -21.904  -6.979  -4.462  1.00  0.00     0.000 C 
BRANCH  11  12
HETATM   12  C   UNL     1     -20.940  -8.016  -3.883  1.00  0.00     0.000 C 
BRANCH  12  13
HETATM   13  C   UNL     1     -20.619  -7.720  -2.417  1.00  0.00    -0.000 C 
BRANCH  13  14
HETATM   14  C   UNL     1     -21.752  -8.174  -1.497  1.00  0.00    -0.005 C 
HETATM   15  C   UNL     1     -22.386  -6.992  -0.779  1.00  0.00     0.005 C 
ENDBRANCH  13  14
ENDBRANCH  12  13
ENDBRANCH  11  12
ENDBRANCH  10  11
ENDBRANCH   9  10
ENDBRANCH   7   9
ENDBRANCH   1   7
BRANCH   3  16
HETATM   16  C   UNL     1     -24.222  -3.627 -10.589  1.00  0.00     0.179 C 
HETATM   17  O   UNL     1     -24.585  -2.926 -11.507  1.00  0.00    -0.646 OA
BRANCH  16  18
HETATM   18  O   UNL     1     -25.078  -4.152  -9.687  1.00  0.00    -0.773 OA
HETATM   19  H   UNL     1     -24.735  -4.159  -8.768  1.00  0.00     0.167 HD
ENDBRANCH  16  18
ENDBRANCH   3  16
BRANCH   4  20
HETATM   20  O   UNL     1     -22.104  -3.468 -12.627  1.00  0.00    -0.360 OA
HETATM   21  H   UNL     1     -23.080  -3.408 -12.673  1.00  0.00     0.217 HD
ENDBRANCH   4  20
TORSDOF 10
BEGIN_RES ARG D 557
REMARK  4 active torsions:
REMARK  status: ('A' for Active; 'I' for Inactive)
REMARK    1  A    between atoms: CA   and  CB  
REMARK    2  A    between atoms: CB   and  CG  
REMARK    3  A    between atoms: CG   and  CD  
REMARK    4  A    between atoms: CD   and  NE  
REMARK       I    between atoms: NE   and  CZ  
REMARK       I    between atoms: CZ   and  NH1 
REMARK       I    between atoms: CZ   and  NH2 
ROOT
ATOM      1  CA  ARG D 557     -26.217   2.705 -17.014  1.00 35.49     0.159 C 
ENDROOT
BRANCH   1   2
ATOM      2  CB  ARG D 557     -26.789   1.319 -17.183  1.00 35.49     0.034 C 
BRANCH   2   3
ATOM      3  CG  ARG D 557     -28.187   1.127 -16.778  1.00 35.49     0.027 C 
BRANCH   3   4
ATOM      4  CD  ARG D 557     -28.720  -0.190 -17.196  1.00 35.49     0.116 C 
BRANCH   4   5
ATOM      5  NE  ARG D 557     -27.996  -1.282 -16.600  1.00 35.49    -0.212 N 
ATOM      6  CZ  ARG D 557     -28.243  -2.559 -16.786  1.00 35.49     0.666 C 
ATOM      7  NH1 ARG D 557     -29.226  -2.986 -17.556  1.00 35.49    -0.235 N 
ATOM      8  NH2 ARG D 557     -27.469  -3.414 -16.182  1.00 35.49    -0.235 N 
ATOM      9  HH  ARG D 557     -29.746  -2.442 -17.965  1.00 35.49     0.174 HD
ATOM     10  HH  ARG D 557     -29.338  -3.832 -17.642  1.00 35.49     0.174 HD
ATOM     11  HH  ARG D 557     -26.838  -3.109 -15.697  1.00 35.49     0.174 HD
ATOM     12  HH  ARG D 557     -27.595  -4.247 -16.281  1.00 35.49     0.174 HD
ATOM     13  HE  ARG D 557     -27.391  -1.097 -16.032  1.00 35.49     0.178 HD
ENDBRANCH   4   5
ENDBRANCH   3   4
ENDBRANCH   2   3
ENDBRANCH   1   2
END_RES ARG D 557
BEGIN_RES GLU D 570
REMARK  3 active torsions:
REMARK  status: ('A' for Active; 'I' for Inactive)
REMARK    5  A    between atoms: CA   and  CB  
REMARK    6  A    between atoms: CB   and  CG  
REMARK    7  A    between atoms: CG   and  CD  
ROOT
ATOM     14  CA  GLU D 570     -18.033  -6.348 -13.375  1.00 32.92     0.160 C 
ENDROOT
BRANCH  14  15
ATOM     15  CB  GLU D 570     -19.500  -6.345 -13.794  1.00 32.92     0.043 C 
BRANCH  15  16
ATOM     16  CG  GLU D 570     -19.797  -6.255 -15.247  1.00 32.92     0.100 C 
BRANCH  16  17
ATOM     17  CD  GLU D 570     -21.100  -5.549 -15.540  1.00 32.92     0.185 C 
ATOM     18  OE1 GLU D 570     -21.919  -5.382 -14.615  1.00 32.92    -0.647 OA
ATOM     19  OE2 GLU D 570     -21.313  -5.175 -16.710  1.00 32.92    -0.647 OA
ENDBRANCH  16  17
ENDBRANCH  15  16
ENDBRANCH  14  15
END_RES GLU D 570
ENDMDL
MODEL 8
REMARK VINA RESULT:      -7.4      1.547      2.098
REMARK  10 active torsions:
REMARK  status: ('A' for Active; 'I' for Inactive)
REMARK    1  A    between atoms: C_2  and  C_3 
REMARK    2  A    between atoms: C_3  and  C_4 
REMARK    3  A    between atoms: C_4  and  C_5 
REMARK    4  A    between atoms: C_5  and  C_6 
REMARK    5  A    between atoms: C_6  and  C_7 
REMARK    6  A    between atoms: C_7  and  C_8 
REMARK    7  A    between atoms: C_8  and  C_10 
REMARK    8  A    between atoms: C_12  and  C_17 
REMARK    9  A    between atoms: C_13  and  O_16 
REMARK   10  A    between atoms: C_17  and  O_19 
ROOT
HETATM    1  C   UNL     1     -23.471  -4.037 -11.421  1.00  0.00     0.011 A 
HETATM    2  C   UNL     1     -23.930  -4.941 -12.385  1.00  0.00     0.036 A 
HETATM    3  C   UNL     1     -23.563  -4.792 -13.730  1.00  0.00     0.071 A 
HETATM    4  C   UNL     1     -22.733  -3.725 -14.092  1.00  0.00     0.082 A 
HETATM    5  C   UNL     1     -22.270  -2.819 -13.137  1.00  0.00     0.038 A 
HETATM    6  C   UNL     1     -22.646  -2.971 -11.801  1.00  0.00     0.018 A 
ENDROOT
BRANCH   1   7
HETATM    7  C   UNL     1     -23.840  -4.179  -9.985  1.00  0.00     0.159 C 
HETATM    8  O   UNL     1     -24.905  -4.726  -9.702  1.00  0.00    -0.292 OA
BRANCH   7   9
HETATM    9  C   UNL     1     -22.894  -3.612  -8.939  1.00  0.00     0.084 C 
BRANCH   9  10
HETATM   10  C   UNL     1     -22.770  -4.537  -7.732  1.00  0.00     0.008 C 
BRANCH  10  11
HETATM   11  C   UNL     1     -21.414  -5.240  -7.695  1.00  0.00     0.000 C 
BRANCH  11  12
HETATM   12  C   UNL     1     -20.350  -4.344  -7.060  1.00  0.00     0.000 C 
BRANCH  12  13
HETATM   13  C   UNL     1     -20.077  -4.746  -5.610  1.00  0.00    -0.000 C 
BRANCH  13  14
HETATM   14  C   UNL     1     -20.589  -6.156  -5.317  1.00  0.00    -0.005 C 
HETATM   15  C   UNL     1     -21.441  -6.184  -4.058  1.00  0.00     0.005 C 
ENDBRANCH  13  14
ENDBRANCH  12  13
ENDBRANCH  11  12
ENDBRANCH  10  11
ENDBRANCH   9  10
ENDBRANCH   7   9
ENDBRANCH   1   7
BRANCH   3  16
HETATM   16  C   UNL     1     -24.159  -5.749 -14.703  1.00  0.00     0.179 C 
HETATM   17  O   UNL     1     -24.871  -5.383 -15.611  1.00  0.00    -0.646 OA
BRANCH  16  18
HETATM   18  O   UNL     1     -23.858  -7.048 -14.489  1.00  0.00    -0.773 OA
HETATM   19  H   UNL     1     -24.012  -7.346 -13.567  1.00  0.00     0.167 HD
ENDBRANCH  16  18
ENDBRANCH   3  16
BRANCH   4  20
HETATM   20  O   UNL     1     -22.347  -3.533 -15.388  1.00  0.00    -0.360 OA
HETATM   21  H   UNL     1     -21.872  -4.343 -15.661  1.00  0.00     0.217 HD
ENDBRANCH   4  20
TORSDOF 10
BEGIN_RES ARG D 557
REMARK  4 active torsions:
REMARK  status: ('A' for Active; 'I' for Inactive)
REMARK    1  A    between atoms: CA   and  CB  
REMARK    2  A    between atoms: CB   and  CG  
REMARK    3  A    between atoms: CG   and  CD  
REMARK    4  A    between atoms: CD   and  NE  
REMARK       I    between atoms: NE   and  CZ  
REMARK       I    between atoms: CZ   and  NH1 
REMARK       I    between atoms: CZ   and  NH2 
ROOT
ATOM      1  CA  ARG D 557     -26.217   2.705 -17.014  1.00 35.49     0.159 C 
ENDROOT
BRANCH   1   2
ATOM      2  CB  ARG D 557     -26.789   1.319 -17.183  1.00 35.49     0.034 C 
BRANCH   2   3
ATOM      3  CG  ARG D 557     -28.204   1.141 -16.834  1.00 35.49     0.027 C 
BRANCH   3   4
ATOM      4  CD  ARG D 557     -28.545  -0.275 -16.566  1.00 35.49     0.116 C 
BRANCH   4   5
ATOM      5  NE  ARG D 557     -27.504  -0.956 -15.843  1.00 35.49    -0.212 N 
ATOM      6  CZ  ARG D 557     -27.233  -2.240 -15.915  1.00 35.49     0.666 C 
ATOM      7  NH1 ARG D 557     -27.924  -3.069 -16.675  1.00 35.49    -0.235 N 
ATOM      8  NH2 ARG D 557     -26.237  -2.684 -15.205  1.00 35.49    -0.235 N 
ATOM      9  HH  ARG D 557     -28.582  -2.799 -17.152  1.00 35.49     0.174 HD
ATOM     10  HH  ARG D 557     -27.700  -3.896 -16.683  1.00 35.49     0.174 HD
ATOM     11  HH  ARG D 557     -25.804  -2.124 -14.729  1.00 35.49     0.174 HD
ATOM     12  HH  ARG D 557     -26.029  -3.506 -15.228  1.00 35.49     0.174 HD
ATOM     13  HE  ARG D 557     -27.055  -0.511 -15.275  1.00 35.49     0.178 HD
ENDBRANCH   4   5
ENDBRANCH   3   4
ENDBRANCH   2   3
ENDBRANCH   1   2
END_RES ARG D 557
BEGIN_RES GLU D 570
REMARK  3 active torsions:
REMARK  status: ('A' for Active; 'I' for Inactive)
REMARK    5  A    between atoms: CA   and  CB  
REMARK    6  A    between atoms: CB   and  CG  
REMARK    7  A    between atoms: CG   and  CD  
ROOT
ATOM     14  CA  GLU D 570     -18.033  -6.348 -13.375  1.00 32.92     0.160 C 
ENDROOT
BRANCH  14  15
ATOM     15  CB  GLU D 570     -19.500  -6.345 -13.794  1.00 32.92     0.043 C 
BRANCH  15  16
ATOM     16  CG  GLU D 570     -19.950  -7.416 -14.720  1.00 32.92     0.100 C 
BRANCH  16  17
ATOM     17  CD  GLU D 570     -20.766  -6.890 -15.878  1.00 32.92     0.185 C 
ATOM     18  OE1 GLU D 570     -21.624  -7.628 -16.398  1.00 32.92    -0.647 OA
ATOM     19  OE2 GLU D 570     -20.533  -5.733 -16.279  1.00 32.92    -0.647 OA
ENDBRANCH  16  17
ENDBRANCH  15  16
ENDBRANCH  14  15
END_RES GLU D 570
ENDMDL
MODEL 9
REMARK VINA RESULT:      -7.3      4.964      9.036
REMARK  10 active torsions:
REMARK  status: ('A' for Active; 'I' for Inactive)
REMARK    1  A    between atoms: C_2  and  C_3 
REMARK    2  A    between atoms: C_3  and  C_4 
REMARK    3  A    between atoms: C_4  and  C_5 
REMARK    4  A    between atoms: C_5  and  C_6 
REMARK    5  A    between atoms: C_6  and  C_7 
REMARK    6  A    between atoms: C_7  and  C_8 
REMARK    7  A    between atoms: C_8  and  C_10 
REMARK    8  A    between atoms: C_12  and  C_17 
REMARK    9  A    between atoms: C_13  and  O_16 
REMARK   10  A    between atoms: C_17  and  O_19 
ROOT
HETATM    1  C   UNL     1     -21.633  -6.922  -3.352  1.00  0.00     0.011 A 
HETATM    2  C   UNL     1     -20.950  -8.114  -3.085  1.00  0.00     0.036 A 
HETATM    3  C   UNL     1     -20.879  -8.614  -1.777  1.00  0.00     0.071 A 
HETATM    4  C   UNL     1     -21.499  -7.903  -0.745  1.00  0.00     0.082 A 
HETATM    5  C   UNL     1     -22.183  -6.713  -1.001  1.00  0.00     0.038 A 
HETATM    6  C   UNL     1     -22.243  -6.218  -2.305  1.00  0.00     0.018 A 
ENDROOT
BRANCH   1   7
HETATM    7  C   UNL     1     -21.728  -6.375  -4.733  1.00  0.00     0.159 C 
HETATM    8  O   UNL     1     -22.827  -6.009  -5.148  1.00  0.00    -0.292 OA
BRANCH   7   9
HETATM    9  C   UNL     1     -20.464  -6.323  -5.576  1.00  0.00     0.084 C 
BRANCH   9  10
HETATM   10  C   UNL     1     -20.017  -4.887  -5.833  1.00  0.00     0.008 C 
BRANCH  10  11
HETATM   11  C   UNL     1     -19.265  -4.757  -7.156  1.00  0.00     0.000 C 
BRANCH  11  12
HETATM   12  C   UNL     1     -19.992  -3.807  -8.109  1.00  0.00     0.000 C 
BRANCH  12  13
HETATM   13  C   UNL     1     -20.363  -4.507  -9.417  1.00  0.00    -0.000 C 
BRANCH  13  14
HETATM   14  C   UNL     1     -21.861  -4.398  -9.701  1.00  0.00    -0.005 C 
HETATM   15  C   UNL     1     -22.640  -4.073  -8.437  1.00  0.00     0.005 C 
ENDBRANCH  13  14
ENDBRANCH  12  13
ENDBRANCH  11  12
ENDBRANCH  10  11
ENDBRANCH   9  10
ENDBRANCH   7   9
ENDBRANCH   1   7
BRANCH   3  16
HETATM   16  C   UNL     1     -20.067  -9.846  -1.568  1.00  0.00     0.179 C 
HETATM   17  O   UNL     1     -20.395 -10.707  -0.783  1.00  0.00    -0.646 OA
BRANCH  16  18
HETATM   18  O   UNL     1     -18.938  -9.920  -2.304  1.00  0.00    -0.773 OA
HETATM   19  H   UNL     1     -18.966  -9.397  -3.133  1.00  0.00     0.167 HD
ENDBRANCH  16  18
ENDBRANCH   3  16
BRANCH   4  20
HETATM   20  O   UNL     1     -21.459  -8.345   0.547  1.00  0.00    -0.360 OA
HETATM   21  H   UNL     1     -21.164  -9.277   0.514  1.00  0.00     0.217 HD
ENDBRANCH   4  20
TORSDOF 10
BEGIN_RES ARG D 557
REMARK  4 active torsions:
REMARK  status: ('A' for Active; 'I' for Inactive)
REMARK    1  A    between atoms: CA   and  CB  
REMARK    2  A    between atoms: CB   and  CG  
REMARK    3  A    between atoms: CG   and  CD  
REMARK    4  A    between atoms: CD   and  NE  
REMARK       I    between atoms: NE   and  CZ  
REMARK       I    between atoms: CZ   and  NH1 
REMARK       I    between atoms: CZ   and  NH2 
ROOT
ATOM      1  CA  ARG D 557     -26.217   2.705 -17.014  1.00 35.49     0.159 C 
ENDROOT
BRANCH   1   2
ATOM      2  CB  ARG D 557     -26.789   1.319 -17.183  1.00 35.49     0.034 C 
BRANCH   2   3
ATOM      3  CG  ARG D 557     -25.837   0.202 -17.149  1.00 35.49     0.027 C 
BRANCH   3   4
ATOM      4  CD  ARG D 557     -24.769   0.403 -16.143  1.00 35.49     0.116 C 
BRANCH   4   5
ATOM      5  NE  ARG D 557     -24.931  -0.459 -15.001  1.00 35.49    -0.212 N 
ATOM      6  CZ  ARG D 557     -24.120  -1.433 -14.653  1.00 35.49     0.666 C 
ATOM      7  NH1 ARG D 557     -23.042  -1.742 -15.349  1.00 35.49    -0.235 N 
ATOM      8  NH2 ARG D 557     -24.412  -2.099 -13.573  1.00 35.49    -0.235 N 
ATOM      9  HH  ARG D 557     -22.830  -1.316 -16.062  1.00 35.49     0.174 HD
ATOM     10  HH  ARG D 557     -22.549  -2.386 -15.073  1.00 35.49     0.174 HD
ATOM     11  HH  ARG D 557     -25.110  -1.873 -13.140  1.00 35.49     0.174 HD
ATOM     12  HH  ARG D 557     -23.910  -2.733 -13.315  1.00 35.49     0.174 HD
ATOM     13  HE  ARG D 557     -25.638  -0.377 -14.537  1.00 35.49     0.178 HD
ENDBRANCH   4   5
ENDBRANCH   3   4
ENDBRANCH   2   3
ENDBRANCH   1   2
END_RES ARG D 557
BEGIN_RES GLU D 570
REMARK  3 active torsions:
REMARK  status: ('A' for Active; 'I' for Inactive)
REMARK    5  A    between atoms: CA   and  CB  
REMARK    6  A    between atoms: CB   and  CG  
REMARK    7  A    between atoms: CG   and  CD  
ROOT
ATOM     14  CA  GLU D 570     -18.033  -6.348 -13.375  1.00 32.92     0.160 C 
ENDROOT
BRANCH  14  15
ATOM     15  CB  GLU D 570     -19.500  -6.345 -13.794  1.00 32.92     0.043 C 
BRANCH  15  16
ATOM     16  CG  GLU D 570     -20.439  -5.516 -12.994  1.00 32.92     0.100 C 
BRANCH  16  17
ATOM     17  CD  GLU D 570     -21.577  -4.956 -13.815  1.00 32.92     0.185 C 
ATOM     18  OE1 GLU D 570     -21.654  -5.252 -15.023  1.00 32.92    -0.647 OA
ATOM     19  OE2 GLU D 570     -22.389  -4.199 -13.248  1.00 32.92    -0.647 OA
ENDBRANCH  16  17
ENDBRANCH  15  16
ENDBRANCH  14  15
END_RES GLU D 570
ENDMDL
