MODEL 1
REMARK VINA RESULT:      -1.3      0.000      0.000
REMARK  7 active torsions:
REMARK  status: ('A' for Active; 'I' for Inactive)
REMARK    1  A    between atoms: C_1  and  C_2 
REMARK    2  A    between atoms: C_1  and  C_5 
REMARK    3  A    between atoms: C_5  and  C_6 
REMARK    4  A    between atoms: C_5  and  C_10 
REMARK    5  A    between atoms: C_5  and  O_13 
REMARK    6  A    between atoms: C_6  and  C_7 
REMARK    7  A    between atoms: C_10  and  O_12 
ROOT
HETATM    1  K   UNL     3     -11.252   1.610   2.492  1.00  0.00     0.000 K 
ENDROOT
TORSDOF 7
BEGIN_RES ARG D 557
REMARK  4 active torsions:
REMARK  status: ('A' for Active; 'I' for Inactive)
REMARK    1  A    between atoms: CA   and  CB  
REMARK    2  A    between atoms: CB   and  CG  
REMARK    3  A    between atoms: CG   and  CD  
REMARK    4  A    between atoms: CD   and  NE  
REMARK       I    between atoms: NE   and  CZ  
REMARK       I    between atoms: CZ   and  NH1 
REMARK       I    between atoms: CZ   and  NH2 
ROOT
ATOM      1  CA  ARG D 557     -26.217   2.705 -17.014  1.00 35.49     0.159 C 
ENDROOT
BRANCH   1   2
ATOM      2  CB  ARG D 557     -26.789   1.319 -17.183  1.00 35.49     0.034 C 
BRANCH   2   3
ATOM      3  CG  ARG D 557     -25.836   0.203 -17.155  1.00 35.49     0.027 C 
BRANCH   3   4
ATOM      4  CD  ARG D 557     -24.756   0.408 -16.162  1.00 35.49     0.116 C 
BRANCH   4   5
ATOM      5  NE  ARG D 557     -24.908  -0.443 -15.012  1.00 35.49    -0.212 N 
ATOM      6  CZ  ARG D 557     -24.097  -1.417 -14.664  1.00 35.49     0.666 C 
ATOM      7  NH1 ARG D 557     -23.026  -1.734 -15.369  1.00 35.49    -0.235 N 
ATOM      8  NH2 ARG D 557     -24.378  -2.073 -13.576  1.00 35.49    -0.235 N 
ATOM      9  HH  ARG D 557     -22.821  -1.314 -16.087  1.00 35.49     0.174 HD
ATOM     10  HH  ARG D 557     -22.532  -2.376 -15.092  1.00 35.49     0.174 HD
ATOM     11  HH  ARG D 557     -25.072  -1.841 -13.137  1.00 35.49     0.174 HD
ATOM     12  HH  ARG D 557     -23.876  -2.705 -13.317  1.00 35.49     0.174 HD
ATOM     13  HE  ARG D 557     -25.611  -0.357 -14.541  1.00 35.49     0.178 HD
ENDBRANCH   4   5
ENDBRANCH   3   4
ENDBRANCH   2   3
ENDBRANCH   1   2
END_RES ARG D 557
BEGIN_RES GLU D 570
REMARK  3 active torsions:
REMARK  status: ('A' for Active; 'I' for Inactive)
REMARK    5  A    between atoms: CA   and  CB  
REMARK    6  A    between atoms: CB   and  CG  
REMARK    7  A    between atoms: CG   and  CD  
ROOT
ATOM     14  CA  GLU D 570     -18.033  -6.348 -13.375  1.00 32.92     0.160 C 
ENDROOT
BRANCH  14  15
ATOM     15  CB  GLU D 570     -19.500  -6.345 -13.794  1.00 32.92     0.043 C 
BRANCH  15  16
ATOM     16  CG  GLU D 570     -20.442  -5.533 -12.982  1.00 32.92     0.100 C 
BRANCH  16  17
ATOM     17  CD  GLU D 570     -21.744  -5.252 -13.695  1.00 32.92     0.185 C 
ATOM     18  OE1 GLU D 570     -22.207  -6.111 -14.470  1.00 32.92    -0.647 OA
ATOM     19  OE2 GLU D 570     -22.299  -4.155 -13.488  1.00 32.92    -0.647 OA
ENDBRANCH  16  17
ENDBRANCH  15  16
ENDBRANCH  14  15
END_RES GLU D 570
ENDMDL
MODEL 2
REMARK VINA RESULT:      -1.0      3.748      3.748
REMARK  7 active torsions:
REMARK  status: ('A' for Active; 'I' for Inactive)
REMARK    1  A    between atoms: C_1  and  C_2 
REMARK    2  A    between atoms: C_1  and  C_5 
REMARK    3  A    between atoms: C_5  and  C_6 
REMARK    4  A    between atoms: C_5  and  C_10 
REMARK    5  A    between atoms: C_5  and  O_13 
REMARK    6  A    between atoms: C_6  and  C_7 
REMARK    7  A    between atoms: C_10  and  O_12 
ROOT
HETATM    1  K   UNL     3     -11.450   1.482  -9.937  1.00  0.00     0.000 K 
ENDROOT
TORSDOF 7
BEGIN_RES ARG D 557
REMARK  4 active torsions:
REMARK  status: ('A' for Active; 'I' for Inactive)
REMARK    1  A    between atoms: CA   and  CB  
REMARK    2  A    between atoms: CB   and  CG  
REMARK    3  A    between atoms: CG   and  CD  
REMARK    4  A    between atoms: CD   and  NE  
REMARK       I    between atoms: NE   and  CZ  
REMARK       I    between atoms: CZ   and  NH1 
REMARK       I    between atoms: CZ   and  NH2 
ROOT
ATOM      1  CA  ARG D 557     -26.217   2.705 -17.014  1.00 35.49     0.159 C 
ENDROOT
BRANCH   1   2
ATOM      2  CB  ARG D 557     -26.789   1.319 -17.183  1.00 35.49     0.034 C 
BRANCH   2   3
ATOM      3  CG  ARG D 557     -25.835   0.204 -17.166  1.00 35.49     0.027 C 
BRANCH   3   4
ATOM      4  CD  ARG D 557     -24.746   0.408 -16.183  1.00 35.49     0.116 C 
BRANCH   4   5
ATOM      5  NE  ARG D 557     -24.894  -0.436 -15.026  1.00 35.49    -0.212 N 
ATOM      6  CZ  ARG D 557     -24.076  -1.401 -14.670  1.00 35.49     0.666 C 
ATOM      7  NH1 ARG D 557     -23.001  -1.715 -15.370  1.00 35.49    -0.235 N 
ATOM      8  NH2 ARG D 557     -24.354  -2.052 -13.578  1.00 35.49    -0.235 N 
ATOM      9  HH  ARG D 557     -22.798  -1.298 -16.091  1.00 35.49     0.174 HD
ATOM     10  HH  ARG D 557     -22.503  -2.352 -15.088  1.00 35.49     0.174 HD
ATOM     11  HH  ARG D 557     -25.051  -1.822 -13.142  1.00 35.49     0.174 HD
ATOM     12  HH  ARG D 557     -23.848  -2.678 -13.314  1.00 35.49     0.174 HD
ATOM     13  HE  ARG D 557     -25.599  -0.352 -14.558  1.00 35.49     0.178 HD
ENDBRANCH   4   5
ENDBRANCH   3   4
ENDBRANCH   2   3
ENDBRANCH   1   2
END_RES ARG D 557
BEGIN_RES GLU D 570
REMARK  3 active torsions:
REMARK  status: ('A' for Active; 'I' for Inactive)
REMARK    5  A    between atoms: CA   and  CB  
REMARK    6  A    between atoms: CB   and  CG  
REMARK    7  A    between atoms: CG   and  CD  
ROOT
ATOM     14  CA  GLU D 570     -18.033  -6.348 -13.375  1.00 32.92     0.160 C 
ENDROOT
BRANCH  14  15
ATOM     15  CB  GLU D 570     -19.500  -6.345 -13.794  1.00 32.92     0.043 C 
BRANCH  15  16
ATOM     16  CG  GLU D 570     -20.443  -5.537 -12.979  1.00 32.92     0.100 C 
BRANCH  16  17
ATOM     17  CD  GLU D 570     -21.746  -5.257 -13.690  1.00 32.92     0.185 C 
ATOM     18  OE1 GLU D 570     -22.214  -6.119 -14.459  1.00 32.92    -0.647 OA
ATOM     19  OE2 GLU D 570     -22.297  -4.156 -13.489  1.00 32.92    -0.647 OA
ENDBRANCH  16  17
ENDBRANCH  15  16
ENDBRANCH  14  15
END_RES GLU D 570
ENDMDL
MODEL 3
REMARK VINA RESULT:      -1.0      6.191      6.271
REMARK  7 active torsions:
REMARK  status: ('A' for Active; 'I' for Inactive)
REMARK    1  A    between atoms: C_1  and  C_2 
REMARK    2  A    between atoms: C_1  and  C_5 
REMARK    3  A    between atoms: C_5  and  C_6 
REMARK    4  A    between atoms: C_5  and  C_10 
REMARK    5  A    between atoms: C_5  and  O_13 
REMARK    6  A    between atoms: C_6  and  C_7 
REMARK    7  A    between atoms: C_10  and  O_12 
ROOT
HETATM    1  K   UNL     3      -9.137   5.847 -17.205  1.00  0.00     0.000 K 
ENDROOT
TORSDOF 7
BEGIN_RES ARG D 557
REMARK  4 active torsions:
REMARK  status: ('A' for Active; 'I' for Inactive)
REMARK    1  A    between atoms: CA   and  CB  
REMARK    2  A    between atoms: CB   and  CG  
REMARK    3  A    between atoms: CG   and  CD  
REMARK    4  A    between atoms: CD   and  NE  
REMARK       I    between atoms: NE   and  CZ  
REMARK       I    between atoms: CZ   and  NH1 
REMARK       I    between atoms: CZ   and  NH2 
ROOT
ATOM      1  CA  ARG D 557     -26.217   2.705 -17.014  1.00 35.49     0.159 C 
ENDROOT
BRANCH   1   2
ATOM      2  CB  ARG D 557     -26.789   1.319 -17.183  1.00 35.49     0.034 C 
BRANCH   2   3
ATOM      3  CG  ARG D 557     -25.865   0.195 -16.990  1.00 35.49     0.027 C 
BRANCH   3   4
ATOM      4  CD  ARG D 557     -26.298  -0.711 -15.901  1.00 35.49     0.116 C 
BRANCH   4   5
ATOM      5  NE  ARG D 557     -25.255  -0.933 -14.934  1.00 35.49    -0.212 N 
ATOM      6  CZ  ARG D 557     -24.978  -2.079 -14.353  1.00 35.49     0.666 C 
ATOM      7  NH1 ARG D 557     -25.663  -3.181 -14.596  1.00 35.49    -0.235 N 
ATOM      8  NH2 ARG D 557     -23.982  -2.102 -13.515  1.00 35.49    -0.235 N 
ATOM      9  HH  ARG D 557     -26.321  -3.189 -15.145  1.00 35.49     0.174 HD
ATOM     10  HH  ARG D 557     -25.435  -3.900 -14.189  1.00 35.49     0.174 HD
ATOM     11  HH  ARG D 557     -23.553  -1.377 -13.384  1.00 35.49     0.174 HD
ATOM     12  HH  ARG D 557     -23.771  -2.824 -13.124  1.00 35.49     0.174 HD
ATOM     13  HE  ARG D 557     -24.811  -0.260 -14.664  1.00 35.49     0.178 HD
ENDBRANCH   4   5
ENDBRANCH   3   4
ENDBRANCH   2   3
ENDBRANCH   1   2
END_RES ARG D 557
BEGIN_RES GLU D 570
REMARK  3 active torsions:
REMARK  status: ('A' for Active; 'I' for Inactive)
REMARK    5  A    between atoms: CA   and  CB  
REMARK    6  A    between atoms: CB   and  CG  
REMARK    7  A    between atoms: CG   and  CD  
ROOT
ATOM     14  CA  GLU D 570     -18.033  -6.348 -13.375  1.00 32.92     0.160 C 
ENDROOT
BRANCH  14  15
ATOM     15  CB  GLU D 570     -19.500  -6.345 -13.794  1.00 32.92     0.043 C 
BRANCH  15  16
ATOM     16  CG  GLU D 570     -20.449  -5.565 -12.958  1.00 32.92     0.100 C 
BRANCH  16  17
ATOM     17  CD  GLU D 570     -21.678  -5.123 -13.718  1.00 32.92     0.185 C 
ATOM     18  OE1 GLU D 570     -22.732  -4.905 -13.091  1.00 32.92    -0.647 OA
ATOM     19  OE2 GLU D 570     -21.590  -5.010 -14.957  1.00 32.92    -0.647 OA
ENDBRANCH  16  17
ENDBRANCH  15  16
ENDBRANCH  14  15
END_RES GLU D 570
ENDMDL
MODEL 4
REMARK VINA RESULT:      -1.0      8.425      8.425
REMARK  7 active torsions:
REMARK  status: ('A' for Active; 'I' for Inactive)
REMARK    1  A    between atoms: C_1  and  C_2 
REMARK    2  A    between atoms: C_1  and  C_5 
REMARK    3  A    between atoms: C_5  and  C_6 
REMARK    4  A    between atoms: C_5  and  C_10 
REMARK    5  A    between atoms: C_5  and  O_13 
REMARK    6  A    between atoms: C_6  and  C_7 
REMARK    7  A    between atoms: C_10  and  O_12 
ROOT
HETATM    1  K   UNL     3     -32.995  -9.675 -10.953  1.00  0.00     0.000 K 
ENDROOT
TORSDOF 7
BEGIN_RES ARG D 557
REMARK  4 active torsions:
REMARK  status: ('A' for Active; 'I' for Inactive)
REMARK    1  A    between atoms: CA   and  CB  
REMARK    2  A    between atoms: CB   and  CG  
REMARK    3  A    between atoms: CG   and  CD  
REMARK    4  A    between atoms: CD   and  NE  
REMARK       I    between atoms: NE   and  CZ  
REMARK       I    between atoms: CZ   and  NH1 
REMARK       I    between atoms: CZ   and  NH2 
ROOT
ATOM      1  CA  ARG D 557     -26.217   2.705 -17.014  1.00 35.49     0.159 C 
ENDROOT
BRANCH   1   2
ATOM      2  CB  ARG D 557     -26.789   1.319 -17.183  1.00 35.49     0.034 C 
BRANCH   2   3
ATOM      3  CG  ARG D 557     -25.835   0.203 -17.159  1.00 35.49     0.027 C 
BRANCH   3   4
ATOM      4  CD  ARG D 557     -24.746   0.413 -16.179  1.00 35.49     0.116 C 
BRANCH   4   5
ATOM      5  NE  ARG D 557     -24.885  -0.434 -15.024  1.00 35.49    -0.212 N 
ATOM      6  CZ  ARG D 557     -24.066  -1.402 -14.678  1.00 35.49     0.666 C 
ATOM      7  NH1 ARG D 557     -23.001  -1.718 -15.391  1.00 35.49    -0.235 N 
ATOM      8  NH2 ARG D 557     -24.336  -2.055 -13.585  1.00 35.49    -0.235 N 
ATOM      9  HH  ARG D 557     -22.803  -1.301 -16.112  1.00 35.49     0.174 HD
ATOM     10  HH  ARG D 557     -22.502  -2.358 -15.115  1.00 35.49     0.174 HD
ATOM     11  HH  ARG D 557     -25.027  -1.824 -13.141  1.00 35.49     0.174 HD
ATOM     12  HH  ARG D 557     -23.829  -2.684 -13.328  1.00 35.49     0.174 HD
ATOM     13  HE  ARG D 557     -25.584  -0.348 -14.547  1.00 35.49     0.178 HD
ENDBRANCH   4   5
ENDBRANCH   3   4
ENDBRANCH   2   3
ENDBRANCH   1   2
END_RES ARG D 557
BEGIN_RES GLU D 570
REMARK  3 active torsions:
REMARK  status: ('A' for Active; 'I' for Inactive)
REMARK    5  A    between atoms: CA   and  CB  
REMARK    6  A    between atoms: CB   and  CG  
REMARK    7  A    between atoms: CG   and  CD  
ROOT
ATOM     14  CA  GLU D 570     -18.033  -6.348 -13.375  1.00 32.92     0.160 C 
ENDROOT
BRANCH  14  15
ATOM     15  CB  GLU D 570     -19.500  -6.345 -13.794  1.00 32.92     0.043 C 
BRANCH  15  16
ATOM     16  CG  GLU D 570     -20.443  -5.535 -12.980  1.00 32.92     0.100 C 
BRANCH  16  17
ATOM     17  CD  GLU D 570     -21.745  -5.255 -13.692  1.00 32.92     0.185 C 
ATOM     18  OE1 GLU D 570     -22.253  -6.146 -14.399  1.00 32.92    -0.647 OA
ATOM     19  OE2 GLU D 570     -22.255  -4.125 -13.555  1.00 32.92    -0.647 OA
ENDBRANCH  16  17
ENDBRANCH  15  16
ENDBRANCH  14  15
END_RES GLU D 570
ENDMDL
MODEL 5
REMARK VINA RESULT:      -1.0      5.152      5.152
REMARK  7 active torsions:
REMARK  status: ('A' for Active; 'I' for Inactive)
REMARK    1  A    between atoms: C_1  and  C_2 
REMARK    2  A    between atoms: C_1  and  C_5 
REMARK    3  A    between atoms: C_5  and  C_6 
REMARK    4  A    between atoms: C_5  and  C_10 
REMARK    5  A    between atoms: C_5  and  O_13 
REMARK    6  A    between atoms: C_6  and  C_7 
REMARK    7  A    between atoms: C_10  and  O_12 
ROOT
HETATM    1  K   UNL     3     -25.039  -4.828  -5.276  1.00  0.00     0.000 K 
ENDROOT
TORSDOF 7
BEGIN_RES ARG D 557
REMARK  4 active torsions:
REMARK  status: ('A' for Active; 'I' for Inactive)
REMARK    1  A    between atoms: CA   and  CB  
REMARK    2  A    between atoms: CB   and  CG  
REMARK    3  A    between atoms: CG   and  CD  
REMARK    4  A    between atoms: CD   and  NE  
REMARK       I    between atoms: NE   and  CZ  
REMARK       I    between atoms: CZ   and  NH1 
REMARK       I    between atoms: CZ   and  NH2 
ROOT
ATOM      1  CA  ARG D 557     -26.217   2.705 -17.014  1.00 35.49     0.159 C 
ENDROOT
BRANCH   1   2
ATOM      2  CB  ARG D 557     -26.789   1.319 -17.183  1.00 35.49     0.034 C 
BRANCH   2   3
ATOM      3  CG  ARG D 557     -25.836   0.203 -17.155  1.00 35.49     0.027 C 
BRANCH   3   4
ATOM      4  CD  ARG D 557     -24.776   0.391 -16.138  1.00 35.49     0.116 C 
BRANCH   4   5
ATOM      5  NE  ARG D 557     -24.953  -0.478 -15.004  1.00 35.49    -0.212 N 
ATOM      6  CZ  ARG D 557     -24.152  -1.460 -14.657  1.00 35.49     0.666 C 
ATOM      7  NH1 ARG D 557     -23.070  -1.770 -15.346  1.00 35.49    -0.235 N 
ATOM      8  NH2 ARG D 557     -24.456  -2.133 -13.585  1.00 35.49    -0.235 N 
ATOM      9  HH  ARG D 557     -22.849  -1.340 -16.054  1.00 35.49     0.174 HD
ATOM     10  HH  ARG D 557     -22.583  -2.419 -15.070  1.00 35.49     0.174 HD
ATOM     11  HH  ARG D 557     -25.157  -1.905 -13.155  1.00 35.49     0.174 HD
ATOM     12  HH  ARG D 557     -23.961  -2.771 -13.327  1.00 35.49     0.174 HD
ATOM     13  HE  ARG D 557     -25.665  -0.396 -14.545  1.00 35.49     0.178 HD
ENDBRANCH   4   5
ENDBRANCH   3   4
ENDBRANCH   2   3
ENDBRANCH   1   2
END_RES ARG D 557
BEGIN_RES GLU D 570
REMARK  3 active torsions:
REMARK  status: ('A' for Active; 'I' for Inactive)
REMARK    5  A    between atoms: CA   and  CB  
REMARK    6  A    between atoms: CB   and  CG  
REMARK    7  A    between atoms: CG   and  CD  
ROOT
ATOM     14  CA  GLU D 570     -18.033  -6.348 -13.375  1.00 32.92     0.160 C 
ENDROOT
BRANCH  14  15
ATOM     15  CB  GLU D 570     -19.500  -6.345 -13.794  1.00 32.92     0.043 C 
BRANCH  15  16
ATOM     16  CG  GLU D 570     -20.437  -5.510 -12.999  1.00 32.92     0.100 C 
BRANCH  16  17
ATOM     17  CD  GLU D 570     -21.712  -5.186 -13.742  1.00 32.92     0.185 C 
ATOM     18  OE1 GLU D 570     -22.073  -5.926 -14.677  1.00 32.92    -0.647 OA
ATOM     19  OE2 GLU D 570     -22.349  -4.171 -13.396  1.00 32.92    -0.647 OA
ENDBRANCH  16  17
ENDBRANCH  15  16
ENDBRANCH  14  15
END_RES GLU D 570
ENDMDL
MODEL 6
REMARK VINA RESULT:      -1.0      6.883      6.883
REMARK  7 active torsions:
REMARK  status: ('A' for Active; 'I' for Inactive)
REMARK    1  A    between atoms: C_1  and  C_2 
REMARK    2  A    between atoms: C_1  and  C_5 
REMARK    3  A    between atoms: C_5  and  C_6 
REMARK    4  A    between atoms: C_5  and  C_10 
REMARK    5  A    between atoms: C_5  and  O_13 
REMARK    6  A    between atoms: C_6  and  C_7 
REMARK    7  A    between atoms: C_10  and  O_12 
ROOT
HETATM    1  K   UNL     3      -9.207  -9.404 -17.399  1.00  0.00     0.000 K 
ENDROOT
TORSDOF 7
BEGIN_RES ARG D 557
REMARK  4 active torsions:
REMARK  status: ('A' for Active; 'I' for Inactive)
REMARK    1  A    between atoms: CA   and  CB  
REMARK    2  A    between atoms: CB   and  CG  
REMARK    3  A    between atoms: CG   and  CD  
REMARK    4  A    between atoms: CD   and  NE  
REMARK       I    between atoms: NE   and  CZ  
REMARK       I    between atoms: CZ   and  NH1 
REMARK       I    between atoms: CZ   and  NH2 
ROOT
ATOM      1  CA  ARG D 557     -26.217   2.705 -17.014  1.00 35.49     0.159 C 
ENDROOT
BRANCH   1   2
ATOM      2  CB  ARG D 557     -26.789   1.319 -17.183  1.00 35.49     0.034 C 
BRANCH   2   3
ATOM      3  CG  ARG D 557     -25.835   0.204 -17.162  1.00 35.49     0.027 C 
BRANCH   3   4
ATOM      4  CD  ARG D 557     -24.754   0.404 -16.170  1.00 35.49     0.116 C 
BRANCH   4   5
ATOM      5  NE  ARG D 557     -24.912  -0.445 -15.018  1.00 35.49    -0.212 N 
ATOM      6  CZ  ARG D 557     -24.102  -1.417 -14.664  1.00 35.49     0.666 C 
ATOM      7  NH1 ARG D 557     -23.028  -1.736 -15.363  1.00 35.49    -0.235 N 
ATOM      8  NH2 ARG D 557     -24.388  -2.070 -13.575  1.00 35.49    -0.235 N 
ATOM      9  HH  ARG D 557     -22.819  -1.318 -16.081  1.00 35.49     0.174 HD
ATOM     10  HH  ARG D 557     -22.535  -2.378 -15.081  1.00 35.49     0.174 HD
ATOM     11  HH  ARG D 557     -25.084  -1.837 -13.140  1.00 35.49     0.174 HD
ATOM     12  HH  ARG D 557     -23.887  -2.701 -13.312  1.00 35.49     0.174 HD
ATOM     13  HE  ARG D 557     -25.617  -0.356 -14.551  1.00 35.49     0.178 HD
ENDBRANCH   4   5
ENDBRANCH   3   4
ENDBRANCH   2   3
ENDBRANCH   1   2
END_RES ARG D 557
BEGIN_RES GLU D 570
REMARK  3 active torsions:
REMARK  status: ('A' for Active; 'I' for Inactive)
REMARK    5  A    between atoms: CA   and  CB  
REMARK    6  A    between atoms: CB   and  CG  
REMARK    7  A    between atoms: CG   and  CD  
ROOT
ATOM     14  CA  GLU D 570     -18.033  -6.348 -13.375  1.00 32.92     0.160 C 
ENDROOT
BRANCH  14  15
ATOM     15  CB  GLU D 570     -19.500  -6.345 -13.794  1.00 32.92     0.043 C 
BRANCH  15  16
ATOM     16  CG  GLU D 570     -20.440  -5.524 -12.988  1.00 32.92     0.100 C 
BRANCH  16  17
ATOM     17  CD  GLU D 570     -21.737  -5.235 -13.708  1.00 32.92     0.185 C 
ATOM     18  OE1 GLU D 570     -22.189  -6.082 -14.503  1.00 32.92    -0.647 OA
ATOM     19  OE2 GLU D 570     -22.297  -4.143 -13.489  1.00 32.92    -0.647 OA
ENDBRANCH  16  17
ENDBRANCH  15  16
ENDBRANCH  14  15
END_RES GLU D 570
ENDMDL
MODEL 7
REMARK VINA RESULT:      -0.9      7.120      7.158
REMARK  7 active torsions:
REMARK  status: ('A' for Active; 'I' for Inactive)
REMARK    1  A    between atoms: C_1  and  C_2 
REMARK    2  A    between atoms: C_1  and  C_5 
REMARK    3  A    between atoms: C_5  and  C_6 
REMARK    4  A    between atoms: C_5  and  C_10 
REMARK    5  A    between atoms: C_5  and  O_13 
REMARK    6  A    between atoms: C_6  and  C_7 
REMARK    7  A    between atoms: C_10  and  O_12 
ROOT
HETATM    1  K   UNL     3     -31.920  -8.789   4.526  1.00  0.00     0.000 K 
ENDROOT
TORSDOF 7
BEGIN_RES ARG D 557
REMARK  4 active torsions:
REMARK  status: ('A' for Active; 'I' for Inactive)
REMARK    1  A    between atoms: CA   and  CB  
REMARK    2  A    between atoms: CB   and  CG  
REMARK    3  A    between atoms: CG   and  CD  
REMARK    4  A    between atoms: CD   and  NE  
REMARK       I    between atoms: NE   and  CZ  
REMARK       I    between atoms: CZ   and  NH1 
REMARK       I    between atoms: CZ   and  NH2 
ROOT
ATOM      1  CA  ARG D 557     -26.217   2.705 -17.014  1.00 35.49     0.159 C 
ENDROOT
BRANCH   1   2
ATOM      2  CB  ARG D 557     -26.789   1.319 -17.183  1.00 35.49     0.034 C 
BRANCH   2   3
ATOM      3  CG  ARG D 557     -25.839   0.201 -17.133  1.00 35.49     0.027 C 
BRANCH   3   4
ATOM      4  CD  ARG D 557     -24.749   0.430 -16.156  1.00 35.49     0.116 C 
BRANCH   4   5
ATOM      5  NE  ARG D 557     -24.858  -0.434 -15.010  1.00 35.49    -0.212 N 
ATOM      6  CZ  ARG D 557     -24.023  -1.398 -14.693  1.00 35.49     0.666 C 
ATOM      7  NH1 ARG D 557     -22.967  -1.692 -15.429  1.00 35.49    -0.235 N 
ATOM      8  NH2 ARG D 557     -24.265  -2.068 -13.605  1.00 35.49    -0.235 N 
ATOM      9  HH  ARG D 557     -22.787  -1.262 -16.148  1.00 35.49     0.174 HD
ATOM     10  HH  ARG D 557     -22.456  -2.329 -15.171  1.00 35.49     0.174 HD
ATOM     11  HH  ARG D 557     -24.951  -1.852 -13.145  1.00 35.49     0.174 HD
ATOM     12  HH  ARG D 557     -23.747  -2.695 -13.365  1.00 35.49     0.174 HD
ATOM     13  HE  ARG D 557     -25.549  -0.362 -14.520  1.00 35.49     0.178 HD
ENDBRANCH   4   5
ENDBRANCH   3   4
ENDBRANCH   2   3
ENDBRANCH   1   2
END_RES ARG D 557
BEGIN_RES GLU D 570
REMARK  3 active torsions:
REMARK  status: ('A' for Active; 'I' for Inactive)
REMARK    5  A    between atoms: CA   and  CB  
REMARK    6  A    between atoms: CB   and  CG  
REMARK    7  A    between atoms: CG   and  CD  
ROOT
ATOM     14  CA  GLU D 570     -18.033  -6.348 -13.375  1.00 32.92     0.160 C 
ENDROOT
BRANCH  14  15
ATOM     15  CB  GLU D 570     -19.500  -6.345 -13.794  1.00 32.92     0.043 C 
BRANCH  15  16
ATOM     16  CG  GLU D 570     -19.797  -6.249 -15.247  1.00 32.92     0.100 C 
BRANCH  16  17
ATOM     17  CD  GLU D 570     -21.031  -5.430 -15.543  1.00 32.92     0.185 C 
ATOM     18  OE1 GLU D 570     -21.725  -5.015 -14.594  1.00 32.92    -0.647 OA
ATOM     19  OE2 GLU D 570     -21.318  -5.215 -16.737  1.00 32.92    -0.647 OA
ENDBRANCH  16  17
ENDBRANCH  15  16
ENDBRANCH  14  15
END_RES GLU D 570
ENDMDL
MODEL 8
REMARK VINA RESULT:      -0.9     10.910     10.910
REMARK  7 active torsions:
REMARK  status: ('A' for Active; 'I' for Inactive)
REMARK    1  A    between atoms: C_1  and  C_2 
REMARK    2  A    between atoms: C_1  and  C_5 
REMARK    3  A    between atoms: C_5  and  C_6 
REMARK    4  A    between atoms: C_5  and  C_10 
REMARK    5  A    between atoms: C_5  and  O_13 
REMARK    6  A    between atoms: C_6  and  C_7 
REMARK    7  A    between atoms: C_10  and  O_12 
ROOT
HETATM    1  K   UNL     3     -36.389  11.005 -21.781  1.00  0.00     0.000 K 
ENDROOT
TORSDOF 7
BEGIN_RES ARG D 557
REMARK  4 active torsions:
REMARK  status: ('A' for Active; 'I' for Inactive)
REMARK    1  A    between atoms: CA   and  CB  
REMARK    2  A    between atoms: CB   and  CG  
REMARK    3  A    between atoms: CG   and  CD  
REMARK    4  A    between atoms: CD   and  NE  
REMARK       I    between atoms: NE   and  CZ  
REMARK       I    between atoms: CZ   and  NH1 
REMARK       I    between atoms: CZ   and  NH2 
ROOT
ATOM      1  CA  ARG D 557     -26.217   2.705 -17.014  1.00 35.49     0.159 C 
ENDROOT
BRANCH   1   2
ATOM      2  CB  ARG D 557     -26.789   1.319 -17.183  1.00 35.49     0.034 C 
BRANCH   2   3
ATOM      3  CG  ARG D 557     -25.835   0.203 -17.161  1.00 35.49     0.027 C 
BRANCH   3   4
ATOM      4  CD  ARG D 557     -24.751   0.408 -16.174  1.00 35.49     0.116 C 
BRANCH   4   5
ATOM      5  NE  ARG D 557     -24.900  -0.441 -15.021  1.00 35.49    -0.212 N 
ATOM      6  CZ  ARG D 557     -24.085  -1.410 -14.670  1.00 35.49     0.666 C 
ATOM      7  NH1 ARG D 557     -23.013  -1.725 -15.373  1.00 35.49    -0.235 N 
ATOM      8  NH2 ARG D 557     -24.364  -2.064 -13.580  1.00 35.49    -0.235 N 
ATOM      9  HH  ARG D 557     -22.809  -1.307 -16.092  1.00 35.49     0.174 HD
ATOM     10  HH  ARG D 557     -22.517  -2.365 -15.094  1.00 35.49     0.174 HD
ATOM     11  HH  ARG D 557     -25.059  -1.833 -13.142  1.00 35.49     0.174 HD
ATOM     12  HH  ARG D 557     -23.860  -2.693 -13.319  1.00 35.49     0.174 HD
ATOM     13  HE  ARG D 557     -25.603  -0.355 -14.551  1.00 35.49     0.178 HD
ENDBRANCH   4   5
ENDBRANCH   3   4
ENDBRANCH   2   3
ENDBRANCH   1   2
END_RES ARG D 557
BEGIN_RES GLU D 570
REMARK  3 active torsions:
REMARK  status: ('A' for Active; 'I' for Inactive)
REMARK    5  A    between atoms: CA   and  CB  
REMARK    6  A    between atoms: CB   and  CG  
REMARK    7  A    between atoms: CG   and  CD  
ROOT
ATOM     14  CA  GLU D 570     -18.033  -6.348 -13.375  1.00 32.92     0.160 C 
ENDROOT
BRANCH  14  15
ATOM     15  CB  GLU D 570     -19.500  -6.345 -13.794  1.00 32.92     0.043 C 
BRANCH  15  16
ATOM     16  CG  GLU D 570     -20.439  -5.517 -12.994  1.00 32.92     0.100 C 
BRANCH  16  17
ATOM     17  CD  GLU D 570     -21.747  -5.257 -13.704  1.00 32.92     0.185 C 
ATOM     18  OE1 GLU D 570     -22.221  -6.142 -14.442  1.00 32.92    -0.647 OA
ATOM     19  OE2 GLU D 570     -22.295  -4.150 -13.532  1.00 32.92    -0.647 OA
ENDBRANCH  16  17
ENDBRANCH  15  16
ENDBRANCH  14  15
END_RES GLU D 570
ENDMDL
MODEL 9
REMARK VINA RESULT:      -0.9      6.151      6.221
REMARK  7 active torsions:
REMARK  status: ('A' for Active; 'I' for Inactive)
REMARK    1  A    between atoms: C_1  and  C_2 
REMARK    2  A    between atoms: C_1  and  C_5 
REMARK    3  A    between atoms: C_5  and  C_6 
REMARK    4  A    between atoms: C_5  and  C_10 
REMARK    5  A    between atoms: C_5  and  O_13 
REMARK    6  A    between atoms: C_6  and  C_7 
REMARK    7  A    between atoms: C_10  and  O_12 
ROOT
HETATM    1  K   UNL     3     -30.874  -3.472   0.181  1.00  0.00     0.000 K 
ENDROOT
TORSDOF 7
BEGIN_RES ARG D 557
REMARK  4 active torsions:
REMARK  status: ('A' for Active; 'I' for Inactive)
REMARK    1  A    between atoms: CA   and  CB  
REMARK    2  A    between atoms: CB   and  CG  
REMARK    3  A    between atoms: CG   and  CD  
REMARK    4  A    between atoms: CD   and  NE  
REMARK       I    between atoms: NE   and  CZ  
REMARK       I    between atoms: CZ   and  NH1 
REMARK       I    between atoms: CZ   and  NH2 
ROOT
ATOM      1  CA  ARG D 557     -26.217   2.705 -17.014  1.00 35.49     0.159 C 
ENDROOT
BRANCH   1   2
ATOM      2  CB  ARG D 557     -26.789   1.319 -17.183  1.00 35.49     0.034 C 
BRANCH   2   3
ATOM      3  CG  ARG D 557     -25.833   0.205 -17.179  1.00 35.49     0.027 C 
BRANCH   3   4
ATOM      4  CD  ARG D 557     -24.748   0.396 -16.190  1.00 35.49     0.116 C 
BRANCH   4   5
ATOM      5  NE  ARG D 557     -24.911  -0.446 -15.035  1.00 35.49    -0.212 N 
ATOM      6  CZ  ARG D 557     -24.102  -1.415 -14.670  1.00 35.49     0.666 C 
ATOM      7  NH1 ARG D 557     -23.023  -1.736 -15.360  1.00 35.49    -0.235 N 
ATOM      8  NH2 ARG D 557     -24.395  -2.063 -13.580  1.00 35.49    -0.235 N 
ATOM      9  HH  ARG D 557     -22.810  -1.321 -16.079  1.00 35.49     0.174 HD
ATOM     10  HH  ARG D 557     -22.531  -2.375 -15.072  1.00 35.49     0.174 HD
ATOM     11  HH  ARG D 557     -25.094  -1.829 -13.151  1.00 35.49     0.174 HD
ATOM     12  HH  ARG D 557     -23.894  -2.692 -13.310  1.00 35.49     0.174 HD
ATOM     13  HE  ARG D 557     -25.620  -0.357 -14.573  1.00 35.49     0.178 HD
ENDBRANCH   4   5
ENDBRANCH   3   4
ENDBRANCH   2   3
ENDBRANCH   1   2
END_RES ARG D 557
BEGIN_RES GLU D 570
REMARK  3 active torsions:
REMARK  status: ('A' for Active; 'I' for Inactive)
REMARK    5  A    between atoms: CA   and  CB  
REMARK    6  A    between atoms: CB   and  CG  
REMARK    7  A    between atoms: CG   and  CD  
ROOT
ATOM     14  CA  GLU D 570     -18.033  -6.348 -13.375  1.00 32.92     0.160 C 
ENDROOT
BRANCH  14  15
ATOM     15  CB  GLU D 570     -19.500  -6.345 -13.794  1.00 32.92     0.043 C 
BRANCH  15  16
ATOM     16  CG  GLU D 570     -20.441  -5.526 -12.987  1.00 32.92     0.100 C 
BRANCH  16  17
ATOM     17  CD  GLU D 570     -21.730  -5.221 -13.713  1.00 32.92     0.185 C 
ATOM     18  OE1 GLU D 570     -22.355  -4.182 -13.428  1.00 32.92    -0.647 OA
ATOM     19  OE2 GLU D 570     -22.128  -6.039 -14.566  1.00 32.92    -0.647 OA
ENDBRANCH  16  17
ENDBRANCH  15  16
ENDBRANCH  14  15
END_RES GLU D 570
ENDMDL
