MODEL 1
REMARK VINA RESULT:      -6.0      0.000      0.000
REMARK  3 active torsions:
REMARK  status: ('A' for Active; 'I' for Inactive)
REMARK    1  A    between atoms: C_4  and  C_7 
REMARK    2  A    between atoms: C_7  and  C_8 
REMARK    3  A    between atoms: C_8  and  O_9 
ROOT
HETATM    1  C   UNL     1     -20.061  -4.063  -7.646  1.00  0.00     0.000 A 
HETATM    2  C   UNL     1     -21.264  -4.139  -6.942  1.00  0.00     0.001 A 
HETATM    3  C   UNL     1     -22.466  -4.319  -7.628  1.00  0.00     0.007 A 
HETATM    4  C   UNL     1     -22.477  -4.433  -9.024  1.00  0.00    -0.056 A 
HETATM    5  C   UNL     1     -21.263  -4.346  -9.721  1.00  0.00     0.007 A 
HETATM    6  C   UNL     1     -20.062  -4.163  -9.035  1.00  0.00     0.001 A 
ENDROOT
BRANCH   4   7
HETATM    7  C   UNL     1     -23.771  -4.641  -9.777  1.00  0.00     0.064 C 
BRANCH   7   8
HETATM    8  C   UNL     1     -24.556  -3.350 -10.001  1.00  0.00     0.168 C 
BRANCH   8   9
HETATM    9  O   UNL     1     -24.953  -3.206 -11.360  1.00  0.00    -0.401 OA
HETATM   10  H   UNL     1     -25.531  -2.422 -11.400  1.00  0.00     0.209 HD
ENDBRANCH   8   9
ENDBRANCH   7   8
ENDBRANCH   4   7
TORSDOF 3
BEGIN_RES ARG D 557
REMARK  4 active torsions:
REMARK  status: ('A' for Active; 'I' for Inactive)
REMARK    1  A    between atoms: CA   and  CB  
REMARK    2  A    between atoms: CB   and  CG  
REMARK    3  A    between atoms: CG   and  CD  
REMARK    4  A    between atoms: CD   and  NE  
REMARK       I    between atoms: NE   and  CZ  
REMARK       I    between atoms: CZ   and  NH1 
REMARK       I    between atoms: CZ   and  NH2 
ROOT
ATOM      1  CA  ARG D 557     -26.217   2.705 -17.014  1.00 35.49     0.159 C 
ENDROOT
BRANCH   1   2
ATOM      2  CB  ARG D 557     -26.789   1.319 -17.183  1.00 35.49     0.034 C 
BRANCH   2   3
ATOM      3  CG  ARG D 557     -25.857   0.196 -17.026  1.00 35.49     0.027 C 
BRANCH   3   4
ATOM      4  CD  ARG D 557     -26.162  -0.629 -15.835  1.00 35.49     0.116 C 
BRANCH   4   5
ATOM      5  NE  ARG D 557     -25.034  -0.741 -14.949  1.00 35.49    -0.212 N 
ATOM      6  CZ  ARG D 557     -24.616  -1.846 -14.373  1.00 35.49     0.666 C 
ATOM      7  NH1 ARG D 557     -25.220  -3.007 -14.545  1.00 35.49    -0.235 N 
ATOM      8  NH2 ARG D 557     -23.561  -1.766 -13.616  1.00 35.49    -0.235 N 
ATOM      9  HH  ARG D 557     -25.915  -3.083 -15.041  1.00 35.49     0.174 HD
ATOM     10  HH  ARG D 557     -24.901  -3.695 -14.146  1.00 35.49     0.174 HD
ATOM     11  HH  ARG D 557     -23.187  -1.005 -13.529  1.00 35.49     0.174 HD
ATOM     12  HH  ARG D 557     -23.259  -2.459 -13.231  1.00 35.49     0.174 HD
ATOM     13  HE  ARG D 557     -24.630  -0.027 -14.725  1.00 35.49     0.178 HD
ENDBRANCH   4   5
ENDBRANCH   3   4
ENDBRANCH   2   3
ENDBRANCH   1   2
END_RES ARG D 557
BEGIN_RES GLU D 570
REMARK  3 active torsions:
REMARK  status: ('A' for Active; 'I' for Inactive)
REMARK    5  A    between atoms: CA   and  CB  
REMARK    6  A    between atoms: CB   and  CG  
REMARK    7  A    between atoms: CG   and  CD  
ROOT
ATOM     14  CA  GLU D 570     -18.033  -6.348 -13.375  1.00 32.92     0.160 C 
ENDROOT
BRANCH  14  15
ATOM     15  CB  GLU D 570     -19.500  -6.345 -13.794  1.00 32.92     0.043 C 
BRANCH  15  16
ATOM     16  CG  GLU D 570     -20.444  -5.540 -12.976  1.00 32.92     0.100 C 
BRANCH  16  17
ATOM     17  CD  GLU D 570     -21.669  -5.106 -13.746  1.00 32.92     0.185 C 
ATOM     18  OE1 GLU D 570     -21.687  -5.247 -14.984  1.00 32.92    -0.647 OA
ATOM     19  OE2 GLU D 570     -22.614  -4.604 -13.107  1.00 32.92    -0.647 OA
ENDBRANCH  16  17
ENDBRANCH  15  16
ENDBRANCH  14  15
END_RES GLU D 570
ENDMDL
MODEL 2
REMARK VINA RESULT:      -6.0      6.995      8.828
REMARK  3 active torsions:
REMARK  status: ('A' for Active; 'I' for Inactive)
REMARK    1  A    between atoms: C_4  and  C_7 
REMARK    2  A    between atoms: C_7  and  C_8 
REMARK    3  A    between atoms: C_8  and  O_9 
ROOT
HETATM    1  C   UNL     1     -34.853  -1.870 -10.892  1.00  0.00     0.000 A 
HETATM    2  C   UNL     1     -33.511  -2.236 -11.005  1.00  0.00     0.001 A 
HETATM    3  C   UNL     1     -33.152  -3.585 -11.027  1.00  0.00     0.007 A 
HETATM    4  C   UNL     1     -34.132  -4.581 -10.946  1.00  0.00    -0.056 A 
HETATM    5  C   UNL     1     -35.477  -4.202 -10.823  1.00  0.00     0.007 A 
HETATM    6  C   UNL     1     -35.834  -2.853 -10.798  1.00  0.00     0.001 A 
ENDROOT
BRANCH   4   7
HETATM    7  C   UNL     1     -33.757  -6.045 -10.982  1.00  0.00     0.064 C 
BRANCH   7   8
HETATM    8  C   UNL     1     -34.688  -6.929 -10.155  1.00  0.00     0.168 C 
BRANCH   8   9
HETATM    9  O   UNL     1     -34.967  -8.160 -10.814  1.00  0.00    -0.401 OA
HETATM   10  H   UNL     1     -35.047  -7.955 -11.764  1.00  0.00     0.209 HD
ENDBRANCH   8   9
ENDBRANCH   7   8
ENDBRANCH   4   7
TORSDOF 3
BEGIN_RES ARG D 557
REMARK  4 active torsions:
REMARK  status: ('A' for Active; 'I' for Inactive)
REMARK    1  A    between atoms: CA   and  CB  
REMARK    2  A    between atoms: CB   and  CG  
REMARK    3  A    between atoms: CG   and  CD  
REMARK    4  A    between atoms: CD   and  NE  
REMARK       I    between atoms: NE   and  CZ  
REMARK       I    between atoms: CZ   and  NH1 
REMARK       I    between atoms: CZ   and  NH2 
ROOT
ATOM      1  CA  ARG D 557     -26.217   2.705 -17.014  1.00 35.49     0.159 C 
ENDROOT
BRANCH   1   2
ATOM      2  CB  ARG D 557     -26.789   1.319 -17.183  1.00 35.49     0.034 C 
BRANCH   2   3
ATOM      3  CG  ARG D 557     -25.863   0.195 -16.996  1.00 35.49     0.027 C 
BRANCH   3   4
ATOM      4  CD  ARG D 557     -26.285  -0.706 -15.899  1.00 35.49     0.116 C 
BRANCH   4   5
ATOM      5  NE  ARG D 557     -25.230  -0.929 -14.945  1.00 35.49    -0.212 N 
ATOM      6  CZ  ARG D 557     -24.962  -2.070 -14.350  1.00 35.49     0.666 C 
ATOM      7  NH1 ARG D 557     -25.668  -3.165 -14.564  1.00 35.49    -0.235 N 
ATOM      8  NH2 ARG D 557     -23.953  -2.095 -13.528  1.00 35.49    -0.235 N 
ATOM      9  HH  ARG D 557     -26.335  -3.172 -15.102  1.00 35.49     0.174 HD
ATOM     10  HH  ARG D 557     -25.444  -3.880 -14.149  1.00 35.49     0.174 HD
ATOM     11  HH  ARG D 557     -23.510  -1.375 -13.416  1.00 35.49     0.174 HD
ATOM     12  HH  ARG D 557     -23.747  -2.814 -13.128  1.00 35.49     0.174 HD
ATOM     13  HE  ARG D 557     -24.771  -0.259 -14.694  1.00 35.49     0.178 HD
ENDBRANCH   4   5
ENDBRANCH   3   4
ENDBRANCH   2   3
ENDBRANCH   1   2
END_RES ARG D 557
BEGIN_RES GLU D 570
REMARK  3 active torsions:
REMARK  status: ('A' for Active; 'I' for Inactive)
REMARK    5  A    between atoms: CA   and  CB  
REMARK    6  A    between atoms: CB   and  CG  
REMARK    7  A    between atoms: CG   and  CD  
ROOT
ATOM     14  CA  GLU D 570     -18.033  -6.348 -13.375  1.00 32.92     0.160 C 
ENDROOT
BRANCH  14  15
ATOM     15  CB  GLU D 570     -19.500  -6.345 -13.794  1.00 32.92     0.043 C 
BRANCH  15  16
ATOM     16  CG  GLU D 570     -20.443  -5.537 -12.979  1.00 32.92     0.100 C 
BRANCH  16  17
ATOM     17  CD  GLU D 570     -21.684  -5.132 -13.741  1.00 32.92     0.185 C 
ATOM     18  OE1 GLU D 570     -22.746  -4.952 -13.115  1.00 32.92    -0.647 OA
ATOM     19  OE2 GLU D 570     -21.596  -5.010 -14.978  1.00 32.92    -0.647 OA
ENDBRANCH  16  17
ENDBRANCH  15  16
ENDBRANCH  14  15
END_RES GLU D 570
ENDMDL
MODEL 3
REMARK VINA RESULT:      -5.8      1.526      2.070
REMARK  3 active torsions:
REMARK  status: ('A' for Active; 'I' for Inactive)
REMARK    1  A    between atoms: C_4  and  C_7 
REMARK    2  A    between atoms: C_7  and  C_8 
REMARK    3  A    between atoms: C_8  and  O_9 
ROOT
HETATM    1  C   UNL     1     -21.187  -4.447  -6.675  1.00  0.00     0.000 A 
HETATM    2  C   UNL     1     -22.263  -4.199  -7.528  1.00  0.00     0.001 A 
HETATM    3  C   UNL     1     -22.052  -4.070  -8.902  1.00  0.00     0.007 A 
HETATM    4  C   UNL     1     -20.764  -4.197  -9.437  1.00  0.00    -0.056 A 
HETATM    5  C   UNL     1     -19.689  -4.437  -8.570  1.00  0.00     0.007 A 
HETATM    6  C   UNL     1     -19.900  -4.562  -7.196  1.00  0.00     0.001 A 
ENDROOT
BRANCH   4   7
HETATM    7  C   UNL     1     -20.526  -4.072 -10.924  1.00  0.00     0.064 C 
BRANCH   7   8
HETATM    8  C   UNL     1     -21.801  -4.199 -11.755  1.00  0.00     0.168 C 
BRANCH   8   9
HETATM    9  O   UNL     1     -21.786  -3.324 -12.878  1.00  0.00    -0.401 OA
HETATM   10  H   UNL     1     -22.674  -2.926 -12.933  1.00  0.00     0.209 HD
ENDBRANCH   8   9
ENDBRANCH   7   8
ENDBRANCH   4   7
TORSDOF 3
BEGIN_RES ARG D 557
REMARK  4 active torsions:
REMARK  status: ('A' for Active; 'I' for Inactive)
REMARK    1  A    between atoms: CA   and  CB  
REMARK    2  A    between atoms: CB   and  CG  
REMARK    3  A    between atoms: CG   and  CD  
REMARK    4  A    between atoms: CD   and  NE  
REMARK       I    between atoms: NE   and  CZ  
REMARK       I    between atoms: CZ   and  NH1 
REMARK       I    between atoms: CZ   and  NH2 
ROOT
ATOM      1  CA  ARG D 557     -26.217   2.705 -17.014  1.00 35.49     0.159 C 
ENDROOT
BRANCH   1   2
ATOM      2  CB  ARG D 557     -26.789   1.319 -17.183  1.00 35.49     0.034 C 
BRANCH   2   3
ATOM      3  CG  ARG D 557     -25.835   0.204 -17.163  1.00 35.49     0.027 C 
BRANCH   3   4
ATOM      4  CD  ARG D 557     -24.749   0.408 -16.177  1.00 35.49     0.116 C 
BRANCH   4   5
ATOM      5  NE  ARG D 557     -24.897  -0.440 -15.023  1.00 35.49    -0.212 N 
ATOM      6  CZ  ARG D 557     -24.082  -1.409 -14.672  1.00 35.49     0.666 C 
ATOM      7  NH1 ARG D 557     -23.011  -1.725 -15.376  1.00 35.49    -0.235 N 
ATOM      8  NH2 ARG D 557     -24.361  -2.061 -13.581  1.00 35.49    -0.235 N 
ATOM      9  HH  ARG D 557     -22.807  -1.307 -16.096  1.00 35.49     0.174 HD
ATOM     10  HH  ARG D 557     -22.515  -2.365 -15.096  1.00 35.49     0.174 HD
ATOM     11  HH  ARG D 557     -25.055  -1.830 -13.142  1.00 35.49     0.174 HD
ATOM     12  HH  ARG D 557     -23.856  -2.691 -13.320  1.00 35.49     0.174 HD
ATOM     13  HE  ARG D 557     -25.600  -0.353 -14.552  1.00 35.49     0.178 HD
ENDBRANCH   4   5
ENDBRANCH   3   4
ENDBRANCH   2   3
ENDBRANCH   1   2
END_RES ARG D 557
BEGIN_RES GLU D 570
REMARK  3 active torsions:
REMARK  status: ('A' for Active; 'I' for Inactive)
REMARK    5  A    between atoms: CA   and  CB  
REMARK    6  A    between atoms: CB   and  CG  
REMARK    7  A    between atoms: CG   and  CD  
ROOT
ATOM     14  CA  GLU D 570     -18.033  -6.348 -13.375  1.00 32.92     0.160 C 
ENDROOT
BRANCH  14  15
ATOM     15  CB  GLU D 570     -19.500  -6.345 -13.794  1.00 32.92     0.043 C 
BRANCH  15  16
ATOM     16  CG  GLU D 570     -19.830  -5.777 -15.126  1.00 32.92     0.100 C 
BRANCH  16  17
ATOM     17  CD  GLU D 570     -21.313  -5.568 -15.327  1.00 32.92     0.185 C 
ATOM     18  OE1 GLU D 570     -22.096  -6.503 -15.072  1.00 32.92    -0.647 OA
ATOM     19  OE2 GLU D 570     -21.695  -4.462 -15.760  1.00 32.92    -0.647 OA
ENDBRANCH  16  17
ENDBRANCH  15  16
ENDBRANCH  14  15
END_RES GLU D 570
ENDMDL
MODEL 4
REMARK VINA RESULT:      -5.7      7.300      9.193
REMARK  3 active torsions:
REMARK  status: ('A' for Active; 'I' for Inactive)
REMARK    1  A    between atoms: C_4  and  C_7 
REMARK    2  A    between atoms: C_7  and  C_8 
REMARK    3  A    between atoms: C_8  and  O_9 
ROOT
HETATM    1  C   UNL     1     -34.836  -1.822 -10.895  1.00  0.00     0.000 A 
HETATM    2  C   UNL     1     -33.492  -2.178 -11.018  1.00  0.00     0.001 A 
HETATM    3  C   UNL     1     -33.124  -3.524 -11.053  1.00  0.00     0.007 A 
HETATM    4  C   UNL     1     -34.097  -4.528 -10.974  1.00  0.00    -0.056 A 
HETATM    5  C   UNL     1     -35.444  -4.159 -10.842  1.00  0.00     0.007 A 
HETATM    6  C   UNL     1     -35.810  -2.813 -10.804  1.00  0.00     0.001 A 
ENDROOT
BRANCH   4   7
HETATM    7  C   UNL     1     -33.713  -5.988 -11.024  1.00  0.00     0.064 C 
BRANCH   7   8
HETATM    8  C   UNL     1     -34.645  -6.888 -10.214  1.00  0.00     0.168 C 
BRANCH   8   9
HETATM    9  O   UNL     1     -34.543  -8.249 -10.619  1.00  0.00    -0.401 OA
HETATM   10  H   UNL     1     -34.711  -8.268 -11.579  1.00  0.00     0.209 HD
ENDBRANCH   8   9
ENDBRANCH   7   8
ENDBRANCH   4   7
TORSDOF 3
BEGIN_RES ARG D 557
REMARK  4 active torsions:
REMARK  status: ('A' for Active; 'I' for Inactive)
REMARK    1  A    between atoms: CA   and  CB  
REMARK    2  A    between atoms: CB   and  CG  
REMARK    3  A    between atoms: CG   and  CD  
REMARK    4  A    between atoms: CD   and  NE  
REMARK       I    between atoms: NE   and  CZ  
REMARK       I    between atoms: CZ   and  NH1 
REMARK       I    between atoms: CZ   and  NH2 
ROOT
ATOM      1  CA  ARG D 557     -26.217   2.705 -17.014  1.00 35.49     0.159 C 
ENDROOT
BRANCH   1   2
ATOM      2  CB  ARG D 557     -26.789   1.319 -17.183  1.00 35.49     0.034 C 
BRANCH   2   3
ATOM      3  CG  ARG D 557     -28.229   1.227 -17.452  1.00 35.49     0.027 C 
BRANCH   3   4
ATOM      4  CD  ARG D 557     -28.921   0.312 -16.515  1.00 35.49     0.116 C 
BRANCH   4   5
ATOM      5  NE  ARG D 557     -29.313  -0.919 -17.149  1.00 35.49    -0.212 N 
ATOM      6  CZ  ARG D 557     -28.691  -2.072 -17.038  1.00 35.49     0.666 C 
ATOM      7  NH1 ARG D 557     -27.595  -2.220 -16.317  1.00 35.49    -0.235 N 
ATOM      8  NH2 ARG D 557     -29.201  -3.091 -17.667  1.00 35.49    -0.235 N 
ATOM      9  HH  ARG D 557     -27.244  -1.563 -15.894  1.00 35.49     0.174 HD
ATOM     10  HH  ARG D 557     -27.235  -2.996 -16.280  1.00 35.49     0.174 HD
ATOM     11  HH  ARG D 557     -29.914  -2.967 -18.118  1.00 35.49     0.174 HD
ATOM     12  HH  ARG D 557     -28.830  -3.852 -17.616  1.00 35.49     0.174 HD
ATOM     13  HE  ARG D 557     -29.968  -0.898 -17.690  1.00 35.49     0.178 HD
ENDBRANCH   4   5
ENDBRANCH   3   4
ENDBRANCH   2   3
ENDBRANCH   1   2
END_RES ARG D 557
BEGIN_RES GLU D 570
REMARK  3 active torsions:
REMARK  status: ('A' for Active; 'I' for Inactive)
REMARK    5  A    between atoms: CA   and  CB  
REMARK    6  A    between atoms: CB   and  CG  
REMARK    7  A    between atoms: CG   and  CD  
ROOT
ATOM     14  CA  GLU D 570     -18.033  -6.348 -13.375  1.00 32.92     0.160 C 
ENDROOT
BRANCH  14  15
ATOM     15  CB  GLU D 570     -19.500  -6.345 -13.794  1.00 32.92     0.043 C 
BRANCH  15  16
ATOM     16  CG  GLU D 570     -19.797  -6.239 -15.246  1.00 32.92     0.100 C 
BRANCH  16  17
ATOM     17  CD  GLU D 570     -21.054  -5.452 -15.534  1.00 32.92     0.185 C 
ATOM     18  OE1 GLU D 570     -21.804  -5.141 -14.589  1.00 32.92    -0.647 OA
ATOM     19  OE2 GLU D 570     -21.301  -5.158 -16.720  1.00 32.92    -0.647 OA
ENDBRANCH  16  17
ENDBRANCH  15  16
ENDBRANCH  14  15
END_RES GLU D 570
ENDMDL
MODEL 5
REMARK VINA RESULT:      -5.7      2.087      3.020
REMARK  3 active torsions:
REMARK  status: ('A' for Active; 'I' for Inactive)
REMARK    1  A    between atoms: C_4  and  C_7 
REMARK    2  A    between atoms: C_7  and  C_8 
REMARK    3  A    between atoms: C_8  and  O_9 
ROOT
HETATM    1  C   UNL     1     -20.796  -4.364  -9.566  1.00  0.00     0.000 A 
HETATM    2  C   UNL     1     -20.486  -4.178 -10.914  1.00  0.00     0.001 A 
HETATM    3  C   UNL     1     -21.466  -3.729 -11.802  1.00  0.00     0.007 A 
HETATM    4  C   UNL     1     -22.762  -3.454 -11.349  1.00  0.00    -0.056 A 
HETATM    5  C   UNL     1     -23.064  -3.654  -9.994  1.00  0.00     0.007 A 
HETATM    6  C   UNL     1     -22.085  -4.105  -9.108  1.00  0.00     0.001 A 
ENDROOT
BRANCH   4   7
HETATM    7  C   UNL     1     -23.827  -2.956 -12.298  1.00  0.00     0.064 C 
BRANCH   7   8
HETATM    8  C   UNL     1     -23.290  -2.615 -13.686  1.00  0.00     0.168 C 
BRANCH   8   9
HETATM    9  O   UNL     1     -23.804  -3.495 -14.680  1.00  0.00    -0.401 OA
HETATM   10  H   UNL     1     -23.168  -4.229 -14.759  1.00  0.00     0.209 HD
ENDBRANCH   8   9
ENDBRANCH   7   8
ENDBRANCH   4   7
TORSDOF 3
BEGIN_RES ARG D 557
REMARK  4 active torsions:
REMARK  status: ('A' for Active; 'I' for Inactive)
REMARK    1  A    between atoms: CA   and  CB  
REMARK    2  A    between atoms: CB   and  CG  
REMARK    3  A    between atoms: CG   and  CD  
REMARK    4  A    between atoms: CD   and  NE  
REMARK       I    between atoms: NE   and  CZ  
REMARK       I    between atoms: CZ   and  NH1 
REMARK       I    between atoms: CZ   and  NH2 
ROOT
ATOM      1  CA  ARG D 557     -26.217   2.705 -17.014  1.00 35.49     0.159 C 
ENDROOT
BRANCH   1   2
ATOM      2  CB  ARG D 557     -26.789   1.319 -17.183  1.00 35.49     0.034 C 
BRANCH   2   3
ATOM      3  CG  ARG D 557     -28.221   1.156 -16.903  1.00 35.49     0.027 C 
BRANCH   3   4
ATOM      4  CD  ARG D 557     -28.614  -0.266 -16.781  1.00 35.49     0.116 C 
BRANCH   4   5
ATOM      5  NE  ARG D 557     -27.630  -1.042 -16.073  1.00 35.49    -0.212 N 
ATOM      6  CZ  ARG D 557     -27.487  -2.347 -16.141  1.00 35.49     0.666 C 
ATOM      7  NH1 ARG D 557     -28.269  -3.108 -16.883  1.00 35.49    -0.235 N 
ATOM      8  NH2 ARG D 557     -26.525  -2.882 -15.445  1.00 35.49    -0.235 N 
ATOM      9  HH  ARG D 557     -28.906  -2.777 -17.351  1.00 35.49     0.174 HD
ATOM     10  HH  ARG D 557     -28.126  -3.953 -16.890  1.00 35.49     0.174 HD
ATOM     11  HH  ARG D 557     -26.032  -2.364 -14.981  1.00 35.49     0.174 HD
ATOM     12  HH  ARG D 557     -26.399  -3.720 -15.467  1.00 35.49     0.174 HD
ATOM     13  HE  ARG D 557     -27.131  -0.640 -15.515  1.00 35.49     0.178 HD
ENDBRANCH   4   5
ENDBRANCH   3   4
ENDBRANCH   2   3
ENDBRANCH   1   2
END_RES ARG D 557
BEGIN_RES GLU D 570
REMARK  3 active torsions:
REMARK  status: ('A' for Active; 'I' for Inactive)
REMARK    5  A    between atoms: CA   and  CB  
REMARK    6  A    between atoms: CB   and  CG  
REMARK    7  A    between atoms: CG   and  CD  
ROOT
ATOM     14  CA  GLU D 570     -18.033  -6.348 -13.375  1.00 32.92     0.160 C 
ENDROOT
BRANCH  14  15
ATOM     15  CB  GLU D 570     -19.500  -6.345 -13.794  1.00 32.92     0.043 C 
BRANCH  15  16
ATOM     16  CG  GLU D 570     -19.814  -5.929 -15.185  1.00 32.92     0.100 C 
BRANCH  16  17
ATOM     17  CD  GLU D 570     -21.261  -5.536 -15.371  1.00 32.92     0.185 C 
ATOM     18  OE1 GLU D 570     -22.119  -6.007 -14.600  1.00 32.92    -0.647 OA
ATOM     19  OE2 GLU D 570     -21.541  -4.763 -16.308  1.00 32.92    -0.647 OA
ENDBRANCH  16  17
ENDBRANCH  15  16
ENDBRANCH  14  15
END_RES GLU D 570
ENDMDL
MODEL 6
REMARK VINA RESULT:      -5.5      2.113      2.608
REMARK  3 active torsions:
REMARK  status: ('A' for Active; 'I' for Inactive)
REMARK    1  A    between atoms: C_4  and  C_7 
REMARK    2  A    between atoms: C_7  and  C_8 
REMARK    3  A    between atoms: C_8  and  O_9 
ROOT
HETATM    1  C   UNL     1     -20.284  -4.050  -7.553  1.00  0.00     0.000 A 
HETATM    2  C   UNL     1     -21.571  -4.165  -7.027  1.00  0.00     0.001 A 
HETATM    3  C   UNL     1     -22.663  -4.345  -7.878  1.00  0.00     0.007 A 
HETATM    4  C   UNL     1     -22.477  -4.418  -9.265  1.00  0.00    -0.056 A 
HETATM    5  C   UNL     1     -21.180  -4.291  -9.783  1.00  0.00     0.007 A 
HETATM    6  C   UNL     1     -20.090  -4.109  -8.931  1.00  0.00     0.001 A 
ENDROOT
BRANCH   4   7
HETATM    7  C   UNL     1     -23.648  -4.624 -10.196  1.00  0.00     0.064 C 
BRANCH   7   8
HETATM    8  C   UNL     1     -24.490  -3.366 -10.399  1.00  0.00     0.168 C 
BRANCH   8   9
HETATM    9  O   UNL     1     -24.535  -2.979 -11.768  1.00  0.00    -0.401 OA
HETATM   10  H   UNL     1     -25.477  -2.899 -12.005  1.00  0.00     0.209 HD
ENDBRANCH   8   9
ENDBRANCH   7   8
ENDBRANCH   4   7
TORSDOF 3
BEGIN_RES ARG D 557
REMARK  4 active torsions:
REMARK  status: ('A' for Active; 'I' for Inactive)
REMARK    1  A    between atoms: CA   and  CB  
REMARK    2  A    between atoms: CB   and  CG  
REMARK    3  A    between atoms: CG   and  CD  
REMARK    4  A    between atoms: CD   and  NE  
REMARK       I    between atoms: NE   and  CZ  
REMARK       I    between atoms: CZ   and  NH1 
REMARK       I    between atoms: CZ   and  NH2 
ROOT
ATOM      1  CA  ARG D 557     -26.217   2.705 -17.014  1.00 35.49     0.159 C 
ENDROOT
BRANCH   1   2
ATOM      2  CB  ARG D 557     -26.789   1.319 -17.183  1.00 35.49     0.034 C 
BRANCH   2   3
ATOM      3  CG  ARG D 557     -28.239   1.223 -17.389  1.00 35.49     0.027 C 
BRANCH   3   4
ATOM      4  CD  ARG D 557     -28.880   0.266 -16.459  1.00 35.49     0.116 C 
BRANCH   4   5
ATOM      5  NE  ARG D 557     -29.265  -0.955 -17.118  1.00 35.49    -0.212 N 
ATOM      6  CZ  ARG D 557     -28.639  -2.107 -17.026  1.00 35.49     0.666 C 
ATOM      7  NH1 ARG D 557     -27.545  -2.265 -16.305  1.00 35.49    -0.235 N 
ATOM      8  NH2 ARG D 557     -29.142  -3.116 -17.676  1.00 35.49    -0.235 N 
ATOM      9  HH  ARG D 557     -27.197  -1.615 -15.867  1.00 35.49     0.174 HD
ATOM     10  HH  ARG D 557     -27.182  -3.040 -16.280  1.00 35.49     0.174 HD
ATOM     11  HH  ARG D 557     -29.854  -2.987 -18.127  1.00 35.49     0.174 HD
ATOM     12  HH  ARG D 557     -28.769  -3.877 -17.638  1.00 35.49     0.174 HD
ATOM     13  HE  ARG D 557     -29.918  -0.927 -17.661  1.00 35.49     0.178 HD
ENDBRANCH   4   5
ENDBRANCH   3   4
ENDBRANCH   2   3
ENDBRANCH   1   2
END_RES ARG D 557
BEGIN_RES GLU D 570
REMARK  3 active torsions:
REMARK  status: ('A' for Active; 'I' for Inactive)
REMARK    5  A    between atoms: CA   and  CB  
REMARK    6  A    between atoms: CB   and  CG  
REMARK    7  A    between atoms: CG   and  CD  
ROOT
ATOM     14  CA  GLU D 570     -18.033  -6.348 -13.375  1.00 32.92     0.160 C 
ENDROOT
BRANCH  14  15
ATOM     15  CB  GLU D 570     -19.500  -6.345 -13.794  1.00 32.92     0.043 C 
BRANCH  15  16
ATOM     16  CG  GLU D 570     -20.446  -5.550 -12.969  1.00 32.92     0.100 C 
BRANCH  16  17
ATOM     17  CD  GLU D 570     -21.737  -5.239 -13.689  1.00 32.92     0.185 C 
ATOM     18  OE1 GLU D 570     -22.315  -4.160 -13.455  1.00 32.92    -0.647 OA
ATOM     19  OE2 GLU D 570     -22.185  -6.090 -14.482  1.00 32.92    -0.647 OA
ENDBRANCH  16  17
ENDBRANCH  15  16
ENDBRANCH  14  15
END_RES GLU D 570
ENDMDL
MODEL 7
REMARK VINA RESULT:      -5.4      7.231      9.161
REMARK  3 active torsions:
REMARK  status: ('A' for Active; 'I' for Inactive)
REMARK    1  A    between atoms: C_4  and  C_7 
REMARK    2  A    between atoms: C_7  and  C_8 
REMARK    3  A    between atoms: C_8  and  O_9 
ROOT
HETATM    1  C   UNL     1     -33.225  -5.122 -11.399  1.00  0.00     0.000 A 
HETATM    2  C   UNL     1     -34.546  -5.334 -11.003  1.00  0.00     0.001 A 
HETATM    3  C   UNL     1     -35.403  -4.248 -10.812  1.00  0.00     0.007 A 
HETATM    4  C   UNL     1     -34.949  -2.940 -11.023  1.00  0.00    -0.056 A 
HETATM    5  C   UNL     1     -33.617  -2.739 -11.413  1.00  0.00     0.007 A 
HETATM    6  C   UNL     1     -32.761  -3.824 -11.601  1.00  0.00     0.001 A 
ENDROOT
BRANCH   4   7
HETATM    7  C   UNL     1     -35.870  -1.758 -10.832  1.00  0.00     0.064 C 
BRANCH   7   8
HETATM    8  C   UNL     1     -35.948  -0.847 -12.056  1.00  0.00     0.168 C 
BRANCH   8   9
HETATM    9  O   UNL     1     -35.271   0.386 -11.837  1.00  0.00    -0.401 OA
HETATM   10  H   UNL     1     -35.237   0.843 -12.697  1.00  0.00     0.209 HD
ENDBRANCH   8   9
ENDBRANCH   7   8
ENDBRANCH   4   7
TORSDOF 3
BEGIN_RES ARG D 557
REMARK  4 active torsions:
REMARK  status: ('A' for Active; 'I' for Inactive)
REMARK    1  A    between atoms: CA   and  CB  
REMARK    2  A    between atoms: CB   and  CG  
REMARK    3  A    between atoms: CG   and  CD  
REMARK    4  A    between atoms: CD   and  NE  
REMARK       I    between atoms: NE   and  CZ  
REMARK       I    between atoms: CZ   and  NH1 
REMARK       I    between atoms: CZ   and  NH2 
ROOT
ATOM      1  CA  ARG D 557     -26.217   2.705 -17.014  1.00 35.49     0.159 C 
ENDROOT
BRANCH   1   2
ATOM      2  CB  ARG D 557     -26.789   1.319 -17.183  1.00 35.49     0.034 C 
BRANCH   2   3
ATOM      3  CG  ARG D 557     -28.231   1.226 -17.442  1.00 35.49     0.027 C 
BRANCH   3   4
ATOM      4  CD  ARG D 557     -28.915   0.307 -16.503  1.00 35.49     0.116 C 
BRANCH   4   5
ATOM      5  NE  ARG D 557     -29.302  -0.926 -17.137  1.00 35.49    -0.212 N 
ATOM      6  CZ  ARG D 557     -28.669  -2.073 -17.035  1.00 35.49     0.666 C 
ATOM      7  NH1 ARG D 557     -27.565  -2.214 -16.325  1.00 35.49    -0.235 N 
ATOM      8  NH2 ARG D 557     -29.175  -3.095 -17.662  1.00 35.49    -0.235 N 
ATOM      9  HH  ARG D 557     -27.215  -1.555 -15.903  1.00 35.49     0.174 HD
ATOM     10  HH  ARG D 557     -27.197  -2.987 -16.293  1.00 35.49     0.174 HD
ATOM     11  HH  ARG D 557     -29.894  -2.977 -18.106  1.00 35.49     0.174 HD
ATOM     12  HH  ARG D 557     -28.798  -3.853 -17.616  1.00 35.49     0.174 HD
ATOM     13  HE  ARG D 557     -29.962  -0.909 -17.672  1.00 35.49     0.178 HD
ENDBRANCH   4   5
ENDBRANCH   3   4
ENDBRANCH   2   3
ENDBRANCH   1   2
END_RES ARG D 557
BEGIN_RES GLU D 570
REMARK  3 active torsions:
REMARK  status: ('A' for Active; 'I' for Inactive)
REMARK    5  A    between atoms: CA   and  CB  
REMARK    6  A    between atoms: CB   and  CG  
REMARK    7  A    between atoms: CG   and  CD  
ROOT
ATOM     14  CA  GLU D 570     -18.033  -6.348 -13.375  1.00 32.92     0.160 C 
ENDROOT
BRANCH  14  15
ATOM     15  CB  GLU D 570     -19.500  -6.345 -13.794  1.00 32.92     0.043 C 
BRANCH  15  16
ATOM     16  CG  GLU D 570     -20.443  -5.535 -12.980  1.00 32.92     0.100 C 
BRANCH  16  17
ATOM     17  CD  GLU D 570     -21.713  -5.189 -13.721  1.00 32.92     0.185 C 
ATOM     18  OE1 GLU D 570     -22.782  -5.110 -13.085  1.00 32.92    -0.647 OA
ATOM     19  OE2 GLU D 570     -21.642  -5.011 -14.953  1.00 32.92    -0.647 OA
ENDBRANCH  16  17
ENDBRANCH  15  16
ENDBRANCH  14  15
END_RES GLU D 570
ENDMDL
MODEL 8
REMARK VINA RESULT:      -5.2      7.183      9.041
REMARK  3 active torsions:
REMARK  status: ('A' for Active; 'I' for Inactive)
REMARK    1  A    between atoms: C_4  and  C_7 
REMARK    2  A    between atoms: C_7  and  C_8 
REMARK    3  A    between atoms: C_8  and  O_9 
ROOT
HETATM    1  C   UNL     1     -33.246  -4.928 -11.411  1.00  0.00     0.000 A 
HETATM    2  C   UNL     1     -34.570  -5.199 -11.065  1.00  0.00     0.001 A 
HETATM    3  C   UNL     1     -35.464  -4.151 -10.838  1.00  0.00     0.007 A 
HETATM    4  C   UNL     1     -35.044  -2.821 -10.962  1.00  0.00    -0.056 A 
HETATM    5  C   UNL     1     -33.709  -2.560 -11.301  1.00  0.00     0.007 A 
HETATM    6  C   UNL     1     -32.815  -3.608 -11.525  1.00  0.00     0.001 A 
ENDROOT
BRANCH   4   7
HETATM    7  C   UNL     1     -36.006  -1.678 -10.731  1.00  0.00     0.064 C 
BRANCH   7   8
HETATM    8  C   UNL     1     -35.991  -0.638 -11.850  1.00  0.00     0.168 C 
BRANCH   8   9
HETATM    9  O   UNL     1     -36.641  -1.118 -13.021  1.00  0.00    -0.401 OA
HETATM   10  H   UNL     1     -36.963  -2.015 -12.815  1.00  0.00     0.209 HD
ENDBRANCH   8   9
ENDBRANCH   7   8
ENDBRANCH   4   7
TORSDOF 3
BEGIN_RES ARG D 557
REMARK  4 active torsions:
REMARK  status: ('A' for Active; 'I' for Inactive)
REMARK    1  A    between atoms: CA   and  CB  
REMARK    2  A    between atoms: CB   and  CG  
REMARK    3  A    between atoms: CG   and  CD  
REMARK    4  A    between atoms: CD   and  NE  
REMARK       I    between atoms: NE   and  CZ  
REMARK       I    between atoms: CZ   and  NH1 
REMARK       I    between atoms: CZ   and  NH2 
ROOT
ATOM      1  CA  ARG D 557     -26.217   2.705 -17.014  1.00 35.49     0.159 C 
ENDROOT
BRANCH   1   2
ATOM      2  CB  ARG D 557     -26.789   1.319 -17.183  1.00 35.49     0.034 C 
BRANCH   2   3
ATOM      3  CG  ARG D 557     -25.865   0.195 -16.991  1.00 35.49     0.027 C 
BRANCH   3   4
ATOM      4  CD  ARG D 557     -26.299  -0.714 -15.905  1.00 35.49     0.116 C 
BRANCH   4   5
ATOM      5  NE  ARG D 557     -25.259  -0.935 -14.935  1.00 35.49    -0.212 N 
ATOM      6  CZ  ARG D 557     -25.004  -2.073 -14.329  1.00 35.49     0.666 C 
ATOM      7  NH1 ARG D 557     -25.710  -3.167 -14.547  1.00 35.49    -0.235 N 
ATOM      8  NH2 ARG D 557     -24.007  -2.097 -13.493  1.00 35.49    -0.235 N 
ATOM      9  HH  ARG D 557     -26.369  -3.174 -15.095  1.00 35.49     0.174 HD
ATOM     10  HH  ARG D 557     -25.495  -3.881 -14.125  1.00 35.49     0.174 HD
ATOM     11  HH  ARG D 557     -23.563  -1.378 -13.378  1.00 35.49     0.174 HD
ATOM     12  HH  ARG D 557     -23.809  -2.814 -13.086  1.00 35.49     0.174 HD
ATOM     13  HE  ARG D 557     -24.801  -0.265 -14.681  1.00 35.49     0.178 HD
ENDBRANCH   4   5
ENDBRANCH   3   4
ENDBRANCH   2   3
ENDBRANCH   1   2
END_RES ARG D 557
BEGIN_RES GLU D 570
REMARK  3 active torsions:
REMARK  status: ('A' for Active; 'I' for Inactive)
REMARK    5  A    between atoms: CA   and  CB  
REMARK    6  A    between atoms: CB   and  CG  
REMARK    7  A    between atoms: CG   and  CD  
ROOT
ATOM     14  CA  GLU D 570     -18.033  -6.348 -13.375  1.00 32.92     0.160 C 
ENDROOT
BRANCH  14  15
ATOM     15  CB  GLU D 570     -19.500  -6.345 -13.794  1.00 32.92     0.043 C 
BRANCH  15  16
ATOM     16  CG  GLU D 570     -20.112  -7.651 -14.152  1.00 32.92     0.100 C 
BRANCH  16  17
ATOM     17  CD  GLU D 570     -20.686  -7.670 -15.549  1.00 32.92     0.185 C 
ATOM     18  OE1 GLU D 570     -21.166  -6.621 -16.021  1.00 32.92    -0.647 OA
ATOM     19  OE2 GLU D 570     -20.669  -8.749 -16.174  1.00 32.92    -0.647 OA
ENDBRANCH  16  17
ENDBRANCH  15  16
ENDBRANCH  14  15
END_RES GLU D 570
ENDMDL
MODEL 9
REMARK VINA RESULT:      -5.2      2.055      3.037
REMARK  3 active torsions:
REMARK  status: ('A' for Active; 'I' for Inactive)
REMARK    1  A    between atoms: C_4  and  C_7 
REMARK    2  A    between atoms: C_7  and  C_8 
REMARK    3  A    between atoms: C_8  and  O_9 
ROOT
HETATM    1  C   UNL     1     -21.892  -3.866  -9.844  1.00  0.00     0.000 A 
HETATM    2  C   UNL     1     -22.697  -3.921  -8.706  1.00  0.00     0.001 A 
HETATM    3  C   UNL     1     -22.131  -4.203  -7.461  1.00  0.00     0.007 A 
HETATM    4  C   UNL     1     -20.753  -4.425  -7.341  1.00  0.00    -0.056 A 
HETATM    5  C   UNL     1     -19.956  -4.376  -8.494  1.00  0.00     0.007 A 
HETATM    6  C   UNL     1     -20.523  -4.097  -9.738  1.00  0.00     0.001 A 
ENDROOT
BRANCH   4   7
HETATM    7  C   UNL     1     -20.127  -4.718  -5.998  1.00  0.00     0.064 C 
BRANCH   7   8
HETATM    8  C   UNL     1     -20.483  -6.100  -5.452  1.00  0.00     0.168 C 
BRANCH   8   9
HETATM    9  O   UNL     1     -19.917  -7.139  -6.245  1.00  0.00    -0.401 OA
HETATM   10  H   UNL     1     -20.197  -6.973  -7.163  1.00  0.00     0.209 HD
ENDBRANCH   8   9
ENDBRANCH   7   8
ENDBRANCH   4   7
TORSDOF 3
BEGIN_RES ARG D 557
REMARK  4 active torsions:
REMARK  status: ('A' for Active; 'I' for Inactive)
REMARK    1  A    between atoms: CA   and  CB  
REMARK    2  A    between atoms: CB   and  CG  
REMARK    3  A    between atoms: CG   and  CD  
REMARK    4  A    between atoms: CD   and  NE  
REMARK       I    between atoms: NE   and  CZ  
REMARK       I    between atoms: CZ   and  NH1 
REMARK       I    between atoms: CZ   and  NH2 
ROOT
ATOM      1  CA  ARG D 557     -26.217   2.705 -17.014  1.00 35.49     0.159 C 
ENDROOT
BRANCH   1   2
ATOM      2  CB  ARG D 557     -26.789   1.319 -17.183  1.00 35.49     0.034 C 
BRANCH   2   3
ATOM      3  CG  ARG D 557     -25.839   0.201 -17.133  1.00 35.49     0.027 C 
BRANCH   3   4
ATOM      4  CD  ARG D 557     -24.772   0.412 -16.127  1.00 35.49     0.116 C 
BRANCH   4   5
ATOM      5  NE  ARG D 557     -24.890  -0.492 -15.014  1.00 35.49    -0.212 N 
ATOM      6  CZ  ARG D 557     -24.047  -1.454 -14.713  1.00 35.49     0.666 C 
ATOM      7  NH1 ARG D 557     -22.972  -1.707 -15.437  1.00 35.49    -0.235 N 
ATOM      8  NH2 ARG D 557     -24.300  -2.164 -13.652  1.00 35.49    -0.235 N 
ATOM      9  HH  ARG D 557     -22.785  -1.251 -16.137  1.00 35.49     0.174 HD
ATOM     10  HH  ARG D 557     -22.457  -2.346 -15.190  1.00 35.49     0.174 HD
ATOM     11  HH  ARG D 557     -24.997  -1.973 -13.200  1.00 35.49     0.174 HD
ATOM     12  HH  ARG D 557     -23.777  -2.791 -13.424  1.00 35.49     0.174 HD
ATOM     13  HE  ARG D 557     -25.592  -0.447 -14.535  1.00 35.49     0.178 HD
ENDBRANCH   4   5
ENDBRANCH   3   4
ENDBRANCH   2   3
ENDBRANCH   1   2
END_RES ARG D 557
BEGIN_RES GLU D 570
REMARK  3 active torsions:
REMARK  status: ('A' for Active; 'I' for Inactive)
REMARK    5  A    between atoms: CA   and  CB  
REMARK    6  A    between atoms: CB   and  CG  
REMARK    7  A    between atoms: CG   and  CD  
ROOT
ATOM     14  CA  GLU D 570     -18.033  -6.348 -13.375  1.00 32.92     0.160 C 
ENDROOT
BRANCH  14  15
ATOM     15  CB  GLU D 570     -19.500  -6.345 -13.794  1.00 32.92     0.043 C 
BRANCH  15  16
ATOM     16  CG  GLU D 570     -20.441  -5.526 -12.987  1.00 32.92     0.100 C 
BRANCH  16  17
ATOM     17  CD  GLU D 570     -21.656  -5.083 -13.768  1.00 32.92     0.185 C 
ATOM     18  OE1 GLU D 570     -21.523  -4.765 -14.966  1.00 32.92    -0.647 OA
ATOM     19  OE2 GLU D 570     -22.750  -5.038 -13.172  1.00 32.92    -0.647 OA
ENDBRANCH  16  17
ENDBRANCH  15  16
ENDBRANCH  14  15
END_RES GLU D 570
ENDMDL
