MODEL 1
REMARK VINA RESULT:      -8.4      0.000      0.000
REMARK  5 active torsions:
REMARK  status: ('A' for Active; 'I' for Inactive)
REMARK    1  A    between atoms: CG_7  and  CB_10 
REMARK    2  A    between atoms: CB_10  and  CA_11 
REMARK    3  A    between atoms: CA_11  and  C_12 
REMARK    4  A    between atoms: CA_11  and  N_15 
REMARK    5  A    between atoms: C_12  and  OXT_14 
ROOT
ATOM      1  CZ3 TRP A   1     -19.916  -4.296  -8.799  1.00  0.00     0.001 A 
ATOM      2  CH2 TRP A   1     -20.407  -4.104  -7.509  1.00  0.00     0.002 A 
ATOM      3  CZ2 TRP A   1     -21.772  -3.912  -7.281  1.00  0.00     0.030 A 
ATOM      4  CE2 TRP A   1     -22.625  -3.961  -8.389  1.00  0.00     0.042 A 
ATOM      5  CD2 TRP A   1     -22.174  -4.196  -9.690  1.00  0.00    -0.002 A 
ATOM      6  CE3 TRP A   1     -20.786  -4.337  -9.896  1.00  0.00     0.014 A 
ATOM      7  CG  TRP A   1     -23.335  -4.315 -10.524  1.00  0.00    -0.028 A 
ATOM      8  CD1 TRP A   1     -24.429  -4.036  -9.725  1.00  0.00     0.096 A 
ATOM      9  NE1 TRP A   1     -23.989  -3.805  -8.454  1.00  0.00    -0.365 N 
ATOM     10  HE1 TRP A   1     -24.582  -3.591  -7.660  1.00  0.00     0.165 HD
ENDROOT
BRANCH   7  11
ATOM     11  CB  TRP A   1     -23.407  -4.733 -11.963  1.00  0.00     0.087 C 
BRANCH  11  12
ATOM     12  CA  TRP A   1     -22.799  -3.720 -12.950  1.00  0.00     0.318 C 
BRANCH  12  13
ATOM     13  C   TRP A   1     -22.991  -4.101 -14.437  1.00  0.00     0.174 C 
ATOM     14  O   TRP A   1     -24.022  -4.599 -14.873  1.00  0.00    -0.648 OA
BRANCH  13  15
ATOM     15  OXT TRP A   1     -21.970  -3.775 -15.259  1.00  0.00    -0.775 OA
ATOM     16  HXT TRP A   1     -21.266  -4.449 -15.330  1.00  0.00     0.167 HD
ENDBRANCH  13  15
ENDBRANCH  12  13
BRANCH  12  17
ATOM     17  N   TRP A   1     -23.434  -2.391 -12.717  1.00  0.00     0.093 N 
ATOM     18  H1  TRP A   1     -24.176  -2.530 -12.022  1.00  0.00     0.314 HD
ATOM     19  H2  TRP A   1     -23.964  -2.148 -13.558  1.00  0.00     0.314 HD
ENDBRANCH  12  17
ENDBRANCH  11  12
ENDBRANCH   7  11
TORSDOF 5
BEGIN_RES ARG D 557
REMARK  4 active torsions:
REMARK  status: ('A' for Active; 'I' for Inactive)
REMARK    1  A    between atoms: CA   and  CB  
REMARK    2  A    between atoms: CB   and  CG  
REMARK    3  A    between atoms: CG   and  CD  
REMARK    4  A    between atoms: CD   and  NE  
REMARK       I    between atoms: NE   and  CZ  
REMARK       I    between atoms: CZ   and  NH1 
REMARK       I    between atoms: CZ   and  NH2 
ROOT
ATOM      1  CA  ARG D 557     -26.217   2.705 -17.014  1.00 35.49     0.159 C 
ENDROOT
BRANCH   1   2
ATOM      2  CB  ARG D 557     -26.789   1.319 -17.183  1.00 35.49     0.034 C 
BRANCH   2   3
ATOM      3  CG  ARG D 557     -28.225   1.160 -16.922  1.00 35.49     0.027 C 
BRANCH   3   4
ATOM      4  CD  ARG D 557     -28.602  -0.251 -16.681  1.00 35.49     0.116 C 
BRANCH   4   5
ATOM      5  NE  ARG D 557     -27.580  -0.971 -15.967  1.00 35.49    -0.212 N 
ATOM      6  CZ  ARG D 557     -27.366  -2.266 -16.031  1.00 35.49     0.666 C 
ATOM      7  NH1 ARG D 557     -28.103  -3.071 -16.775  1.00 35.49    -0.235 N 
ATOM      8  NH2 ARG D 557     -26.380  -2.747 -15.331  1.00 35.49    -0.235 N 
ATOM      9  HH  ARG D 557     -28.756  -2.776 -17.245  1.00 35.49     0.174 HD
ATOM     10  HH  ARG D 557     -27.915  -3.907 -16.779  1.00 35.49     0.174 HD
ATOM     11  HH  ARG D 557     -25.916  -2.203 -14.866  1.00 35.49     0.174 HD
ATOM     12  HH  ARG D 557     -26.208  -3.577 -15.350  1.00 35.49     0.174 HD
ATOM     13  HE  ARG D 557     -27.105  -0.541 -15.408  1.00 35.49     0.178 HD
ENDBRANCH   4   5
ENDBRANCH   3   4
ENDBRANCH   2   3
ENDBRANCH   1   2
END_RES ARG D 557
BEGIN_RES GLU D 570
REMARK  3 active torsions:
REMARK  status: ('A' for Active; 'I' for Inactive)
REMARK    5  A    between atoms: CA   and  CB  
REMARK    6  A    between atoms: CB   and  CG  
REMARK    7  A    between atoms: CG   and  CD  
ROOT
ATOM     14  CA  GLU D 570     -18.033  -6.348 -13.375  1.00 32.92     0.160 C 
ENDROOT
BRANCH  14  15
ATOM     15  CB  GLU D 570     -19.500  -6.345 -13.794  1.00 32.92     0.043 C 
BRANCH  15  16
ATOM     16  CG  GLU D 570     -20.085  -7.633 -14.249  1.00 32.92     0.100 C 
BRANCH  16  17
ATOM     17  CD  GLU D 570     -20.730  -7.538 -15.612  1.00 32.92     0.185 C 
ATOM     18  OE1 GLU D 570     -21.111  -8.583 -16.175  1.00 32.92    -0.647 OA
ATOM     19  OE2 GLU D 570     -20.841  -6.409 -16.129  1.00 32.92    -0.647 OA
ENDBRANCH  16  17
ENDBRANCH  15  16
ENDBRANCH  14  15
END_RES GLU D 570
ENDMDL
MODEL 2
REMARK VINA RESULT:      -7.8      1.653      2.331
REMARK  5 active torsions:
REMARK  status: ('A' for Active; 'I' for Inactive)
REMARK    1  A    between atoms: CG_7  and  CB_10 
REMARK    2  A    between atoms: CB_10  and  CA_11 
REMARK    3  A    between atoms: CA_11  and  C_12 
REMARK    4  A    between atoms: CA_11  and  N_15 
REMARK    5  A    between atoms: C_12  and  OXT_14 
ROOT
ATOM      1  CZ3 TRP A   1     -22.413  -4.162  -7.798  1.00  0.00     0.001 A 
ATOM      2  CH2 TRP A   1     -21.027  -4.292  -7.734  1.00  0.00     0.002 A 
ATOM      3  CZ2 TRP A   1     -20.244  -4.210  -8.888  1.00  0.00     0.030 A 
ATOM      4  CE2 TRP A   1     -20.900  -3.955 -10.097  1.00  0.00     0.042 A 
ATOM      5  CD2 TRP A   1     -22.282  -3.775 -10.192  1.00  0.00    -0.002 A 
ATOM      6  CE3 TRP A   1     -23.052  -3.910  -9.019  1.00  0.00     0.014 A 
ATOM      7  CG  TRP A   1     -22.566  -3.396 -11.546  1.00  0.00    -0.028 A 
ATOM      8  CD1 TRP A   1     -21.371  -3.474 -12.240  1.00  0.00     0.096 A 
ATOM      9  NE1 TRP A   1     -20.386  -3.830 -11.365  1.00  0.00    -0.365 N 
ATOM     10  HE1 TRP A   1     -19.407  -3.944 -11.603  1.00  0.00     0.165 HD
ENDROOT
BRANCH   7  11
ATOM     11  CB  TRP A   1     -23.866  -2.927 -12.128  1.00  0.00     0.087 C 
BRANCH  11  12
ATOM     12  CA  TRP A   1     -23.864  -2.787 -13.661  1.00  0.00     0.318 C 
BRANCH  12  13
ATOM     13  C   TRP A   1     -25.015  -3.547 -14.361  1.00  0.00     0.174 C 
ATOM     14  O   TRP A   1     -26.168  -3.133 -14.398  1.00  0.00    -0.648 OA
BRANCH  13  15
ATOM     15  OXT TRP A   1     -24.658  -4.676 -15.012  1.00  0.00    -0.775 OA
ATOM     16  HXT TRP A   1     -23.703  -4.759 -15.201  1.00  0.00     0.167 HD
ENDBRANCH  13  15
ENDBRANCH  12  13
BRANCH  12  17
ATOM     17  N   TRP A   1     -23.976  -1.341 -14.004  1.00  0.00     0.093 N 
ATOM     18  H1  TRP A   1     -23.458  -0.820 -13.287  1.00  0.00     0.314 HD
ATOM     19  H2  TRP A   1     -24.942  -1.053 -13.829  1.00  0.00     0.314 HD
ENDBRANCH  12  17
ENDBRANCH  11  12
ENDBRANCH   7  11
TORSDOF 5
BEGIN_RES ARG D 557
REMARK  4 active torsions:
REMARK  status: ('A' for Active; 'I' for Inactive)
REMARK    1  A    between atoms: CA   and  CB  
REMARK    2  A    between atoms: CB   and  CG  
REMARK    3  A    between atoms: CG   and  CD  
REMARK    4  A    between atoms: CD   and  NE  
REMARK       I    between atoms: NE   and  CZ  
REMARK       I    between atoms: CZ   and  NH1 
REMARK       I    between atoms: CZ   and  NH2 
ROOT
ATOM      1  CA  ARG D 557     -26.217   2.705 -17.014  1.00 35.49     0.159 C 
ENDROOT
BRANCH   1   2
ATOM      2  CB  ARG D 557     -26.789   1.319 -17.183  1.00 35.49     0.034 C 
BRANCH   2   3
ATOM      3  CG  ARG D 557     -28.148   1.099 -16.674  1.00 35.49     0.027 C 
BRANCH   3   4
ATOM      4  CD  ARG D 557     -28.797  -0.081 -17.291  1.00 35.49     0.116 C 
BRANCH   4   5
ATOM      5  NE  ARG D 557     -28.195  -1.316 -16.863  1.00 35.49    -0.212 N 
ATOM      6  CZ  ARG D 557     -28.691  -2.519 -17.052  1.00 35.49     0.666 C 
ATOM      7  NH1 ARG D 557     -29.843  -2.722 -17.664  1.00 35.49    -0.235 N 
ATOM      8  NH2 ARG D 557     -27.997  -3.530 -16.616  1.00 35.49    -0.235 N 
ATOM      9  HH  ARG D 557     -30.315  -2.072 -17.961  1.00 35.49     0.174 HD
ATOM     10  HH  ARG D 557     -30.115  -3.529 -17.761  1.00 35.49     0.174 HD
ATOM     11  HH  ARG D 557     -27.253  -3.368 -16.231  1.00 35.49     0.174 HD
ATOM     12  HH  ARG D 557     -28.283  -4.321 -16.723  1.00 35.49     0.174 HD
ATOM     13  HE  ARG D 557     -27.485  -1.274 -16.397  1.00 35.49     0.178 HD
ENDBRANCH   4   5
ENDBRANCH   3   4
ENDBRANCH   2   3
ENDBRANCH   1   2
END_RES ARG D 557
BEGIN_RES GLU D 570
REMARK  3 active torsions:
REMARK  status: ('A' for Active; 'I' for Inactive)
REMARK    5  A    between atoms: CA   and  CB  
REMARK    6  A    between atoms: CB   and  CG  
REMARK    7  A    between atoms: CG   and  CD  
ROOT
ATOM     14  CA  GLU D 570     -18.033  -6.348 -13.375  1.00 32.92     0.160 C 
ENDROOT
BRANCH  14  15
ATOM     15  CB  GLU D 570     -19.500  -6.345 -13.794  1.00 32.92     0.043 C 
BRANCH  15  16
ATOM     16  CG  GLU D 570     -19.825  -5.817 -15.144  1.00 32.92     0.100 C 
BRANCH  16  17
ATOM     17  CD  GLU D 570     -21.301  -5.554 -15.334  1.00 32.92     0.185 C 
ATOM     18  OE1 GLU D 570     -21.662  -4.484 -15.861  1.00 32.92    -0.647 OA
ATOM     19  OE2 GLU D 570     -22.105  -6.420 -14.937  1.00 32.92    -0.647 OA
ENDBRANCH  16  17
ENDBRANCH  15  16
ENDBRANCH  14  15
END_RES GLU D 570
ENDMDL
MODEL 3
REMARK VINA RESULT:      -7.1      1.722      2.076
REMARK  5 active torsions:
REMARK  status: ('A' for Active; 'I' for Inactive)
REMARK    1  A    between atoms: CG_7  and  CB_10 
REMARK    2  A    between atoms: CB_10  and  CA_11 
REMARK    3  A    between atoms: CA_11  and  C_12 
REMARK    4  A    between atoms: CA_11  and  N_15 
REMARK    5  A    between atoms: C_12  and  OXT_14 
ROOT
ATOM      1  CZ3 TRP A   1     -19.622  -5.663  -7.131  1.00  0.00     0.001 A 
ATOM      2  CH2 TRP A   1     -20.449  -5.883  -6.031  1.00  0.00     0.002 A 
ATOM      3  CZ2 TRP A   1     -21.774  -5.442  -6.029  1.00  0.00     0.030 A 
ATOM      4  CE2 TRP A   1     -22.247  -4.810  -7.184  1.00  0.00     0.042 A 
ATOM      5  CD2 TRP A   1     -21.460  -4.613  -8.322  1.00  0.00    -0.002 A 
ATOM      6  CE3 TRP A   1     -20.112  -5.025  -8.278  1.00  0.00     0.014 A 
ATOM      7  CG  TRP A   1     -22.316  -4.071  -9.337  1.00  0.00    -0.028 A 
ATOM      8  CD1 TRP A   1     -23.547  -3.854  -8.746  1.00  0.00     0.096 A 
ATOM      9  NE1 TRP A   1     -23.486  -4.282  -7.451  1.00  0.00    -0.365 N 
ATOM     10  HE1 TRP A   1     -24.255  -4.255  -6.791  1.00  0.00     0.165 HD
ENDROOT
BRANCH   7  11
ATOM     11  CB  TRP A   1     -22.007  -3.837 -10.787  1.00  0.00     0.087 C 
BRANCH  11  12
ATOM     12  CA  TRP A   1     -23.132  -4.253 -11.752  1.00  0.00     0.318 C 
BRANCH  12  13
ATOM     13  C   TRP A   1     -24.087  -3.099 -12.136  1.00  0.00     0.174 C 
ATOM     14  O   TRP A   1     -25.240  -3.019 -11.729  1.00  0.00    -0.648 OA
BRANCH  13  15
ATOM     15  OXT TRP A   1     -23.546  -2.122 -12.895  1.00  0.00    -0.775 OA
ATOM     16  HXT TRP A   1     -24.154  -1.718 -13.545  1.00  0.00     0.167 HD
ENDBRANCH  13  15
ENDBRANCH  12  13
BRANCH  12  17
ATOM     17  N   TRP A   1     -22.512  -4.788 -12.999  1.00  0.00     0.093 N 
ATOM     18  H1  TRP A   1     -22.883  -4.235 -13.781  1.00  0.00     0.314 HD
ATOM     19  H2  TRP A   1     -22.915  -5.712 -13.174  1.00  0.00     0.314 HD
ENDBRANCH  12  17
ENDBRANCH  11  12
ENDBRANCH   7  11
TORSDOF 5
BEGIN_RES ARG D 557
REMARK  4 active torsions:
REMARK  status: ('A' for Active; 'I' for Inactive)
REMARK    1  A    between atoms: CA   and  CB  
REMARK    2  A    between atoms: CB   and  CG  
REMARK    3  A    between atoms: CG   and  CD  
REMARK    4  A    between atoms: CD   and  NE  
REMARK       I    between atoms: NE   and  CZ  
REMARK       I    between atoms: CZ   and  NH1 
REMARK       I    between atoms: CZ   and  NH2 
ROOT
ATOM      1  CA  ARG D 557     -26.217   2.705 -17.014  1.00 35.49     0.159 C 
ENDROOT
BRANCH   1   2
ATOM      2  CB  ARG D 557     -26.789   1.319 -17.183  1.00 35.49     0.034 C 
BRANCH   2   3
ATOM      3  CG  ARG D 557     -25.962   0.201 -16.713  1.00 35.49     0.027 C 
BRANCH   3   4
ATOM      4  CD  ARG D 557     -26.762  -0.852 -16.047  1.00 35.49     0.116 C 
BRANCH   4   5
ATOM      5  NE  ARG D 557     -28.008  -1.097 -16.725  1.00 35.49    -0.212 N 
ATOM      6  CZ  ARG D 557     -28.533  -2.277 -16.963  1.00 35.49     0.666 C 
ATOM      7  NH1 ARG D 557     -27.943  -3.402 -16.604  1.00 35.49    -0.235 N 
ATOM      8  NH2 ARG D 557     -29.683  -2.311 -17.573  1.00 35.49    -0.235 N 
ATOM      9  HH  ARG D 557     -27.187  -3.404 -16.200  1.00 35.49     0.174 HD
ATOM     10  HH  ARG D 557     -28.334  -4.143 -16.784  1.00 35.49     0.174 HD
ATOM     11  HH  ARG D 557     -30.044  -1.568 -17.786  1.00 35.49     0.174 HD
ATOM     12  HH  ARG D 557     -30.055  -3.054 -17.740  1.00 35.49     0.174 HD
ATOM     13  HE  ARG D 557     -28.420  -0.430 -17.055  1.00 35.49     0.178 HD
ENDBRANCH   4   5
ENDBRANCH   3   4
ENDBRANCH   2   3
ENDBRANCH   1   2
END_RES ARG D 557
BEGIN_RES GLU D 570
REMARK  3 active torsions:
REMARK  status: ('A' for Active; 'I' for Inactive)
REMARK    5  A    between atoms: CA   and  CB  
REMARK    6  A    between atoms: CB   and  CG  
REMARK    7  A    between atoms: CG   and  CD  
ROOT
ATOM     14  CA  GLU D 570     -18.033  -6.348 -13.375  1.00 32.92     0.160 C 
ENDROOT
BRANCH  14  15
ATOM     15  CB  GLU D 570     -19.500  -6.345 -13.794  1.00 32.92     0.043 C 
BRANCH  15  16
ATOM     16  CG  GLU D 570     -19.797  -6.226 -15.245  1.00 32.92     0.100 C 
BRANCH  16  17
ATOM     17  CD  GLU D 570     -20.736  -7.299 -15.744  1.00 32.92     0.185 C 
ATOM     18  OE1 GLU D 570     -20.595  -8.466 -15.332  1.00 32.92    -0.647 OA
ATOM     19  OE2 GLU D 570     -21.611  -6.973 -16.570  1.00 32.92    -0.647 OA
ENDBRANCH  16  17
ENDBRANCH  15  16
ENDBRANCH  14  15
END_RES GLU D 570
ENDMDL
MODEL 4
REMARK VINA RESULT:      -7.1      1.792      2.478
REMARK  5 active torsions:
REMARK  status: ('A' for Active; 'I' for Inactive)
REMARK    1  A    between atoms: CG_7  and  CB_10 
REMARK    2  A    between atoms: CB_10  and  CA_11 
REMARK    3  A    between atoms: CA_11  and  C_12 
REMARK    4  A    between atoms: CA_11  and  N_15 
REMARK    5  A    between atoms: C_12  and  OXT_14 
ROOT
ATOM      1  CZ3 TRP A   1     -21.172  -5.106  -6.024  1.00  0.00     0.001 A 
ATOM      2  CH2 TRP A   1     -19.835  -4.741  -6.175  1.00  0.00     0.002 A 
ATOM      3  CZ2 TRP A   1     -19.302  -4.475  -7.439  1.00  0.00     0.030 A 
ATOM      4  CE2 TRP A   1     -20.168  -4.551  -8.535  1.00  0.00     0.042 A 
ATOM      5  CD2 TRP A   1     -21.523  -4.869  -8.416  1.00  0.00    -0.002 A 
ATOM      6  CE3 TRP A   1     -22.023  -5.180  -7.135  1.00  0.00     0.014 A 
ATOM      7  CG  TRP A   1     -22.109  -4.711  -9.716  1.00  0.00    -0.028 A 
ATOM      8  CD1 TRP A   1     -21.074  -4.419 -10.586  1.00  0.00     0.096 A 
ATOM      9  NE1 TRP A   1     -19.915  -4.346  -9.870  1.00  0.00    -0.365 N 
ATOM     10  HE1 TRP A   1     -19.003  -4.130 -10.256  1.00  0.00     0.165 HD
ENDROOT
BRANCH   7  11
ATOM     11  CB  TRP A   1     -23.559  -4.767 -10.095  1.00  0.00     0.087 C 
BRANCH  11  12
ATOM     12  CA  TRP A   1     -24.206  -3.391 -10.338  1.00  0.00     0.318 C 
BRANCH  12  13
ATOM     13  C   TRP A   1     -24.245  -2.971 -11.826  1.00  0.00     0.174 C 
ATOM     14  O   TRP A   1     -25.185  -3.224 -12.570  1.00  0.00    -0.648 OA
BRANCH  13  15
ATOM     15  OXT TRP A   1     -23.201  -2.224 -12.248  1.00  0.00    -0.775 OA
ATOM     16  HXT TRP A   1     -23.066  -2.213 -13.216  1.00  0.00     0.167 HD
ENDBRANCH  13  15
ENDBRANCH  12  13
BRANCH  12  17
ATOM     17  N   TRP A   1     -25.605  -3.428  -9.821  1.00  0.00     0.093 N 
ATOM     18  H1  TRP A   1     -25.595  -3.996  -8.966  1.00  0.00     0.314 HD
ATOM     19  H2  TRP A   1     -26.158  -4.005 -10.461  1.00  0.00     0.314 HD
ENDBRANCH  12  17
ENDBRANCH  11  12
ENDBRANCH   7  11
TORSDOF 5
BEGIN_RES ARG D 557
REMARK  4 active torsions:
REMARK  status: ('A' for Active; 'I' for Inactive)
REMARK    1  A    between atoms: CA   and  CB  
REMARK    2  A    between atoms: CB   and  CG  
REMARK    3  A    between atoms: CG   and  CD  
REMARK    4  A    between atoms: CD   and  NE  
REMARK       I    between atoms: NE   and  CZ  
REMARK       I    between atoms: CZ   and  NH1 
REMARK       I    between atoms: CZ   and  NH2 
ROOT
ATOM      1  CA  ARG D 557     -26.217   2.705 -17.014  1.00 35.49     0.159 C 
ENDROOT
BRANCH   1   2
ATOM      2  CB  ARG D 557     -26.789   1.319 -17.183  1.00 35.49     0.034 C 
BRANCH   2   3
ATOM      3  CG  ARG D 557     -28.231   1.227 -17.444  1.00 35.49     0.027 C 
BRANCH   3   4
ATOM      4  CD  ARG D 557     -28.915   0.303 -16.511  1.00 35.49     0.116 C 
BRANCH   4   5
ATOM      5  NE  ARG D 557     -28.130  -0.872 -16.237  1.00 35.49    -0.212 N 
ATOM      6  CZ  ARG D 557     -28.361  -2.077 -16.706  1.00 35.49     0.666 C 
ATOM      7  NH1 ARG D 557     -29.384  -2.346 -17.496  1.00 35.49    -0.235 N 
ATOM      8  NH2 ARG D 557     -27.531  -3.022 -16.370  1.00 35.49    -0.235 N 
ATOM      9  HH  ARG D 557     -29.942  -1.740 -17.731  1.00 35.49     0.174 HD
ATOM     10  HH  ARG D 557     -29.484  -3.151 -17.773  1.00 35.49     0.174 HD
ATOM     11  HH  ARG D 557     -26.875  -2.817 -15.865  1.00 35.49     0.174 HD
ATOM     12  HH  ARG D 557     -27.646  -3.812 -16.657  1.00 35.49     0.174 HD
ATOM     13  HE  ARG D 557     -27.492  -0.804 -15.678  1.00 35.49     0.178 HD
ENDBRANCH   4   5
ENDBRANCH   3   4
ENDBRANCH   2   3
ENDBRANCH   1   2
END_RES ARG D 557
BEGIN_RES GLU D 570
REMARK  3 active torsions:
REMARK  status: ('A' for Active; 'I' for Inactive)
REMARK    5  A    between atoms: CA   and  CB  
REMARK    6  A    between atoms: CB   and  CG  
REMARK    7  A    between atoms: CG   and  CD  
ROOT
ATOM     14  CA  GLU D 570     -18.033  -6.348 -13.375  1.00 32.92     0.160 C 
ENDROOT
BRANCH  14  15
ATOM     15  CB  GLU D 570     -19.500  -6.345 -13.794  1.00 32.92     0.043 C 
BRANCH  15  16
ATOM     16  CG  GLU D 570     -19.802  -6.096 -15.227  1.00 32.92     0.100 C 
BRANCH  16  17
ATOM     17  CD  GLU D 570     -21.259  -5.784 -15.477  1.00 32.92     0.185 C 
ATOM     18  OE1 GLU D 570     -22.130  -6.416 -14.850  1.00 32.92    -0.647 OA
ATOM     19  OE2 GLU D 570     -21.533  -4.908 -16.321  1.00 32.92    -0.647 OA
ENDBRANCH  16  17
ENDBRANCH  15  16
ENDBRANCH  14  15
END_RES GLU D 570
ENDMDL
MODEL 5
REMARK VINA RESULT:      -7.0      2.360      3.617
REMARK  5 active torsions:
REMARK  status: ('A' for Active; 'I' for Inactive)
REMARK    1  A    between atoms: CG_7  and  CB_10 
REMARK    2  A    between atoms: CB_10  and  CA_11 
REMARK    3  A    between atoms: CA_11  and  C_12 
REMARK    4  A    between atoms: CA_11  and  N_15 
REMARK    5  A    between atoms: C_12  and  OXT_14 
ROOT
ATOM      1  CZ3 TRP A   1     -21.798  -6.074  -5.179  1.00  0.00     0.001 A 
ATOM      2  CH2 TRP A   1     -20.600  -5.576  -4.671  1.00  0.00     0.002 A 
ATOM      3  CZ2 TRP A   1     -19.694  -4.905  -5.496  1.00  0.00     0.030 A 
ATOM      4  CE2 TRP A   1     -20.054  -4.721  -6.836  1.00  0.00     0.042 A 
ATOM      5  CD2 TRP A   1     -21.265  -5.168  -7.369  1.00  0.00    -0.002 A 
ATOM      6  CE3 TRP A   1     -22.139  -5.883  -6.524  1.00  0.00     0.014 A 
ATOM      7  CG  TRP A   1     -21.340  -4.678  -8.715  1.00  0.00    -0.028 A 
ATOM      8  CD1 TRP A   1     -20.132  -4.059  -8.981  1.00  0.00     0.096 A 
ATOM      9  NE1 TRP A   1     -19.363  -4.110  -7.854  1.00  0.00    -0.365 N 
ATOM     10  HE1 TRP A   1     -18.433  -3.717  -7.764  1.00  0.00     0.165 HD
ENDROOT
BRANCH   7  11
ATOM     11  CB  TRP A   1     -22.503  -4.734  -9.662  1.00  0.00     0.087 C 
BRANCH  11  12
ATOM     12  CA  TRP A   1     -23.545  -3.620  -9.455  1.00  0.00     0.318 C 
BRANCH  12  13
ATOM     13  C   TRP A   1     -24.674  -3.614 -10.513  1.00  0.00     0.174 C 
ATOM     14  O   TRP A   1     -25.796  -3.174 -10.293  1.00  0.00    -0.648 OA
BRANCH  13  15
ATOM     15  OXT TRP A   1     -24.324  -4.056 -11.741  1.00  0.00    -0.775 OA
ATOM     16  HXT TRP A   1     -25.071  -4.208 -12.353  1.00  0.00     0.167 HD
ENDBRANCH  13  15
ENDBRANCH  12  13
BRANCH  12  17
ATOM     17  N   TRP A   1     -24.161  -3.793  -8.108  1.00  0.00     0.093 N 
ATOM     18  H1  TRP A   1     -23.623  -4.519  -7.621  1.00  0.00     0.314 HD
ATOM     19  H2  TRP A   1     -25.071  -4.244  -8.237  1.00  0.00     0.314 HD
ENDBRANCH  12  17
ENDBRANCH  11  12
ENDBRANCH   7  11
TORSDOF 5
BEGIN_RES ARG D 557
REMARK  4 active torsions:
REMARK  status: ('A' for Active; 'I' for Inactive)
REMARK    1  A    between atoms: CA   and  CB  
REMARK    2  A    between atoms: CB   and  CG  
REMARK    3  A    between atoms: CG   and  CD  
REMARK    4  A    between atoms: CD   and  NE  
REMARK       I    between atoms: NE   and  CZ  
REMARK       I    between atoms: CZ   and  NH1 
REMARK       I    between atoms: CZ   and  NH2 
ROOT
ATOM      1  CA  ARG D 557     -26.217   2.705 -17.014  1.00 35.49     0.159 C 
ENDROOT
BRANCH   1   2
ATOM      2  CB  ARG D 557     -26.789   1.319 -17.183  1.00 35.49     0.034 C 
BRANCH   2   3
ATOM      3  CG  ARG D 557     -25.849   0.197 -17.064  1.00 35.49     0.027 C 
BRANCH   3   4
ATOM      4  CD  ARG D 557     -26.194  -0.711 -15.946  1.00 35.49     0.116 C 
BRANCH   4   5
ATOM      5  NE  ARG D 557     -25.141  -0.789 -14.967  1.00 35.49    -0.212 N 
ATOM      6  CZ  ARG D 557     -24.756  -1.877 -14.339  1.00 35.49     0.666 C 
ATOM      7  NH1 ARG D 557     -25.325  -3.051 -14.539  1.00 35.49    -0.235 N 
ATOM      8  NH2 ARG D 557     -23.769  -1.766 -13.498  1.00 35.49    -0.235 N 
ATOM      9  HH  ARG D 557     -25.975  -3.147 -15.090  1.00 35.49     0.174 HD
ATOM     10  HH  ARG D 557     -25.030  -3.726 -14.103  1.00 35.49     0.174 HD
ATOM     11  HH  ARG D 557     -23.415  -0.997 -13.394  1.00 35.49     0.174 HD
ATOM     12  HH  ARG D 557     -23.490  -2.447 -13.076  1.00 35.49     0.174 HD
ATOM     13  HE  ARG D 557     -24.768  -0.064 -14.723  1.00 35.49     0.178 HD
ENDBRANCH   4   5
ENDBRANCH   3   4
ENDBRANCH   2   3
ENDBRANCH   1   2
END_RES ARG D 557
BEGIN_RES GLU D 570
REMARK  3 active torsions:
REMARK  status: ('A' for Active; 'I' for Inactive)
REMARK    5  A    between atoms: CA   and  CB  
REMARK    6  A    between atoms: CB   and  CG  
REMARK    7  A    between atoms: CG   and  CD  
ROOT
ATOM     14  CA  GLU D 570     -18.033  -6.348 -13.375  1.00 32.92     0.160 C 
ENDROOT
BRANCH  14  15
ATOM     15  CB  GLU D 570     -19.500  -6.345 -13.794  1.00 32.92     0.043 C 
BRANCH  15  16
ATOM     16  CG  GLU D 570     -20.437  -5.509 -13.000  1.00 32.92     0.100 C 
BRANCH  16  17
ATOM     17  CD  GLU D 570     -21.751  -5.264 -13.705  1.00 32.92     0.185 C 
ATOM     18  OE1 GLU D 570     -22.286  -4.143 -13.615  1.00 32.92    -0.647 OA
ATOM     19  OE2 GLU D 570     -22.258  -6.209 -14.341  1.00 32.92    -0.647 OA
ENDBRANCH  16  17
ENDBRANCH  15  16
ENDBRANCH  14  15
END_RES GLU D 570
ENDMDL
MODEL 6
REMARK VINA RESULT:      -6.9      4.813      6.273
REMARK  5 active torsions:
REMARK  status: ('A' for Active; 'I' for Inactive)
REMARK    1  A    between atoms: CG_7  and  CB_10 
REMARK    2  A    between atoms: CB_10  and  CA_11 
REMARK    3  A    between atoms: CA_11  and  C_12 
REMARK    4  A    between atoms: CA_11  and  N_15 
REMARK    5  A    between atoms: C_12  and  OXT_14 
ROOT
ATOM      1  CZ3 TRP A   1     -22.309  -6.733  -0.927  1.00  0.00     0.001 A 
ATOM      2  CH2 TRP A   1     -21.843  -7.991  -0.552  1.00  0.00     0.002 A 
ATOM      3  CZ2 TRP A   1     -21.174  -8.811  -1.465  1.00  0.00     0.030 A 
ATOM      4  CE2 TRP A   1     -20.957  -8.304  -2.751  1.00  0.00     0.042 A 
ATOM      5  CD2 TRP A   1     -21.371  -7.030  -3.148  1.00  0.00    -0.002 A 
ATOM      6  CE3 TRP A   1     -22.086  -6.244  -2.221  1.00  0.00     0.014 A 
ATOM      7  CG  TRP A   1     -20.854  -6.812  -4.469  1.00  0.00    -0.028 A 
ATOM      8  CD1 TRP A   1     -20.253  -7.994  -4.861  1.00  0.00     0.096 A 
ATOM      9  NE1 TRP A   1     -20.340  -8.886  -3.831  1.00  0.00    -0.365 N 
ATOM     10  HE1 TRP A   1     -19.967  -9.828  -3.842  1.00  0.00     0.165 HD
ENDROOT
BRANCH   7  11
ATOM     11  CB  TRP A   1     -20.870  -5.547  -5.276  1.00  0.00     0.087 C 
BRANCH  11  12
ATOM     12  CA  TRP A   1     -21.471  -5.700  -6.685  1.00  0.00     0.318 C 
BRANCH  12  13
ATOM     13  C   TRP A   1     -22.327  -4.494  -7.136  1.00  0.00     0.174 C 
ATOM     14  O   TRP A   1     -21.893  -3.588  -7.837  1.00  0.00    -0.648 OA
BRANCH  13  15
ATOM     15  OXT TRP A   1     -23.628  -4.534  -6.772  1.00  0.00    -0.775 OA
ATOM     16  HXT TRP A   1     -23.793  -4.430  -5.815  1.00  0.00     0.167 HD
ENDBRANCH  13  15
ENDBRANCH  12  13
BRANCH  12  17
ATOM     17  N   TRP A   1     -20.355  -5.877  -7.659  1.00  0.00     0.093 N 
ATOM     18  H1  TRP A   1     -19.760  -6.634  -7.302  1.00  0.00     0.314 HD
ATOM     19  H2  TRP A   1     -19.742  -5.061  -7.581  1.00  0.00     0.314 HD
ENDBRANCH  12  17
ENDBRANCH  11  12
ENDBRANCH   7  11
TORSDOF 5
BEGIN_RES ARG D 557
REMARK  4 active torsions:
REMARK  status: ('A' for Active; 'I' for Inactive)
REMARK    1  A    between atoms: CA   and  CB  
REMARK    2  A    between atoms: CB   and  CG  
REMARK    3  A    between atoms: CG   and  CD  
REMARK    4  A    between atoms: CD   and  NE  
REMARK       I    between atoms: NE   and  CZ  
REMARK       I    between atoms: CZ   and  NH1 
REMARK       I    between atoms: CZ   and  NH2 
ROOT
ATOM      1  CA  ARG D 557     -26.217   2.705 -17.014  1.00 35.49     0.159 C 
ENDROOT
BRANCH   1   2
ATOM      2  CB  ARG D 557     -26.789   1.319 -17.183  1.00 35.49     0.034 C 
BRANCH   2   3
ATOM      3  CG  ARG D 557     -25.835   0.203 -17.161  1.00 35.49     0.027 C 
BRANCH   3   4
ATOM      4  CD  ARG D 557     -24.767   0.394 -16.154  1.00 35.49     0.116 C 
BRANCH   4   5
ATOM      5  NE  ARG D 557     -24.945  -0.457 -15.007  1.00 35.49    -0.212 N 
ATOM      6  CZ  ARG D 557     -24.151  -1.441 -14.649  1.00 35.49     0.666 C 
ATOM      7  NH1 ARG D 557     -23.076  -1.771 -15.341  1.00 35.49    -0.235 N 
ATOM      8  NH2 ARG D 557     -24.456  -2.095 -13.566  1.00 35.49    -0.235 N 
ATOM      9  HH  ARG D 557     -22.855  -1.353 -16.055  1.00 35.49     0.174 HD
ATOM     10  HH  ARG D 557     -22.594  -2.421 -15.058  1.00 35.49     0.174 HD
ATOM     11  HH  ARG D 557     -25.152  -1.855 -13.136  1.00 35.49     0.174 HD
ATOM     12  HH  ARG D 557     -23.965  -2.734 -13.302  1.00 35.49     0.174 HD
ATOM     13  HE  ARG D 557     -25.653  -0.361 -14.545  1.00 35.49     0.178 HD
ENDBRANCH   4   5
ENDBRANCH   3   4
ENDBRANCH   2   3
ENDBRANCH   1   2
END_RES ARG D 557
BEGIN_RES GLU D 570
REMARK  3 active torsions:
REMARK  status: ('A' for Active; 'I' for Inactive)
REMARK    5  A    between atoms: CA   and  CB  
REMARK    6  A    between atoms: CB   and  CG  
REMARK    7  A    between atoms: CG   and  CD  
ROOT
ATOM     14  CA  GLU D 570     -18.033  -6.348 -13.375  1.00 32.92     0.160 C 
ENDROOT
BRANCH  14  15
ATOM     15  CB  GLU D 570     -19.500  -6.345 -13.794  1.00 32.92     0.043 C 
BRANCH  15  16
ATOM     16  CG  GLU D 570     -20.444  -5.542 -12.975  1.00 32.92     0.100 C 
BRANCH  16  17
ATOM     17  CD  GLU D 570     -21.643  -5.061 -13.759  1.00 32.92     0.185 C 
ATOM     18  OE1 GLU D 570     -21.889  -5.577 -14.866  1.00 32.92    -0.647 OA
ATOM     19  OE2 GLU D 570     -22.334  -4.146 -13.268  1.00 32.92    -0.647 OA
ENDBRANCH  16  17
ENDBRANCH  15  16
ENDBRANCH  14  15
END_RES GLU D 570
ENDMDL
MODEL 7
REMARK VINA RESULT:      -6.7      4.647      6.081
REMARK  5 active torsions:
REMARK  status: ('A' for Active; 'I' for Inactive)
REMARK    1  A    between atoms: CG_7  and  CB_10 
REMARK    2  A    between atoms: CB_10  and  CA_11 
REMARK    3  A    between atoms: CA_11  and  C_12 
REMARK    4  A    between atoms: CA_11  and  N_15 
REMARK    5  A    between atoms: C_12  and  OXT_14 
ROOT
ATOM      1  CZ3 TRP A   1     -22.325  -6.696  -0.952  1.00  0.00     0.001 A 
ATOM      2  CH2 TRP A   1     -21.910  -7.975  -0.585  1.00  0.00     0.002 A 
ATOM      3  CZ2 TRP A   1     -21.266  -8.811  -1.500  1.00  0.00     0.030 A 
ATOM      4  CE2 TRP A   1     -21.022  -8.302  -2.781  1.00  0.00     0.042 A 
ATOM      5  CD2 TRP A   1     -21.384  -7.010  -3.169  1.00  0.00    -0.002 A 
ATOM      6  CE3 TRP A   1     -22.075  -6.205  -2.240  1.00  0.00     0.014 A 
ATOM      7  CG  TRP A   1     -20.850  -6.800  -4.484  1.00  0.00    -0.028 A 
ATOM      8  CD1 TRP A   1     -20.292  -8.001  -4.883  1.00  0.00     0.096 A 
ATOM      9  NE1 TRP A   1     -20.419  -8.898  -3.862  1.00  0.00    -0.365 N 
ATOM     10  HE1 TRP A   1     -20.082  -9.853  -3.878  1.00  0.00     0.165 HD
ENDROOT
BRANCH   7  11
ATOM     11  CB  TRP A   1     -20.813  -5.530  -5.281  1.00  0.00     0.087 C 
BRANCH  11  12
ATOM     12  CA  TRP A   1     -21.456  -5.634  -6.676  1.00  0.00     0.318 C 
BRANCH  12  13
ATOM     13  C   TRP A   1     -22.189  -4.349  -7.125  1.00  0.00     0.174 C 
ATOM     14  O   TRP A   1     -21.606  -3.347  -7.522  1.00  0.00    -0.648 OA
BRANCH  13  15
ATOM     15  OXT TRP A   1     -23.539  -4.420  -7.133  1.00  0.00    -0.775 OA
ATOM     16  HXT TRP A   1     -23.934  -4.847  -6.347  1.00  0.00     0.167 HD
ENDBRANCH  13  15
ENDBRANCH  12  13
BRANCH  12  17
ATOM     17  N   TRP A   1     -20.386  -5.939  -7.669  1.00  0.00     0.093 N 
ATOM     18  H1  TRP A   1     -20.382  -6.957  -7.805  1.00  0.00     0.314 HD
ATOM     19  H2  TRP A   1     -19.484  -5.776  -7.213  1.00  0.00     0.314 HD
ENDBRANCH  12  17
ENDBRANCH  11  12
ENDBRANCH   7  11
TORSDOF 5
BEGIN_RES ARG D 557
REMARK  4 active torsions:
REMARK  status: ('A' for Active; 'I' for Inactive)
REMARK    1  A    between atoms: CA   and  CB  
REMARK    2  A    between atoms: CB   and  CG  
REMARK    3  A    between atoms: CG   and  CD  
REMARK    4  A    between atoms: CD   and  NE  
REMARK       I    between atoms: NE   and  CZ  
REMARK       I    between atoms: CZ   and  NH1 
REMARK       I    between atoms: CZ   and  NH2 
ROOT
ATOM      1  CA  ARG D 557     -26.217   2.705 -17.014  1.00 35.49     0.159 C 
ENDROOT
BRANCH   1   2
ATOM      2  CB  ARG D 557     -26.789   1.319 -17.183  1.00 35.49     0.034 C 
BRANCH   2   3
ATOM      3  CG  ARG D 557     -28.232   1.226 -17.434  1.00 35.49     0.027 C 
BRANCH   3   4
ATOM      4  CD  ARG D 557     -28.910   0.302 -16.496  1.00 35.49     0.116 C 
BRANCH   4   5
ATOM      5  NE  ARG D 557     -29.282  -0.936 -17.128  1.00 35.49    -0.212 N 
ATOM      6  CZ  ARG D 557     -28.638  -2.077 -17.021  1.00 35.49     0.666 C 
ATOM      7  NH1 ARG D 557     -27.535  -2.204 -16.306  1.00 35.49    -0.235 N 
ATOM      8  NH2 ARG D 557     -29.131  -3.106 -17.647  1.00 35.49    -0.235 N 
ATOM      9  HH  ARG D 557     -27.194  -1.541 -15.884  1.00 35.49     0.174 HD
ATOM     10  HH  ARG D 557     -27.160  -2.974 -16.271  1.00 35.49     0.174 HD
ATOM     11  HH  ARG D 557     -29.849  -2.996 -18.095  1.00 35.49     0.174 HD
ATOM     12  HH  ARG D 557     -28.746  -3.859 -17.598  1.00 35.49     0.174 HD
ATOM     13  HE  ARG D 557     -29.940  -0.928 -17.666  1.00 35.49     0.178 HD
ENDBRANCH   4   5
ENDBRANCH   3   4
ENDBRANCH   2   3
ENDBRANCH   1   2
END_RES ARG D 557
BEGIN_RES GLU D 570
REMARK  3 active torsions:
REMARK  status: ('A' for Active; 'I' for Inactive)
REMARK    5  A    between atoms: CA   and  CB  
REMARK    6  A    between atoms: CB   and  CG  
REMARK    7  A    between atoms: CG   and  CD  
ROOT
ATOM     14  CA  GLU D 570     -18.033  -6.348 -13.375  1.00 32.92     0.160 C 
ENDROOT
BRANCH  14  15
ATOM     15  CB  GLU D 570     -19.500  -6.345 -13.794  1.00 32.92     0.043 C 
BRANCH  15  16
ATOM     16  CG  GLU D 570     -20.448  -5.559 -12.963  1.00 32.92     0.100 C 
BRANCH  16  17
ATOM     17  CD  GLU D 570     -21.706  -5.175 -13.707  1.00 32.92     0.185 C 
ATOM     18  OE1 GLU D 570     -21.681  -5.124 -14.951  1.00 32.92    -0.647 OA
ATOM     19  OE2 GLU D 570     -22.722  -4.905 -13.036  1.00 32.92    -0.647 OA
ENDBRANCH  16  17
ENDBRANCH  15  16
ENDBRANCH  14  15
END_RES GLU D 570
ENDMDL
MODEL 8
REMARK VINA RESULT:      -6.7      2.406      3.397
REMARK  5 active torsions:
REMARK  status: ('A' for Active; 'I' for Inactive)
REMARK    1  A    between atoms: CG_7  and  CB_10 
REMARK    2  A    between atoms: CB_10  and  CA_11 
REMARK    3  A    between atoms: CA_11  and  C_12 
REMARK    4  A    between atoms: CA_11  and  N_15 
REMARK    5  A    between atoms: C_12  and  OXT_14 
ROOT
ATOM      1  CZ3 TRP A   1     -22.429  -6.514  -4.895  1.00  0.00     0.001 A 
ATOM      2  CH2 TRP A   1     -21.160  -7.065  -4.730  1.00  0.00     0.002 A 
ATOM      3  CZ2 TRP A   1     -20.167  -6.881  -5.696  1.00  0.00     0.030 A 
ATOM      4  CE2 TRP A   1     -20.485  -6.094  -6.808  1.00  0.00     0.042 A 
ATOM      5  CD2 TRP A   1     -21.732  -5.490  -6.984  1.00  0.00    -0.002 A 
ATOM      6  CE3 TRP A   1     -22.730  -5.732  -6.017  1.00  0.00     0.014 A 
ATOM      7  CG  TRP A   1     -21.638  -4.659  -8.149  1.00  0.00    -0.028 A 
ATOM      8  CD1 TRP A   1     -20.386  -4.880  -8.695  1.00  0.00     0.096 A 
ATOM      9  NE1 TRP A   1     -19.714  -5.756  -7.894  1.00  0.00    -0.365 N 
ATOM     10  HE1 TRP A   1     -18.766  -6.081  -8.050  1.00  0.00     0.165 HD
ENDROOT
BRANCH   7  11
ATOM     11  CB  TRP A   1     -22.640  -3.673  -8.672  1.00  0.00     0.087 C 
BRANCH  11  12
ATOM     12  CA  TRP A   1     -22.945  -3.811 -10.174  1.00  0.00     0.318 C 
BRANCH  12  13
ATOM     13  C   TRP A   1     -24.368  -3.351 -10.570  1.00  0.00     0.174 C 
ATOM     14  O   TRP A   1     -25.300  -3.296  -9.777  1.00  0.00    -0.648 OA
BRANCH  13  15
ATOM     15  OXT TRP A   1     -24.510  -2.930 -11.846  1.00  0.00    -0.775 OA
ATOM     16  HXT TRP A   1     -23.857  -3.292 -12.476  1.00  0.00     0.167 HD
ENDBRANCH  13  15
ENDBRANCH  12  13
BRANCH  12  17
ATOM     17  N   TRP A   1     -21.956  -2.995 -10.935  1.00  0.00     0.093 N 
ATOM     18  H1  TRP A   1     -21.907  -2.077 -10.478  1.00  0.00     0.314 HD
ATOM     19  H2  TRP A   1     -22.373  -2.765 -11.841  1.00  0.00     0.314 HD
ENDBRANCH  12  17
ENDBRANCH  11  12
ENDBRANCH   7  11
TORSDOF 5
BEGIN_RES ARG D 557
REMARK  4 active torsions:
REMARK  status: ('A' for Active; 'I' for Inactive)
REMARK    1  A    between atoms: CA   and  CB  
REMARK    2  A    between atoms: CB   and  CG  
REMARK    3  A    between atoms: CG   and  CD  
REMARK    4  A    between atoms: CD   and  NE  
REMARK       I    between atoms: NE   and  CZ  
REMARK       I    between atoms: CZ   and  NH1 
REMARK       I    between atoms: CZ   and  NH2 
ROOT
ATOM      1  CA  ARG D 557     -26.217   2.705 -17.014  1.00 35.49     0.159 C 
ENDROOT
BRANCH   1   2
ATOM      2  CB  ARG D 557     -26.789   1.319 -17.183  1.00 35.49     0.034 C 
BRANCH   2   3
ATOM      3  CG  ARG D 557     -28.229   1.165 -16.946  1.00 35.49     0.027 C 
BRANCH   3   4
ATOM      4  CD  ARG D 557     -28.612  -0.242 -16.690  1.00 35.49     0.116 C 
BRANCH   4   5
ATOM      5  NE  ARG D 557     -27.583  -0.965 -15.990  1.00 35.49    -0.212 N 
ATOM      6  CZ  ARG D 557     -27.373  -2.261 -16.058  1.00 35.49     0.666 C 
ATOM      7  NH1 ARG D 557     -28.122  -3.063 -16.793  1.00 35.49    -0.235 N 
ATOM      8  NH2 ARG D 557     -26.379  -2.745 -15.371  1.00 35.49    -0.235 N 
ATOM      9  HH  ARG D 557     -28.779  -2.766 -17.254  1.00 35.49     0.174 HD
ATOM     10  HH  ARG D 557     -27.935  -3.899 -16.800  1.00 35.49     0.174 HD
ATOM     11  HH  ARG D 557     -25.909  -2.202 -14.912  1.00 35.49     0.174 HD
ATOM     12  HH  ARG D 557     -26.210  -3.575 -15.393  1.00 35.49     0.174 HD
ATOM     13  HE  ARG D 557     -27.100  -0.537 -15.437  1.00 35.49     0.178 HD
ENDBRANCH   4   5
ENDBRANCH   3   4
ENDBRANCH   2   3
ENDBRANCH   1   2
END_RES ARG D 557
BEGIN_RES GLU D 570
REMARK  3 active torsions:
REMARK  status: ('A' for Active; 'I' for Inactive)
REMARK    5  A    between atoms: CA   and  CB  
REMARK    6  A    between atoms: CB   and  CG  
REMARK    7  A    between atoms: CG   and  CD  
ROOT
ATOM     14  CA  GLU D 570     -18.033  -6.348 -13.375  1.00 32.92     0.160 C 
ENDROOT
BRANCH  14  15
ATOM     15  CB  GLU D 570     -19.500  -6.345 -13.794  1.00 32.92     0.043 C 
BRANCH  15  16
ATOM     16  CG  GLU D 570     -20.436  -5.503 -13.004  1.00 32.92     0.100 C 
BRANCH  16  17
ATOM     17  CD  GLU D 570     -21.749  -5.260 -13.711  1.00 32.92     0.185 C 
ATOM     18  OE1 GLU D 570     -22.306  -4.152 -13.590  1.00 32.92    -0.647 OA
ATOM     19  OE2 GLU D 570     -22.235  -6.194 -14.379  1.00 32.92    -0.647 OA
ENDBRANCH  16  17
ENDBRANCH  15  16
ENDBRANCH  14  15
END_RES GLU D 570
ENDMDL
MODEL 9
REMARK VINA RESULT:      -6.4      1.624      2.280
REMARK  5 active torsions:
REMARK  status: ('A' for Active; 'I' for Inactive)
REMARK    1  A    between atoms: CG_7  and  CB_10 
REMARK    2  A    between atoms: CB_10  and  CA_11 
REMARK    3  A    between atoms: CA_11  and  C_12 
REMARK    4  A    between atoms: CA_11  and  N_15 
REMARK    5  A    between atoms: C_12  and  OXT_14 
ROOT
ATOM      1  CZ3 TRP A   1     -21.794  -4.080  -6.869  1.00  0.00     0.001 A 
ATOM      2  CH2 TRP A   1     -20.510  -4.591  -6.680  1.00  0.00     0.002 A 
ATOM      3  CZ2 TRP A   1     -19.690  -4.893  -7.770  1.00  0.00     0.030 A 
ATOM      4  CE2 TRP A   1     -20.192  -4.627  -9.049  1.00  0.00     0.042 A 
ATOM      5  CD2 TRP A   1     -21.455  -4.074  -9.274  1.00  0.00    -0.002 A 
ATOM      6  CE3 TRP A   1     -22.279  -3.824  -8.157  1.00  0.00     0.014 A 
ATOM      7  CG  TRP A   1     -21.559  -3.817 -10.681  1.00  0.00    -0.028 A 
ATOM      8  CD1 TRP A   1     -20.412  -4.326 -11.264  1.00  0.00     0.096 A 
ATOM      9  NE1 TRP A   1     -19.611  -4.826 -10.278  1.00  0.00    -0.365 N 
ATOM     10  HE1 TRP A   1     -18.700  -5.246 -10.423  1.00  0.00     0.165 HD
ENDROOT
BRANCH   7  11
ATOM     11  CB  TRP A   1     -22.639  -3.080 -11.415  1.00  0.00     0.087 C 
BRANCH  11  12
ATOM     12  CA  TRP A   1     -23.712  -3.986 -12.047  1.00  0.00     0.318 C 
BRANCH  12  13
ATOM     13  C   TRP A   1     -23.258  -4.678 -13.354  1.00  0.00     0.174 C 
ATOM     14  O   TRP A   1     -22.457  -4.177 -14.134  1.00  0.00    -0.648 OA
BRANCH  13  15
ATOM     15  OXT TRP A   1     -23.741  -5.923 -13.552  1.00  0.00    -0.775 OA
ATOM     16  HXT TRP A   1     -23.117  -6.547 -13.973  1.00  0.00     0.167 HD
ENDBRANCH  13  15
ENDBRANCH  12  13
BRANCH  12  17
ATOM     17  N   TRP A   1     -24.082  -5.040 -11.059  1.00  0.00     0.093 N 
ATOM     18  H1  TRP A   1     -24.951  -5.473 -11.392  1.00  0.00     0.314 HD
ATOM     19  H2  TRP A   1     -24.387  -4.570 -10.202  1.00  0.00     0.314 HD
ENDBRANCH  12  17
ENDBRANCH  11  12
ENDBRANCH   7  11
TORSDOF 5
BEGIN_RES ARG D 557
REMARK  4 active torsions:
REMARK  status: ('A' for Active; 'I' for Inactive)
REMARK    1  A    between atoms: CA   and  CB  
REMARK    2  A    between atoms: CB   and  CG  
REMARK    3  A    between atoms: CG   and  CD  
REMARK    4  A    between atoms: CD   and  NE  
REMARK       I    between atoms: NE   and  CZ  
REMARK       I    between atoms: CZ   and  NH1 
REMARK       I    between atoms: CZ   and  NH2 
ROOT
ATOM      1  CA  ARG D 557     -26.217   2.705 -17.014  1.00 35.49     0.159 C 
ENDROOT
BRANCH   1   2
ATOM      2  CB  ARG D 557     -26.789   1.319 -17.183  1.00 35.49     0.034 C 
BRANCH   2   3
ATOM      3  CG  ARG D 557     -26.165   0.247 -16.398  1.00 35.49     0.027 C 
BRANCH   3   4
ATOM      4  CD  ARG D 557     -27.072  -0.908 -16.200  1.00 35.49     0.116 C 
BRANCH   4   5
ATOM      5  NE  ARG D 557     -26.415  -2.005 -15.539  1.00 35.49    -0.212 N 
ATOM      6  CZ  ARG D 557     -26.755  -3.271 -15.631  1.00 35.49     0.666 C 
ATOM      7  NH1 ARG D 557     -27.781  -3.679 -16.356  1.00 35.49    -0.235 N 
ATOM      8  NH2 ARG D 557     -26.033  -4.135 -14.979  1.00 35.49    -0.235 N 
ATOM      9  HH  ARG D 557     -28.268  -3.128 -16.795  1.00 35.49     0.174 HD
ATOM     10  HH  ARG D 557     -27.953  -4.518 -16.380  1.00 35.49     0.174 HD
ATOM     11  HH  ARG D 557     -25.373  -3.844 -14.525  1.00 35.49     0.174 HD
ATOM     12  HH  ARG D 557     -26.219  -4.962 -15.017  1.00 35.49     0.174 HD
ATOM     13  HE  ARG D 557     -25.788  -1.825 -14.993  1.00 35.49     0.178 HD
ENDBRANCH   4   5
ENDBRANCH   3   4
ENDBRANCH   2   3
ENDBRANCH   1   2
END_RES ARG D 557
BEGIN_RES GLU D 570
REMARK  3 active torsions:
REMARK  status: ('A' for Active; 'I' for Inactive)
REMARK    5  A    between atoms: CA   and  CB  
REMARK    6  A    between atoms: CB   and  CG  
REMARK    7  A    between atoms: CG   and  CD  
ROOT
ATOM     14  CA  GLU D 570     -18.033  -6.348 -13.375  1.00 32.92     0.160 C 
ENDROOT
BRANCH  14  15
ATOM     15  CB  GLU D 570     -19.500  -6.345 -13.794  1.00 32.92     0.043 C 
BRANCH  15  16
ATOM     16  CG  GLU D 570     -19.797  -6.405 -15.249  1.00 32.92     0.100 C 
BRANCH  16  17
ATOM     17  CD  GLU D 570     -20.877  -7.406 -15.589  1.00 32.92     0.185 C 
ATOM     18  OE1 GLU D 570     -22.040  -7.001 -15.774  1.00 32.92    -0.647 OA
ATOM     19  OE2 GLU D 570     -20.559  -8.609 -15.655  1.00 32.92    -0.647 OA
ENDBRANCH  16  17
ENDBRANCH  15  16
ENDBRANCH  14  15
END_RES GLU D 570
ENDMDL
