MODEL 1
REMARK VINA RESULT:      -5.0      0.000      0.000
REMARK  21 active torsions:
REMARK  status: ('A' for Active; 'I' for Inactive)
REMARK    1  A    between atoms: C_3  and  O_11 
REMARK    2  A    between atoms: C_6  and  C_7 
REMARK    3  A    between atoms: C_7  and  N_10 
REMARK    4  A    between atoms: O_11  and  C_12 
REMARK    5  A    between atoms: C_12  and  C_13 
REMARK    6  A    between atoms: C_13  and  C_14 
REMARK    7  A    between atoms: C_14  and  C_15 
REMARK    8  A    between atoms: C_15  and  C_16 
REMARK    9  A    between atoms: C_16  and  C_17 
REMARK   10  A    between atoms: C_17  and  O_18 
REMARK   11  A    between atoms: O_18  and  C_19 
REMARK   12  A    between atoms: C_22  and  C_25 
REMARK   13  A    between atoms: C_25  and  N_28 
REMARK   14  A    between atoms: C_35  and  C_36 
REMARK   15  A    between atoms: C_35  and  O_41 
REMARK   16  A    between atoms: C_36  and  S_37 
REMARK   17  A    between atoms: S_37  and  O_40 
REMARK   18  A    between atoms: C_44  and  C_45 
REMARK   19  A    between atoms: C_44  and  O_50 
REMARK   20  A    between atoms: C_45  and  S_46 
REMARK   21  A    between atoms: S_46  and  O_49 
ROOT
HETATM    1  S   UNL     2     -24.572  -2.744 -14.476  1.00  0.00     0.096 S 
HETATM    2  O   UNL     2     -24.948  -4.092 -14.853  1.00  0.00    -0.601 OA
HETATM    3  O   UNL     2     -25.409  -1.608 -14.787  1.00  0.00    -0.601 OA
ENDROOT
BRANCH   1   4
HETATM    4  C   UNL     2     -24.163  -2.790 -12.793  1.00  0.00     0.181 C 
BRANCH   4   5
HETATM    5  C   UNL     2     -22.959  -2.780 -11.914  1.00  0.00     0.180 C 
BRANCH   5   6
HETATM    6  O   UNL     2     -21.753  -3.140 -12.546  1.00  0.00    -0.400 OA
HETATM    7  H   UNL     2     -21.220  -2.328 -12.649  1.00  0.00     0.209 HD
ENDBRANCH   5   6
ENDBRANCH   4   5
ENDBRANCH   1   4
BRANCH   1   8
HETATM    8  O   UNL     2     -23.093  -2.547 -15.091  1.00  0.00    -0.296 OA
HETATM    9  H   UNL     2     -22.933  -1.572 -15.145  1.00  0.00     0.232 HD
ENDBRANCH   1   8
TORSDOF 21
BEGIN_RES ARG D 557
REMARK  4 active torsions:
REMARK  status: ('A' for Active; 'I' for Inactive)
REMARK    1  A    between atoms: CA   and  CB  
REMARK    2  A    between atoms: CB   and  CG  
REMARK    3  A    between atoms: CG   and  CD  
REMARK    4  A    between atoms: CD   and  NE  
REMARK       I    between atoms: NE   and  CZ  
REMARK       I    between atoms: CZ   and  NH1 
REMARK       I    between atoms: CZ   and  NH2 
ROOT
ATOM      1  CA  ARG D 557     -26.217   2.705 -17.014  1.00 35.49     0.159 C 
ENDROOT
BRANCH   1   2
ATOM      2  CB  ARG D 557     -26.789   1.319 -17.183  1.00 35.49     0.034 C 
BRANCH   2   3
ATOM      3  CG  ARG D 557     -28.174   1.117 -16.740  1.00 35.49     0.027 C 
BRANCH   3   4
ATOM      4  CD  ARG D 557     -28.729  -0.178 -17.194  1.00 35.49     0.116 C 
BRANCH   4   5
ATOM      5  NE  ARG D 557     -28.016  -1.298 -16.637  1.00 35.49    -0.212 N 
ATOM      6  CZ  ARG D 557     -28.309  -2.566 -16.827  1.00 35.49     0.666 C 
ATOM      7  NH1 ARG D 557     -29.333  -2.955 -17.563  1.00 35.49    -0.235 N 
ATOM      8  NH2 ARG D 557     -27.540  -3.450 -16.261  1.00 35.49    -0.235 N 
ATOM      9  HH  ARG D 557     -29.851  -2.390 -17.946  1.00 35.49     0.174 HD
ATOM     10  HH  ARG D 557     -29.474  -3.795 -17.653  1.00 35.49     0.174 HD
ATOM     11  HH  ARG D 557     -26.881  -3.170 -15.797  1.00 35.49     0.174 HD
ATOM     12  HH  ARG D 557     -27.695  -4.277 -16.363  1.00 35.49     0.174 HD
ATOM     13  HE  ARG D 557     -27.385  -1.138 -16.091  1.00 35.49     0.178 HD
ENDBRANCH   4   5
ENDBRANCH   3   4
ENDBRANCH   2   3
ENDBRANCH   1   2
END_RES ARG D 557
BEGIN_RES GLU D 570
REMARK  3 active torsions:
REMARK  status: ('A' for Active; 'I' for Inactive)
REMARK    5  A    between atoms: CA   and  CB  
REMARK    6  A    between atoms: CB   and  CG  
REMARK    7  A    between atoms: CG   and  CD  
ROOT
ATOM     14  CA  GLU D 570     -18.033  -6.348 -13.375  1.00 32.92     0.160 C 
ENDROOT
BRANCH  14  15
ATOM     15  CB  GLU D 570     -19.500  -6.345 -13.794  1.00 32.92     0.043 C 
BRANCH  15  16
ATOM     16  CG  GLU D 570     -19.813  -5.940 -15.189  1.00 32.92     0.100 C 
BRANCH  16  17
ATOM     17  CD  GLU D 570     -21.196  -5.350 -15.335  1.00 32.92     0.185 C 
ATOM     18  OE1 GLU D 570     -21.956  -5.337 -14.348  1.00 32.92    -0.647 OA
ATOM     19  OE2 GLU D 570     -21.530  -4.913 -16.454  1.00 32.92    -0.647 OA
ENDBRANCH  16  17
ENDBRANCH  15  16
ENDBRANCH  14  15
END_RES GLU D 570
ENDMDL
MODEL 2
REMARK VINA RESULT:      -4.8      2.999      4.320
REMARK  21 active torsions:
REMARK  status: ('A' for Active; 'I' for Inactive)
REMARK    1  A    between atoms: C_3  and  O_11 
REMARK    2  A    between atoms: C_6  and  C_7 
REMARK    3  A    between atoms: C_7  and  N_10 
REMARK    4  A    between atoms: O_11  and  C_12 
REMARK    5  A    between atoms: C_12  and  C_13 
REMARK    6  A    between atoms: C_13  and  C_14 
REMARK    7  A    between atoms: C_14  and  C_15 
REMARK    8  A    between atoms: C_15  and  C_16 
REMARK    9  A    between atoms: C_16  and  C_17 
REMARK   10  A    between atoms: C_17  and  O_18 
REMARK   11  A    between atoms: O_18  and  C_19 
REMARK   12  A    between atoms: C_22  and  C_25 
REMARK   13  A    between atoms: C_25  and  N_28 
REMARK   14  A    between atoms: C_35  and  C_36 
REMARK   15  A    between atoms: C_35  and  O_41 
REMARK   16  A    between atoms: C_36  and  S_37 
REMARK   17  A    between atoms: S_37  and  O_40 
REMARK   18  A    between atoms: C_44  and  C_45 
REMARK   19  A    between atoms: C_44  and  O_50 
REMARK   20  A    between atoms: C_45  and  S_46 
REMARK   21  A    between atoms: S_46  and  O_49 
ROOT
HETATM    1  S   UNL     2     -25.779  -6.328 -16.150  1.00  0.00     0.096 S 
HETATM    2  O   UNL     2     -26.057  -7.465 -15.297  1.00  0.00    -0.601 OA
HETATM    3  O   UNL     2     -25.238  -6.490 -17.480  1.00  0.00    -0.601 OA
ENDROOT
BRANCH   1   4
HETATM    4  C   UNL     2     -27.209  -5.349 -16.162  1.00  0.00     0.181 C 
BRANCH   4   5
HETATM    5  C   UNL     2     -27.603  -3.913 -16.218  1.00  0.00     0.180 C 
BRANCH   5   6
HETATM    6  O   UNL     2     -26.638  -3.007 -15.736  1.00  0.00    -0.400 OA
HETATM    7  H   UNL     2     -25.766  -3.439 -15.808  1.00  0.00     0.209 HD
ENDBRANCH   5   6
ENDBRANCH   4   5
ENDBRANCH   1   4
BRANCH   1   8
HETATM    8  O   UNL     2     -24.827  -5.376 -15.261  1.00  0.00    -0.296 OA
HETATM    9  H   UNL     2     -24.092  -5.943 -14.920  1.00  0.00     0.232 HD
ENDBRANCH   1   8
TORSDOF 21
BEGIN_RES ARG D 557
REMARK  4 active torsions:
REMARK  status: ('A' for Active; 'I' for Inactive)
REMARK    1  A    between atoms: CA   and  CB  
REMARK    2  A    between atoms: CB   and  CG  
REMARK    3  A    between atoms: CG   and  CD  
REMARK    4  A    between atoms: CD   and  NE  
REMARK       I    between atoms: NE   and  CZ  
REMARK       I    between atoms: CZ   and  NH1 
REMARK       I    between atoms: CZ   and  NH2 
ROOT
ATOM      1  CA  ARG D 557     -26.217   2.705 -17.014  1.00 35.49     0.159 C 
ENDROOT
BRANCH   1   2
ATOM      2  CB  ARG D 557     -26.789   1.319 -17.183  1.00 35.49     0.034 C 
BRANCH   2   3
ATOM      3  CG  ARG D 557     -25.835   0.203 -17.158  1.00 35.49     0.027 C 
BRANCH   3   4
ATOM      4  CD  ARG D 557     -24.760   0.402 -16.160  1.00 35.49     0.116 C 
BRANCH   4   5
ATOM      5  NE  ARG D 557     -24.912  -0.462 -15.019  1.00 35.49    -0.212 N 
ATOM      6  CZ  ARG D 557     -24.090  -1.425 -14.670  1.00 35.49     0.666 C 
ATOM      7  NH1 ARG D 557     -23.006  -1.719 -15.364  1.00 35.49    -0.235 N 
ATOM      8  NH2 ARG D 557     -24.374  -2.095 -13.591  1.00 35.49    -0.235 N 
ATOM      9  HH  ARG D 557     -22.798  -1.289 -16.076  1.00 35.49     0.174 HD
ATOM     10  HH  ARG D 557     -22.505  -2.356 -15.087  1.00 35.49     0.174 HD
ATOM     11  HH  ARG D 557     -25.076  -1.879 -13.159  1.00 35.49     0.174 HD
ATOM     12  HH  ARG D 557     -23.864  -2.722 -13.332  1.00 35.49     0.174 HD
ATOM     13  HE  ARG D 557     -25.622  -0.390 -14.556  1.00 35.49     0.178 HD
ENDBRANCH   4   5
ENDBRANCH   3   4
ENDBRANCH   2   3
ENDBRANCH   1   2
END_RES ARG D 557
BEGIN_RES GLU D 570
REMARK  3 active torsions:
REMARK  status: ('A' for Active; 'I' for Inactive)
REMARK    5  A    between atoms: CA   and  CB  
REMARK    6  A    between atoms: CB   and  CG  
REMARK    7  A    between atoms: CG   and  CD  
ROOT
ATOM     14  CA  GLU D 570     -18.033  -6.348 -13.375  1.00 32.92     0.160 C 
ENDROOT
BRANCH  14  15
ATOM     15  CB  GLU D 570     -19.500  -6.345 -13.794  1.00 32.92     0.043 C 
BRANCH  15  16
ATOM     16  CG  GLU D 570     -20.434  -5.498 -13.009  1.00 32.92     0.100 C 
BRANCH  16  17
ATOM     17  CD  GLU D 570     -21.759  -5.281 -13.703  1.00 32.92     0.185 C 
ATOM     18  OE1 GLU D 570     -22.337  -4.185 -13.575  1.00 32.92    -0.647 OA
ATOM     19  OE2 GLU D 570     -22.230  -6.223 -14.370  1.00 32.92    -0.647 OA
ENDBRANCH  16  17
ENDBRANCH  15  16
ENDBRANCH  14  15
END_RES GLU D 570
ENDMDL
MODEL 3
REMARK VINA RESULT:      -4.8      3.569      4.210
REMARK  21 active torsions:
REMARK  status: ('A' for Active; 'I' for Inactive)
REMARK    1  A    between atoms: C_3  and  O_11 
REMARK    2  A    between atoms: C_6  and  C_7 
REMARK    3  A    between atoms: C_7  and  N_10 
REMARK    4  A    between atoms: O_11  and  C_12 
REMARK    5  A    between atoms: C_12  and  C_13 
REMARK    6  A    between atoms: C_13  and  C_14 
REMARK    7  A    between atoms: C_14  and  C_15 
REMARK    8  A    between atoms: C_15  and  C_16 
REMARK    9  A    between atoms: C_16  and  C_17 
REMARK   10  A    between atoms: C_17  and  O_18 
REMARK   11  A    between atoms: O_18  and  C_19 
REMARK   12  A    between atoms: C_22  and  C_25 
REMARK   13  A    between atoms: C_25  and  N_28 
REMARK   14  A    between atoms: C_35  and  C_36 
REMARK   15  A    between atoms: C_35  and  O_41 
REMARK   16  A    between atoms: C_36  and  S_37 
REMARK   17  A    between atoms: S_37  and  O_40 
REMARK   18  A    between atoms: C_44  and  C_45 
REMARK   19  A    between atoms: C_44  and  O_50 
REMARK   20  A    between atoms: C_45  and  S_46 
REMARK   21  A    between atoms: S_46  and  O_49 
ROOT
HETATM    1  S   UNL     2     -23.963  -3.838 -10.267  1.00  0.00     0.096 S 
HETATM    2  O   UNL     2     -23.836  -5.191 -10.768  1.00  0.00    -0.601 OA
HETATM    3  O   UNL     2     -25.253  -3.226 -10.052  1.00  0.00    -0.601 OA
ENDROOT
BRANCH   1   4
HETATM    4  C   UNL     2     -22.966  -3.732  -8.853  1.00  0.00     0.181 C 
BRANCH   4   5
HETATM    5  C   UNL     2     -22.809  -4.382  -7.521  1.00  0.00     0.180 C 
BRANCH   5   6
HETATM    6  O   UNL     2     -23.979  -4.435  -6.738  1.00  0.00    -0.400 OA
HETATM    7  H   UNL     2     -24.575  -3.726  -7.049  1.00  0.00     0.209 HD
ENDBRANCH   5   6
ENDBRANCH   4   5
ENDBRANCH   1   4
BRANCH   1   8
HETATM    8  O   UNL     2     -23.070  -2.946 -11.273  1.00  0.00    -0.296 OA
HETATM    9  H   UNL     2     -23.681  -2.606 -11.973  1.00  0.00     0.232 HD
ENDBRANCH   1   8
TORSDOF 21
BEGIN_RES ARG D 557
REMARK  4 active torsions:
REMARK  status: ('A' for Active; 'I' for Inactive)
REMARK    1  A    between atoms: CA   and  CB  
REMARK    2  A    between atoms: CB   and  CG  
REMARK    3  A    between atoms: CG   and  CD  
REMARK    4  A    between atoms: CD   and  NE  
REMARK       I    between atoms: NE   and  CZ  
REMARK       I    between atoms: CZ   and  NH1 
REMARK       I    between atoms: CZ   and  NH2 
ROOT
ATOM      1  CA  ARG D 557     -26.217   2.705 -17.014  1.00 35.49     0.159 C 
ENDROOT
BRANCH   1   2
ATOM      2  CB  ARG D 557     -26.789   1.319 -17.183  1.00 35.49     0.034 C 
BRANCH   2   3
ATOM      3  CG  ARG D 557     -25.835   0.204 -17.164  1.00 35.49     0.027 C 
BRANCH   3   4
ATOM      4  CD  ARG D 557     -24.762   0.396 -16.161  1.00 35.49     0.116 C 
BRANCH   4   5
ATOM      5  NE  ARG D 557     -24.929  -0.462 -15.018  1.00 35.49    -0.212 N 
ATOM      6  CZ  ARG D 557     -24.121  -1.437 -14.665  1.00 35.49     0.666 C 
ATOM      7  NH1 ARG D 557     -23.041  -1.749 -15.357  1.00 35.49    -0.235 N 
ATOM      8  NH2 ARG D 557     -24.417  -2.100 -13.584  1.00 35.49    -0.235 N 
ATOM      9  HH  ARG D 557     -22.827  -1.325 -16.070  1.00 35.49     0.174 HD
ATOM     10  HH  ARG D 557     -22.550  -2.393 -15.077  1.00 35.49     0.174 HD
ATOM     11  HH  ARG D 557     -25.116  -1.871 -13.153  1.00 35.49     0.174 HD
ATOM     12  HH  ARG D 557     -23.917  -2.733 -13.322  1.00 35.49     0.174 HD
ATOM     13  HE  ARG D 557     -25.638  -0.379 -14.556  1.00 35.49     0.178 HD
ENDBRANCH   4   5
ENDBRANCH   3   4
ENDBRANCH   2   3
ENDBRANCH   1   2
END_RES ARG D 557
BEGIN_RES GLU D 570
REMARK  3 active torsions:
REMARK  status: ('A' for Active; 'I' for Inactive)
REMARK    5  A    between atoms: CA   and  CB  
REMARK    6  A    between atoms: CB   and  CG  
REMARK    7  A    between atoms: CG   and  CD  
ROOT
ATOM     14  CA  GLU D 570     -18.033  -6.348 -13.375  1.00 32.92     0.160 C 
ENDROOT
BRANCH  14  15
ATOM     15  CB  GLU D 570     -19.500  -6.345 -13.794  1.00 32.92     0.043 C 
BRANCH  15  16
ATOM     16  CG  GLU D 570     -20.438  -5.515 -12.995  1.00 32.92     0.100 C 
BRANCH  16  17
ATOM     17  CD  GLU D 570     -21.749  -5.260 -13.703  1.00 32.92     0.185 C 
ATOM     18  OE1 GLU D 570     -22.267  -6.179 -14.366  1.00 32.92    -0.647 OA
ATOM     19  OE2 GLU D 570     -22.253  -4.124 -13.607  1.00 32.92    -0.647 OA
ENDBRANCH  16  17
ENDBRANCH  15  16
ENDBRANCH  14  15
END_RES GLU D 570
ENDMDL
MODEL 4
REMARK VINA RESULT:      -4.8      3.048      3.869
REMARK  21 active torsions:
REMARK  status: ('A' for Active; 'I' for Inactive)
REMARK    1  A    between atoms: C_3  and  O_11 
REMARK    2  A    between atoms: C_6  and  C_7 
REMARK    3  A    between atoms: C_7  and  N_10 
REMARK    4  A    between atoms: O_11  and  C_12 
REMARK    5  A    between atoms: C_12  and  C_13 
REMARK    6  A    between atoms: C_13  and  C_14 
REMARK    7  A    between atoms: C_14  and  C_15 
REMARK    8  A    between atoms: C_15  and  C_16 
REMARK    9  A    between atoms: C_16  and  C_17 
REMARK   10  A    between atoms: C_17  and  O_18 
REMARK   11  A    between atoms: O_18  and  C_19 
REMARK   12  A    between atoms: C_22  and  C_25 
REMARK   13  A    between atoms: C_25  and  N_28 
REMARK   14  A    between atoms: C_35  and  C_36 
REMARK   15  A    between atoms: C_35  and  O_41 
REMARK   16  A    between atoms: C_36  and  S_37 
REMARK   17  A    between atoms: S_37  and  O_40 
REMARK   18  A    between atoms: C_44  and  C_45 
REMARK   19  A    between atoms: C_44  and  O_50 
REMARK   20  A    between atoms: C_45  and  S_46 
REMARK   21  A    between atoms: S_46  and  O_49 
ROOT
HETATM    1  S   UNL     2     -24.060  -4.021 -10.232  1.00  0.00     0.096 S 
HETATM    2  O   UNL     2     -25.013  -3.167 -10.910  1.00  0.00    -0.601 OA
HETATM    3  O   UNL     2     -24.029  -5.449 -10.452  1.00  0.00    -0.601 OA
ENDROOT
BRANCH   1   4
HETATM    4  C   UNL     2     -22.496  -3.310 -10.462  1.00  0.00     0.181 C 
BRANCH   4   5
HETATM    5  C   UNL     2     -21.548  -2.981 -11.563  1.00  0.00     0.180 C 
BRANCH   5   6
HETATM    6  O   UNL     2     -21.922  -3.450 -12.837  1.00  0.00    -0.400 OA
HETATM    7  H   UNL     2     -21.322  -3.042 -13.490  1.00  0.00     0.209 HD
ENDBRANCH   5   6
ENDBRANCH   4   5
ENDBRANCH   1   4
BRANCH   1   8
HETATM    8  O   UNL     2     -24.260  -3.692  -8.665  1.00  0.00    -0.296 OA
HETATM    9  H   UNL     2     -23.486  -4.082  -8.189  1.00  0.00     0.232 HD
ENDBRANCH   1   8
TORSDOF 21
BEGIN_RES ARG D 557
REMARK  4 active torsions:
REMARK  status: ('A' for Active; 'I' for Inactive)
REMARK    1  A    between atoms: CA   and  CB  
REMARK    2  A    between atoms: CB   and  CG  
REMARK    3  A    between atoms: CG   and  CD  
REMARK    4  A    between atoms: CD   and  NE  
REMARK       I    between atoms: NE   and  CZ  
REMARK       I    between atoms: CZ   and  NH1 
REMARK       I    between atoms: CZ   and  NH2 
ROOT
ATOM      1  CA  ARG D 557     -26.217   2.705 -17.014  1.00 35.49     0.159 C 
ENDROOT
BRANCH   1   2
ATOM      2  CB  ARG D 557     -26.789   1.319 -17.183  1.00 35.49     0.034 C 
BRANCH   2   3
ATOM      3  CG  ARG D 557     -25.834   0.204 -17.174  1.00 35.49     0.027 C 
BRANCH   3   4
ATOM      4  CD  ARG D 557     -24.765   0.386 -16.166  1.00 35.49     0.116 C 
BRANCH   4   5
ATOM      5  NE  ARG D 557     -24.943  -0.474 -15.026  1.00 35.49    -0.212 N 
ATOM      6  CZ  ARG D 557     -24.134  -1.443 -14.660  1.00 35.49     0.666 C 
ATOM      7  NH1 ARG D 557     -23.042  -1.748 -15.336  1.00 35.49    -0.235 N 
ATOM      8  NH2 ARG D 557     -24.442  -2.109 -13.585  1.00 35.49    -0.235 N 
ATOM      9  HH  ARG D 557     -22.819  -1.322 -16.045  1.00 35.49     0.174 HD
ATOM     10  HH  ARG D 557     -22.551  -2.388 -15.048  1.00 35.49     0.174 HD
ATOM     11  HH  ARG D 557     -25.150  -1.885 -13.165  1.00 35.49     0.174 HD
ATOM     12  HH  ARG D 557     -23.942  -2.738 -13.315  1.00 35.49     0.174 HD
ATOM     13  HE  ARG D 557     -25.660  -0.396 -14.575  1.00 35.49     0.178 HD
ENDBRANCH   4   5
ENDBRANCH   3   4
ENDBRANCH   2   3
ENDBRANCH   1   2
END_RES ARG D 557
BEGIN_RES GLU D 570
REMARK  3 active torsions:
REMARK  status: ('A' for Active; 'I' for Inactive)
REMARK    5  A    between atoms: CA   and  CB  
REMARK    6  A    between atoms: CB   and  CG  
REMARK    7  A    between atoms: CG   and  CD  
ROOT
ATOM     14  CA  GLU D 570     -18.033  -6.348 -13.375  1.00 32.92     0.160 C 
ENDROOT
BRANCH  14  15
ATOM     15  CB  GLU D 570     -19.500  -6.345 -13.794  1.00 32.92     0.043 C 
BRANCH  15  16
ATOM     16  CG  GLU D 570     -19.816  -5.900 -15.176  1.00 32.92     0.100 C 
BRANCH  16  17
ATOM     17  CD  GLU D 570     -21.295  -5.693 -15.404  1.00 32.92     0.185 C 
ATOM     18  OE1 GLU D 570     -22.061  -6.674 -15.338  1.00 32.92    -0.647 OA
ATOM     19  OE2 GLU D 570     -21.690  -4.541 -15.669  1.00 32.92    -0.647 OA
ENDBRANCH  16  17
ENDBRANCH  15  16
ENDBRANCH  14  15
END_RES GLU D 570
ENDMDL
MODEL 5
REMARK VINA RESULT:      -4.7      1.534      2.238
REMARK  21 active torsions:
REMARK  status: ('A' for Active; 'I' for Inactive)
REMARK    1  A    between atoms: C_3  and  O_11 
REMARK    2  A    between atoms: C_6  and  C_7 
REMARK    3  A    between atoms: C_7  and  N_10 
REMARK    4  A    between atoms: O_11  and  C_12 
REMARK    5  A    between atoms: C_12  and  C_13 
REMARK    6  A    between atoms: C_13  and  C_14 
REMARK    7  A    between atoms: C_14  and  C_15 
REMARK    8  A    between atoms: C_15  and  C_16 
REMARK    9  A    between atoms: C_16  and  C_17 
REMARK   10  A    between atoms: C_17  and  O_18 
REMARK   11  A    between atoms: O_18  and  C_19 
REMARK   12  A    between atoms: C_22  and  C_25 
REMARK   13  A    between atoms: C_25  and  N_28 
REMARK   14  A    between atoms: C_35  and  C_36 
REMARK   15  A    between atoms: C_35  and  O_41 
REMARK   16  A    between atoms: C_36  and  S_37 
REMARK   17  A    between atoms: S_37  and  O_40 
REMARK   18  A    between atoms: C_44  and  C_45 
REMARK   19  A    between atoms: C_44  and  O_50 
REMARK   20  A    between atoms: C_45  and  S_46 
REMARK   21  A    between atoms: S_46  and  O_49 
ROOT
HETATM    1  S   UNL     2     -25.231  -2.812 -14.135  1.00  0.00     0.096 S 
HETATM    2  O   UNL     2     -25.388  -3.984 -14.971  1.00  0.00    -0.601 OA
HETATM    3  O   UNL     2     -25.347  -2.885 -12.696  1.00  0.00    -0.601 OA
ENDROOT
BRANCH   1   4
HETATM    4  C   UNL     2     -23.750  -2.050 -14.614  1.00  0.00     0.181 C 
BRANCH   4   5
HETATM    5  C   UNL     2     -23.278  -0.826 -15.321  1.00  0.00     0.180 C 
BRANCH   5   6
HETATM    6  O   UNL     2     -24.179   0.256 -15.312  1.00  0.00    -0.400 OA
HETATM    7  H   UNL     2     -23.823   0.932 -14.703  1.00  0.00     0.209 HD
ENDBRANCH   5   6
ENDBRANCH   4   5
ENDBRANCH   1   4
BRANCH   1   8
HETATM    8  O   UNL     2     -26.275  -1.739 -14.736  1.00  0.00    -0.296 OA
HETATM    9  H   UNL     2     -26.813  -2.214 -15.418  1.00  0.00     0.232 HD
ENDBRANCH   1   8
TORSDOF 21
BEGIN_RES ARG D 557
REMARK  4 active torsions:
REMARK  status: ('A' for Active; 'I' for Inactive)
REMARK    1  A    between atoms: CA   and  CB  
REMARK    2  A    between atoms: CB   and  CG  
REMARK    3  A    between atoms: CG   and  CD  
REMARK    4  A    between atoms: CD   and  NE  
REMARK       I    between atoms: NE   and  CZ  
REMARK       I    between atoms: CZ   and  NH1 
REMARK       I    between atoms: CZ   and  NH2 
ROOT
ATOM      1  CA  ARG D 557     -26.217   2.705 -17.014  1.00 35.49     0.159 C 
ENDROOT
BRANCH   1   2
ATOM      2  CB  ARG D 557     -26.789   1.319 -17.183  1.00 35.49     0.034 C 
BRANCH   2   3
ATOM      3  CG  ARG D 557     -28.152   1.101 -16.683  1.00 35.49     0.027 C 
BRANCH   3   4
ATOM      4  CD  ARG D 557     -28.797  -0.081 -17.299  1.00 35.49     0.116 C 
BRANCH   4   5
ATOM      5  NE  ARG D 557     -28.196  -1.314 -16.864  1.00 35.49    -0.212 N 
ATOM      6  CZ  ARG D 557     -28.693  -2.517 -17.046  1.00 35.49     0.666 C 
ATOM      7  NH1 ARG D 557     -29.845  -2.723 -17.657  1.00 35.49    -0.235 N 
ATOM      8  NH2 ARG D 557     -28.001  -3.526 -16.602  1.00 35.49    -0.235 N 
ATOM      9  HH  ARG D 557     -30.316  -2.074 -17.959  1.00 35.49     0.174 HD
ATOM     10  HH  ARG D 557     -30.118  -3.530 -17.749  1.00 35.49     0.174 HD
ATOM     11  HH  ARG D 557     -27.257  -3.364 -16.218  1.00 35.49     0.174 HD
ATOM     12  HH  ARG D 557     -28.288  -4.318 -16.705  1.00 35.49     0.174 HD
ATOM     13  HE  ARG D 557     -27.487  -1.270 -16.397  1.00 35.49     0.178 HD
ENDBRANCH   4   5
ENDBRANCH   3   4
ENDBRANCH   2   3
ENDBRANCH   1   2
END_RES ARG D 557
BEGIN_RES GLU D 570
REMARK  3 active torsions:
REMARK  status: ('A' for Active; 'I' for Inactive)
REMARK    5  A    between atoms: CA   and  CB  
REMARK    6  A    between atoms: CB   and  CG  
REMARK    7  A    between atoms: CG   and  CD  
ROOT
ATOM     14  CA  GLU D 570     -18.033  -6.348 -13.375  1.00 32.92     0.160 C 
ENDROOT
BRANCH  14  15
ATOM     15  CB  GLU D 570     -19.500  -6.345 -13.794  1.00 32.92     0.043 C 
BRANCH  15  16
ATOM     16  CG  GLU D 570     -20.439  -5.517 -12.994  1.00 32.92     0.100 C 
BRANCH  16  17
ATOM     17  CD  GLU D 570     -21.717  -5.194 -13.733  1.00 32.92     0.185 C 
ATOM     18  OE1 GLU D 570     -21.662  -4.928 -14.949  1.00 32.92    -0.647 OA
ATOM     19  OE2 GLU D 570     -22.782  -5.192 -13.085  1.00 32.92    -0.647 OA
ENDBRANCH  16  17
ENDBRANCH  15  16
ENDBRANCH  14  15
END_RES GLU D 570
ENDMDL
MODEL 6
REMARK VINA RESULT:      -4.5      3.219      4.456
REMARK  21 active torsions:
REMARK  status: ('A' for Active; 'I' for Inactive)
REMARK    1  A    between atoms: C_3  and  O_11 
REMARK    2  A    between atoms: C_6  and  C_7 
REMARK    3  A    between atoms: C_7  and  N_10 
REMARK    4  A    between atoms: O_11  and  C_12 
REMARK    5  A    between atoms: C_12  and  C_13 
REMARK    6  A    between atoms: C_13  and  C_14 
REMARK    7  A    between atoms: C_14  and  C_15 
REMARK    8  A    between atoms: C_15  and  C_16 
REMARK    9  A    between atoms: C_16  and  C_17 
REMARK   10  A    between atoms: C_17  and  O_18 
REMARK   11  A    between atoms: O_18  and  C_19 
REMARK   12  A    between atoms: C_22  and  C_25 
REMARK   13  A    between atoms: C_25  and  N_28 
REMARK   14  A    between atoms: C_35  and  C_36 
REMARK   15  A    between atoms: C_35  and  O_41 
REMARK   16  A    between atoms: C_36  and  S_37 
REMARK   17  A    between atoms: S_37  and  O_40 
REMARK   18  A    between atoms: C_44  and  C_45 
REMARK   19  A    between atoms: C_44  and  O_50 
REMARK   20  A    between atoms: C_45  and  S_46 
REMARK   21  A    between atoms: S_46  and  O_49 
ROOT
HETATM    1  S   UNL     2     -24.992  -6.979 -16.085  1.00  0.00     0.096 S 
HETATM    2  O   UNL     2     -24.255  -5.841 -15.575  1.00  0.00    -0.601 OA
HETATM    3  O   UNL     2     -26.203  -7.446 -15.449  1.00  0.00    -0.601 OA
ENDROOT
BRANCH   1   4
HETATM    4  C   UNL     2     -25.231  -6.703 -17.779  1.00  0.00     0.181 C 
BRANCH   4   5
HETATM    5  C   UNL     2     -24.573  -6.998 -19.083  1.00  0.00     0.180 C 
BRANCH   5   6
HETATM    6  O   UNL     2     -23.244  -7.458 -18.993  1.00  0.00    -0.400 OA
HETATM    7  H   UNL     2     -23.100  -8.089 -19.725  1.00  0.00     0.209 HD
ENDBRANCH   5   6
ENDBRANCH   4   5
ENDBRANCH   1   4
BRANCH   1   8
HETATM    8  O   UNL     2     -23.902  -8.165 -16.172  1.00  0.00    -0.296 OA
HETATM    9  H   UNL     2     -23.033  -7.741 -16.382  1.00  0.00     0.232 HD
ENDBRANCH   1   8
TORSDOF 21
BEGIN_RES ARG D 557
REMARK  4 active torsions:
REMARK  status: ('A' for Active; 'I' for Inactive)
REMARK    1  A    between atoms: CA   and  CB  
REMARK    2  A    between atoms: CB   and  CG  
REMARK    3  A    between atoms: CG   and  CD  
REMARK    4  A    between atoms: CD   and  NE  
REMARK       I    between atoms: NE   and  CZ  
REMARK       I    between atoms: CZ   and  NH1 
REMARK       I    between atoms: CZ   and  NH2 
ROOT
ATOM      1  CA  ARG D 557     -26.217   2.705 -17.014  1.00 35.49     0.159 C 
ENDROOT
BRANCH   1   2
ATOM      2  CB  ARG D 557     -26.789   1.319 -17.183  1.00 35.49     0.034 C 
BRANCH   2   3
ATOM      3  CG  ARG D 557     -25.931   0.197 -16.784  1.00 35.49     0.027 C 
BRANCH   3   4
ATOM      4  CD  ARG D 557     -26.687  -0.876 -16.098  1.00 35.49     0.116 C 
BRANCH   4   5
ATOM      5  NE  ARG D 557     -25.893  -1.549 -15.105  1.00 35.49    -0.212 N 
ATOM      6  CZ  ARG D 557     -25.916  -2.838 -14.847  1.00 35.49     0.666 C 
ATOM      7  NH1 ARG D 557     -26.712  -3.675 -15.487  1.00 35.49    -0.235 N 
ATOM      8  NH2 ARG D 557     -25.111  -3.280 -13.925  1.00 35.49    -0.235 N 
ATOM      9  HH  ARG D 557     -27.248  -3.406 -16.099  1.00 35.49     0.174 HD
ATOM     10  HH  ARG D 557     -26.682  -4.505 -15.278  1.00 35.49     0.174 HD
ATOM     11  HH  ARG D 557     -24.603  -2.718 -13.534  1.00 35.49     0.174 HD
ATOM     12  HH  ARG D 557     -25.095  -4.106 -13.734  1.00 35.49     0.174 HD
ATOM     13  HE  ARG D 557     -25.404  -1.075 -14.595  1.00 35.49     0.178 HD
ENDBRANCH   4   5
ENDBRANCH   3   4
ENDBRANCH   2   3
ENDBRANCH   1   2
END_RES ARG D 557
BEGIN_RES GLU D 570
REMARK  3 active torsions:
REMARK  status: ('A' for Active; 'I' for Inactive)
REMARK    5  A    between atoms: CA   and  CB  
REMARK    6  A    between atoms: CB   and  CG  
REMARK    7  A    between atoms: CG   and  CD  
ROOT
ATOM     14  CA  GLU D 570     -18.033  -6.348 -13.375  1.00 32.92     0.160 C 
ENDROOT
BRANCH  14  15
ATOM     15  CB  GLU D 570     -19.500  -6.345 -13.794  1.00 32.92     0.043 C 
BRANCH  15  16
ATOM     16  CG  GLU D 570     -19.805  -6.046 -15.217  1.00 32.92     0.100 C 
BRANCH  16  17
ATOM     17  CD  GLU D 570     -20.732  -7.060 -15.847  1.00 32.92     0.185 C 
ATOM     18  OE1 GLU D 570     -20.853  -8.181 -15.316  1.00 32.92    -0.647 OA
ATOM     19  OE2 GLU D 570     -21.331  -6.735 -16.891  1.00 32.92    -0.647 OA
ENDBRANCH  16  17
ENDBRANCH  15  16
ENDBRANCH  14  15
END_RES GLU D 570
ENDMDL
MODEL 7
REMARK VINA RESULT:      -4.5      1.513      2.280
REMARK  21 active torsions:
REMARK  status: ('A' for Active; 'I' for Inactive)
REMARK    1  A    between atoms: C_3  and  O_11 
REMARK    2  A    between atoms: C_6  and  C_7 
REMARK    3  A    between atoms: C_7  and  N_10 
REMARK    4  A    between atoms: O_11  and  C_12 
REMARK    5  A    between atoms: C_12  and  C_13 
REMARK    6  A    between atoms: C_13  and  C_14 
REMARK    7  A    between atoms: C_14  and  C_15 
REMARK    8  A    between atoms: C_15  and  C_16 
REMARK    9  A    between atoms: C_16  and  C_17 
REMARK   10  A    between atoms: C_17  and  O_18 
REMARK   11  A    between atoms: O_18  and  C_19 
REMARK   12  A    between atoms: C_22  and  C_25 
REMARK   13  A    between atoms: C_25  and  N_28 
REMARK   14  A    between atoms: C_35  and  C_36 
REMARK   15  A    between atoms: C_35  and  O_41 
REMARK   16  A    between atoms: C_36  and  S_37 
REMARK   17  A    between atoms: S_37  and  O_40 
REMARK   18  A    between atoms: C_44  and  C_45 
REMARK   19  A    between atoms: C_44  and  O_50 
REMARK   20  A    between atoms: C_45  and  S_46 
REMARK   21  A    between atoms: S_46  and  O_49 
ROOT
HETATM    1  S   UNL     2     -24.008  -3.258 -11.898  1.00  0.00     0.096 S 
HETATM    2  O   UNL     2     -22.714  -2.617 -11.780  1.00  0.00    -0.601 OA
HETATM    3  O   UNL     2     -24.998  -3.169 -10.849  1.00  0.00    -0.601 OA
ENDROOT
BRANCH   1   4
HETATM    4  C   UNL     2     -24.663  -2.787 -13.432  1.00  0.00     0.181 C 
BRANCH   4   5
HETATM    5  C   UNL     2     -24.251  -2.075 -14.674  1.00  0.00     0.180 C 
BRANCH   5   6
HETATM    6  O   UNL     2     -22.927  -2.314 -15.091  1.00  0.00    -0.400 OA
HETATM    7  H   UNL     2     -22.358  -2.287 -14.297  1.00  0.00     0.209 HD
ENDBRANCH   5   6
ENDBRANCH   4   5
ENDBRANCH   1   4
BRANCH   1   8
HETATM    8  O   UNL     2     -23.668  -4.800 -12.231  1.00  0.00    -0.296 OA
HETATM    9  H   UNL     2     -24.104  -5.010 -13.094  1.00  0.00     0.232 HD
ENDBRANCH   1   8
TORSDOF 21
BEGIN_RES ARG D 557
REMARK  4 active torsions:
REMARK  status: ('A' for Active; 'I' for Inactive)
REMARK    1  A    between atoms: CA   and  CB  
REMARK    2  A    between atoms: CB   and  CG  
REMARK    3  A    between atoms: CG   and  CD  
REMARK    4  A    between atoms: CD   and  NE  
REMARK       I    between atoms: NE   and  CZ  
REMARK       I    between atoms: CZ   and  NH1 
REMARK       I    between atoms: CZ   and  NH2 
ROOT
ATOM      1  CA  ARG D 557     -26.217   2.705 -17.014  1.00 35.49     0.159 C 
ENDROOT
BRANCH   1   2
ATOM      2  CB  ARG D 557     -26.789   1.319 -17.183  1.00 35.49     0.034 C 
BRANCH   2   3
ATOM      3  CG  ARG D 557     -28.234   1.225 -17.422  1.00 35.49     0.027 C 
BRANCH   3   4
ATOM      4  CD  ARG D 557     -28.901   0.287 -16.491  1.00 35.49     0.116 C 
BRANCH   4   5
ATOM      5  NE  ARG D 557     -29.278  -0.943 -17.138  1.00 35.49    -0.212 N 
ATOM      6  CZ  ARG D 557     -28.647  -2.091 -17.031  1.00 35.49     0.666 C 
ATOM      7  NH1 ARG D 557     -27.555  -2.236 -16.304  1.00 35.49    -0.235 N 
ATOM      8  NH2 ARG D 557     -29.143  -3.110 -17.672  1.00 35.49    -0.235 N 
ATOM      9  HH  ARG D 557     -27.213  -1.580 -15.872  1.00 35.49     0.174 HD
ATOM     10  HH  ARG D 557     -27.188  -3.010 -16.270  1.00 35.49     0.174 HD
ATOM     11  HH  ARG D 557     -29.854  -2.988 -18.128  1.00 35.49     0.174 HD
ATOM     12  HH  ARG D 557     -28.767  -3.868 -17.625  1.00 35.49     0.174 HD
ATOM     13  HE  ARG D 557     -29.929  -0.923 -17.684  1.00 35.49     0.178 HD
ENDBRANCH   4   5
ENDBRANCH   3   4
ENDBRANCH   2   3
ENDBRANCH   1   2
END_RES ARG D 557
BEGIN_RES GLU D 570
REMARK  3 active torsions:
REMARK  status: ('A' for Active; 'I' for Inactive)
REMARK    5  A    between atoms: CA   and  CB  
REMARK    6  A    between atoms: CB   and  CG  
REMARK    7  A    between atoms: CG   and  CD  
ROOT
ATOM     14  CA  GLU D 570     -18.033  -6.348 -13.375  1.00 32.92     0.160 C 
ENDROOT
BRANCH  14  15
ATOM     15  CB  GLU D 570     -19.500  -6.345 -13.794  1.00 32.92     0.043 C 
BRANCH  15  16
ATOM     16  CG  GLU D 570     -19.801  -6.112 -15.230  1.00 32.92     0.100 C 
BRANCH  16  17
ATOM     17  CD  GLU D 570     -21.086  -5.347 -15.446  1.00 32.92     0.185 C 
ATOM     18  OE1 GLU D 570     -21.747  -4.982 -14.455  1.00 32.92    -0.647 OA
ATOM     19  OE2 GLU D 570     -21.445  -5.126 -16.620  1.00 32.92    -0.647 OA
ENDBRANCH  16  17
ENDBRANCH  15  16
ENDBRANCH  14  15
END_RES GLU D 570
ENDMDL
MODEL 8
REMARK VINA RESULT:      -4.4      2.579      3.070
REMARK  21 active torsions:
REMARK  status: ('A' for Active; 'I' for Inactive)
REMARK    1  A    between atoms: C_3  and  O_11 
REMARK    2  A    between atoms: C_6  and  C_7 
REMARK    3  A    between atoms: C_7  and  N_10 
REMARK    4  A    between atoms: O_11  and  C_12 
REMARK    5  A    between atoms: C_12  and  C_13 
REMARK    6  A    between atoms: C_13  and  C_14 
REMARK    7  A    between atoms: C_14  and  C_15 
REMARK    8  A    between atoms: C_15  and  C_16 
REMARK    9  A    between atoms: C_16  and  C_17 
REMARK   10  A    between atoms: C_17  and  O_18 
REMARK   11  A    between atoms: O_18  and  C_19 
REMARK   12  A    between atoms: C_22  and  C_25 
REMARK   13  A    between atoms: C_25  and  N_28 
REMARK   14  A    between atoms: C_35  and  C_36 
REMARK   15  A    between atoms: C_35  and  O_41 
REMARK   16  A    between atoms: C_36  and  S_37 
REMARK   17  A    between atoms: S_37  and  O_40 
REMARK   18  A    between atoms: C_44  and  C_45 
REMARK   19  A    between atoms: C_44  and  O_50 
REMARK   20  A    between atoms: C_45  and  S_46 
REMARK   21  A    between atoms: S_46  and  O_49 
ROOT
HETATM    1  S   UNL     2     -23.604  -3.365 -11.368  1.00  0.00     0.096 S 
HETATM    2  O   UNL     2     -24.960  -3.224 -10.878  1.00  0.00    -0.601 OA
HETATM    3  O   UNL     2     -23.011  -2.386 -12.250  1.00  0.00    -0.601 OA
ENDROOT
BRANCH   1   4
HETATM    4  C   UNL     2     -22.601  -3.665  -9.987  1.00  0.00     0.181 C 
BRANCH   4   5
HETATM    5  C   UNL     2     -22.727  -3.933  -8.527  1.00  0.00     0.180 C 
BRANCH   5   6
HETATM    6  O   UNL     2     -24.048  -4.022  -8.045  1.00  0.00    -0.400 OA
HETATM    7  H   UNL     2     -24.626  -4.222  -8.806  1.00  0.00     0.209 HD
ENDBRANCH   5   6
ENDBRANCH   4   5
ENDBRANCH   1   4
BRANCH   1   8
HETATM    8  O   UNL     2     -23.563  -4.833 -12.036  1.00  0.00    -0.296 OA
HETATM    9  H   UNL     2     -22.907  -4.793 -12.776  1.00  0.00     0.232 HD
ENDBRANCH   1   8
TORSDOF 21
BEGIN_RES ARG D 557
REMARK  4 active torsions:
REMARK  status: ('A' for Active; 'I' for Inactive)
REMARK    1  A    between atoms: CA   and  CB  
REMARK    2  A    between atoms: CB   and  CG  
REMARK    3  A    between atoms: CG   and  CD  
REMARK    4  A    between atoms: CD   and  NE  
REMARK       I    between atoms: NE   and  CZ  
REMARK       I    between atoms: CZ   and  NH1 
REMARK       I    between atoms: CZ   and  NH2 
ROOT
ATOM      1  CA  ARG D 557     -26.217   2.705 -17.014  1.00 35.49     0.159 C 
ENDROOT
BRANCH   1   2
ATOM      2  CB  ARG D 557     -26.789   1.319 -17.183  1.00 35.49     0.034 C 
BRANCH   2   3
ATOM      3  CG  ARG D 557     -25.958   0.201 -16.720  1.00 35.49     0.027 C 
BRANCH   3   4
ATOM      4  CD  ARG D 557     -26.761  -0.883 -16.108  1.00 35.49     0.116 C 
BRANCH   4   5
ATOM      5  NE  ARG D 557     -25.993  -1.668 -15.178  1.00 35.49    -0.212 N 
ATOM      6  CZ  ARG D 557     -26.115  -2.961 -14.979  1.00 35.49     0.666 C 
ATOM      7  NH1 ARG D 557     -26.999  -3.697 -15.627  1.00 35.49    -0.235 N 
ATOM      8  NH2 ARG D 557     -25.319  -3.513 -14.111  1.00 35.49    -0.235 N 
ATOM      9  HH  ARG D 557     -27.532  -3.355 -16.205  1.00 35.49     0.174 HD
ATOM     10  HH  ARG D 557     -27.032  -4.536 -15.458  1.00 35.49     0.174 HD
ATOM     11  HH  ARG D 557     -24.753  -3.014 -13.713  1.00 35.49     0.174 HD
ATOM     12  HH  ARG D 557     -25.366  -4.346 -13.958  1.00 35.49     0.174 HD
ATOM     13  HE  ARG D 557     -25.449  -1.261 -14.666  1.00 35.49     0.178 HD
ENDBRANCH   4   5
ENDBRANCH   3   4
ENDBRANCH   2   3
ENDBRANCH   1   2
END_RES ARG D 557
BEGIN_RES GLU D 570
REMARK  3 active torsions:
REMARK  status: ('A' for Active; 'I' for Inactive)
REMARK    5  A    between atoms: CA   and  CB  
REMARK    6  A    between atoms: CB   and  CG  
REMARK    7  A    between atoms: CG   and  CD  
ROOT
ATOM     14  CA  GLU D 570     -18.033  -6.348 -13.375  1.00 32.92     0.160 C 
ENDROOT
BRANCH  14  15
ATOM     15  CB  GLU D 570     -19.500  -6.345 -13.794  1.00 32.92     0.043 C 
BRANCH  15  16
ATOM     16  CG  GLU D 570     -19.805  -6.052 -15.218  1.00 32.92     0.100 C 
BRANCH  16  17
ATOM     17  CD  GLU D 570     -21.125  -5.342 -15.405  1.00 32.92     0.185 C 
ATOM     18  OE1 GLU D 570     -21.523  -5.098 -16.560  1.00 32.92    -0.647 OA
ATOM     19  OE2 GLU D 570     -21.760  -5.012 -14.384  1.00 32.92    -0.647 OA
ENDBRANCH  16  17
ENDBRANCH  15  16
ENDBRANCH  14  15
END_RES GLU D 570
ENDMDL
MODEL 9
REMARK VINA RESULT:      -4.1      1.938      2.448
REMARK  21 active torsions:
REMARK  status: ('A' for Active; 'I' for Inactive)
REMARK    1  A    between atoms: C_3  and  O_11 
REMARK    2  A    between atoms: C_6  and  C_7 
REMARK    3  A    between atoms: C_7  and  N_10 
REMARK    4  A    between atoms: O_11  and  C_12 
REMARK    5  A    between atoms: C_12  and  C_13 
REMARK    6  A    between atoms: C_13  and  C_14 
REMARK    7  A    between atoms: C_14  and  C_15 
REMARK    8  A    between atoms: C_15  and  C_16 
REMARK    9  A    between atoms: C_16  and  C_17 
REMARK   10  A    between atoms: C_17  and  O_18 
REMARK   11  A    between atoms: O_18  and  C_19 
REMARK   12  A    between atoms: C_22  and  C_25 
REMARK   13  A    between atoms: C_25  and  N_28 
REMARK   14  A    between atoms: C_35  and  C_36 
REMARK   15  A    between atoms: C_35  and  O_41 
REMARK   16  A    between atoms: C_36  and  S_37 
REMARK   17  A    between atoms: S_37  and  O_40 
REMARK   18  A    between atoms: C_44  and  C_45 
REMARK   19  A    between atoms: C_44  and  O_50 
REMARK   20  A    between atoms: C_45  and  S_46 
REMARK   21  A    between atoms: S_46  and  O_49 
ROOT
HETATM    1  S   UNL     2     -24.107  -3.150 -12.090  1.00  0.00     0.096 S 
HETATM    2  O   UNL     2     -24.492  -2.445 -13.296  1.00  0.00    -0.601 OA
HETATM    3  O   UNL     2     -24.978  -3.216 -10.939  1.00  0.00    -0.601 OA
ENDROOT
BRANCH   1   4
HETATM    4  C   UNL     2     -23.579  -4.727 -12.579  1.00  0.00     0.181 C 
BRANCH   4   5
HETATM    5  C   UNL     2     -23.593  -5.610 -13.779  1.00  0.00     0.180 C 
BRANCH   5   6
HETATM    6  O   UNL     2     -23.789  -4.949 -15.007  1.00  0.00    -0.400 OA
HETATM    7  H   UNL     2     -24.673  -4.534 -14.981  1.00  0.00     0.209 HD
ENDBRANCH   5   6
ENDBRANCH   4   5
ENDBRANCH   1   4
BRANCH   1   8
HETATM    8  O   UNL     2     -22.679  -2.517 -11.687  1.00  0.00    -0.296 OA
HETATM    9  H   UNL     2     -22.010  -3.241 -11.773  1.00  0.00     0.232 HD
ENDBRANCH   1   8
TORSDOF 21
BEGIN_RES ARG D 557
REMARK  4 active torsions:
REMARK  status: ('A' for Active; 'I' for Inactive)
REMARK    1  A    between atoms: CA   and  CB  
REMARK    2  A    between atoms: CB   and  CG  
REMARK    3  A    between atoms: CG   and  CD  
REMARK    4  A    between atoms: CD   and  NE  
REMARK       I    between atoms: NE   and  CZ  
REMARK       I    between atoms: CZ   and  NH1 
REMARK       I    between atoms: CZ   and  NH2 
ROOT
ATOM      1  CA  ARG D 557     -26.217   2.705 -17.014  1.00 35.49     0.159 C 
ENDROOT
BRANCH   1   2
ATOM      2  CB  ARG D 557     -26.789   1.319 -17.183  1.00 35.49     0.034 C 
BRANCH   2   3
ATOM      3  CG  ARG D 557     -28.223   1.159 -16.915  1.00 35.49     0.027 C 
BRANCH   3   4
ATOM      4  CD  ARG D 557     -28.588  -0.244 -16.610  1.00 35.49     0.116 C 
BRANCH   4   5
ATOM      5  NE  ARG D 557     -27.507  -0.961 -15.988  1.00 35.49    -0.212 N 
ATOM      6  CZ  ARG D 557     -27.294  -2.255 -16.073  1.00 35.49     0.666 C 
ATOM      7  NH1 ARG D 557     -28.088  -3.061 -16.754  1.00 35.49    -0.235 N 
ATOM      8  NH2 ARG D 557     -26.250  -2.734 -15.460  1.00 35.49    -0.235 N 
ATOM      9  HH  ARG D 557     -28.779  -2.767 -17.166  1.00 35.49     0.174 HD
ATOM     10  HH  ARG D 557     -27.898  -3.896 -16.776  1.00 35.49     0.174 HD
ATOM     11  HH  ARG D 557     -25.751  -2.189 -15.035  1.00 35.49     0.174 HD
ATOM     12  HH  ARG D 557     -26.078  -3.564 -15.496  1.00 35.49     0.174 HD
ATOM     13  HE  ARG D 557     -26.987  -0.531 -15.470  1.00 35.49     0.178 HD
ENDBRANCH   4   5
ENDBRANCH   3   4
ENDBRANCH   2   3
ENDBRANCH   1   2
END_RES ARG D 557
BEGIN_RES GLU D 570
REMARK  3 active torsions:
REMARK  status: ('A' for Active; 'I' for Inactive)
REMARK    5  A    between atoms: CA   and  CB  
REMARK    6  A    between atoms: CB   and  CG  
REMARK    7  A    between atoms: CG   and  CD  
ROOT
ATOM     14  CA  GLU D 570     -18.033  -6.348 -13.375  1.00 32.92     0.160 C 
ENDROOT
BRANCH  14  15
ATOM     15  CB  GLU D 570     -19.500  -6.345 -13.794  1.00 32.92     0.043 C 
BRANCH  15  16
ATOM     16  CG  GLU D 570     -19.800  -6.146 -15.236  1.00 32.92     0.100 C 
BRANCH  16  17
ATOM     17  CD  GLU D 570     -20.799  -7.144 -15.773  1.00 32.92     0.185 C 
ATOM     18  OE1 GLU D 570     -21.733  -6.738 -16.490  1.00 32.92    -0.647 OA
ATOM     19  OE2 GLU D 570     -20.654  -8.342 -15.460  1.00 32.92    -0.647 OA
ENDBRANCH  16  17
ENDBRANCH  15  16
ENDBRANCH  14  15
END_RES GLU D 570
ENDMDL
