MODEL 1
REMARK VINA RESULT:      -7.6      0.000      0.000
REMARK  17 active torsions:
REMARK  status: ('A' for Active; 'I' for Inactive)
REMARK    1  A    between atoms: C_2  and  C_3 
REMARK    2  A    between atoms: C_3  and  C_4 
REMARK    3  A    between atoms: C_4  and  C_5 
REMARK    4  A    between atoms: C_5  and  C_6 
REMARK    5  A    between atoms: C_6  and  C_7 
REMARK    6  A    between atoms: C_7  and  C_8 
REMARK    7  A    between atoms: C_8  and  C_9 
REMARK    8  A    between atoms: C_9  and  C_10 
REMARK    9  A    between atoms: C_10  and  C_11 
REMARK   10  A    between atoms: C_11  and  C_12 
REMARK   11  A    between atoms: C_12  and  O_13 
REMARK   12  A    between atoms: O_13  and  C_14 
REMARK   13  A    between atoms: C_15  and  O_24 
REMARK   14  A    between atoms: C_16  and  O_23 
REMARK   15  A    between atoms: C_17  and  O_22 
REMARK   16  A    between atoms: C_18  and  C_20 
REMARK   17  A    between atoms: C_20  and  O_21 
ROOT
HETATM    1  C   UNL     1     -21.924  -4.400 -12.420  1.00  0.00     0.291 C 
HETATM    2  C   UNL     1     -22.466  -3.578 -13.614  1.00  0.00     0.204 C 
HETATM    3  C   UNL     1     -23.270  -2.376 -13.095  1.00  0.00     0.183 C 
HETATM    4  C   UNL     1     -24.333  -2.793 -12.069  1.00  0.00     0.180 C 
HETATM    5  C   UNL     1     -23.668  -3.617 -10.956  1.00  0.00     0.179 C 
HETATM    6  O   UNL     1     -23.016  -4.767 -11.541  1.00  0.00    -0.348 OA
ENDROOT
BRANCH   1   7
HETATM    7  O   UNL     1     -20.891  -3.736 -11.690  1.00  0.00    -0.359 OA
BRANCH   7   8
HETATM    8  C   UNL     1     -20.209  -4.604 -10.783  1.00  0.00     0.171 C 
BRANCH   8   9
HETATM    9  C   UNL     1     -20.308  -4.081  -9.350  1.00  0.00     0.026 C 
BRANCH   9  10
HETATM   10  C   UNL     1     -21.225  -4.904  -8.444  1.00  0.00     0.002 C 
BRANCH  10  11
HETATM   11  C   UNL     1     -20.440  -5.704  -7.409  1.00  0.00     0.000 C 
BRANCH  11  12
HETATM   12  C   UNL     1     -19.773  -4.801  -6.380  1.00  0.00     0.000 C 
BRANCH  12  13
HETATM   13  C   UNL     1     -20.356  -5.098  -5.003  1.00  0.00     0.000 C 
BRANCH  13  14
HETATM   14  C   UNL     1     -21.016  -6.468  -4.965  1.00  0.00     0.000 C 
BRANCH  14  15
HETATM   15  C   UNL     1     -22.028  -6.521  -3.826  1.00  0.00     0.000 C 
BRANCH  15  16
HETATM   16  C   UNL     1     -21.325  -6.600  -2.479  1.00  0.00     0.000 C 
BRANCH  16  17
HETATM   17  C   UNL     1     -22.346  -6.571  -1.344  1.00  0.00    -0.000 C 
BRANCH  17  18
HETATM   18  C   UNL     1     -22.025  -7.628  -0.290  1.00  0.00    -0.005 C 
HETATM   19  C   UNL     1     -21.783  -8.981  -0.935  1.00  0.00     0.005 C 
ENDBRANCH  17  18
ENDBRANCH  16  17
ENDBRANCH  15  16
ENDBRANCH  14  15
ENDBRANCH  13  14
ENDBRANCH  12  13
ENDBRANCH  11  12
ENDBRANCH  10  11
ENDBRANCH   9  10
ENDBRANCH   8   9
ENDBRANCH   7   8
ENDBRANCH   1   7
BRANCH   2  20
HETATM   20  O   UNL     1     -23.267  -4.408 -14.476  1.00  0.00    -0.388 OA
HETATM   21  H   UNL     1     -22.764  -5.217 -14.658  1.00  0.00     0.210 HD
ENDBRANCH   2  20
BRANCH   3  22
HETATM   22  O   UNL     1     -23.896  -1.698 -14.191  1.00  0.00    -0.390 OA
HETATM   23  H   UNL     1     -23.301  -0.939 -14.391  1.00  0.00     0.210 HD
ENDBRANCH   3  22
BRANCH   5  24
HETATM   24  C   UNL     1     -24.699  -4.111  -9.927  1.00  0.00     0.198 C 
BRANCH  24  25
HETATM   25  O   UNL     1     -25.791  -3.200  -9.841  1.00  0.00    -0.398 OA
HETATM   26  H   UNL     1     -26.449  -3.502 -10.496  1.00  0.00     0.209 HD
ENDBRANCH  24  25
ENDBRANCH   5  24
BRANCH   4  27
HETATM   27  O   UNL     1     -25.362  -3.541 -12.745  1.00  0.00    -0.390 OA
HETATM   28  H   UNL     1     -24.957  -4.063 -13.464  1.00  0.00     0.210 HD
ENDBRANCH   4  27
TORSDOF 17
BEGIN_RES ARG D 557
REMARK  4 active torsions:
REMARK  status: ('A' for Active; 'I' for Inactive)
REMARK    1  A    between atoms: CA   and  CB  
REMARK    2  A    between atoms: CB   and  CG  
REMARK    3  A    between atoms: CG   and  CD  
REMARK    4  A    between atoms: CD   and  NE  
REMARK       I    between atoms: NE   and  CZ  
REMARK       I    between atoms: CZ   and  NH1 
REMARK       I    between atoms: CZ   and  NH2 
ROOT
ATOM      1  CA  ARG D 557     -26.217   2.705 -17.014  1.00 35.49     0.159 C 
ENDROOT
BRANCH   1   2
ATOM      2  CB  ARG D 557     -26.789   1.319 -17.183  1.00 35.49     0.034 C 
BRANCH   2   3
ATOM      3  CG  ARG D 557     -28.216   1.152 -16.881  1.00 35.49     0.027 C 
BRANCH   3   4
ATOM      4  CD  ARG D 557     -28.586  -0.267 -16.671  1.00 35.49     0.116 C 
BRANCH   4   5
ATOM      5  NE  ARG D 557     -27.555  -0.999 -15.983  1.00 35.49    -0.212 N 
ATOM      6  CZ  ARG D 557     -27.366  -2.298 -16.043  1.00 35.49     0.666 C 
ATOM      7  NH1 ARG D 557     -28.138  -3.095 -16.758  1.00 35.49    -0.235 N 
ATOM      8  NH2 ARG D 557     -26.367  -2.791 -15.370  1.00 35.49    -0.235 N 
ATOM      9  HH  ARG D 557     -28.800  -2.792 -17.211  1.00 35.49     0.174 HD
ATOM     10  HH  ARG D 557     -27.965  -3.934 -16.762  1.00 35.49     0.174 HD
ATOM     11  HH  ARG D 557     -25.880  -2.252 -14.923  1.00 35.49     0.174 HD
ATOM     12  HH  ARG D 557     -26.211  -3.624 -15.388  1.00 35.49     0.174 HD
ATOM     13  HE  ARG D 557     -27.056  -0.574 -15.442  1.00 35.49     0.178 HD
ENDBRANCH   4   5
ENDBRANCH   3   4
ENDBRANCH   2   3
ENDBRANCH   1   2
END_RES ARG D 557
BEGIN_RES GLU D 570
REMARK  3 active torsions:
REMARK  status: ('A' for Active; 'I' for Inactive)
REMARK    5  A    between atoms: CA   and  CB  
REMARK    6  A    between atoms: CB   and  CG  
REMARK    7  A    between atoms: CG   and  CD  
ROOT
ATOM     14  CA  GLU D 570     -18.033  -6.348 -13.375  1.00 32.92     0.160 C 
ENDROOT
BRANCH  14  15
ATOM     15  CB  GLU D 570     -19.500  -6.345 -13.794  1.00 32.92     0.043 C 
BRANCH  15  16
ATOM     16  CG  GLU D 570     -19.796  -6.283 -15.249  1.00 32.92     0.100 C 
BRANCH  16  17
ATOM     17  CD  GLU D 570     -20.946  -7.176 -15.654  1.00 32.92     0.185 C 
ATOM     18  OE1 GLU D 570     -20.770  -8.409 -15.694  1.00 32.92    -0.647 OA
ATOM     19  OE2 GLU D 570     -22.029  -6.635 -15.952  1.00 32.92    -0.647 OA
ENDBRANCH  16  17
ENDBRANCH  15  16
ENDBRANCH  14  15
END_RES GLU D 570
ENDMDL
MODEL 2
REMARK VINA RESULT:      -7.3      1.321      2.670
REMARK  17 active torsions:
REMARK  status: ('A' for Active; 'I' for Inactive)
REMARK    1  A    between atoms: C_2  and  C_3 
REMARK    2  A    between atoms: C_3  and  C_4 
REMARK    3  A    between atoms: C_4  and  C_5 
REMARK    4  A    between atoms: C_5  and  C_6 
REMARK    5  A    between atoms: C_6  and  C_7 
REMARK    6  A    between atoms: C_7  and  C_8 
REMARK    7  A    between atoms: C_8  and  C_9 
REMARK    8  A    between atoms: C_9  and  C_10 
REMARK    9  A    between atoms: C_10  and  C_11 
REMARK   10  A    between atoms: C_11  and  C_12 
REMARK   11  A    between atoms: C_12  and  O_13 
REMARK   12  A    between atoms: O_13  and  C_14 
REMARK   13  A    between atoms: C_15  and  O_24 
REMARK   14  A    between atoms: C_16  and  O_23 
REMARK   15  A    between atoms: C_17  and  O_22 
REMARK   16  A    between atoms: C_18  and  C_20 
REMARK   17  A    between atoms: C_20  and  O_21 
ROOT
HETATM    1  C   UNL     1     -21.772  -3.293 -10.047  1.00  0.00     0.291 C 
HETATM    2  C   UNL     1     -23.070  -3.807  -9.381  1.00  0.00     0.204 C 
HETATM    3  C   UNL     1     -23.784  -4.789 -10.322  1.00  0.00     0.183 C 
HETATM    4  C   UNL     1     -23.974  -4.204 -11.729  1.00  0.00     0.180 C 
HETATM    5  C   UNL     1     -22.619  -3.715 -12.261  1.00  0.00     0.179 C 
HETATM    6  O   UNL     1     -22.076  -2.734 -11.349  1.00  0.00    -0.348 OA
ENDROOT
BRANCH   1   7
HETATM    7  O   UNL     1     -20.751  -4.288 -10.153  1.00  0.00    -0.359 OA
BRANCH   7   8
HETATM    8  C   UNL     1     -20.631  -5.085  -8.972  1.00  0.00     0.171 C 
BRANCH   8   9
HETATM    9  C   UNL     1     -19.571  -4.511  -8.033  1.00  0.00     0.026 C 
BRANCH   9  10
HETATM   10  C   UNL     1     -20.008  -4.427  -6.570  1.00  0.00     0.002 C 
BRANCH  10  11
HETATM   11  C   UNL     1     -20.406  -5.790  -6.012  1.00  0.00     0.000 C 
BRANCH  11  12
HETATM   12  C   UNL     1     -21.908  -5.893  -5.782  1.00  0.00     0.000 C 
BRANCH  12  13
HETATM   13  C   UNL     1     -22.166  -6.727  -4.533  1.00  0.00     0.000 C 
BRANCH  13  14
HETATM   14  C   UNL     1     -21.429  -6.162  -3.328  1.00  0.00     0.000 C 
BRANCH  14  15
HETATM   15  C   UNL     1     -21.392  -7.200  -2.213  1.00  0.00     0.000 C 
BRANCH  15  16
HETATM   16  C   UNL     1     -22.198  -6.734  -1.010  1.00  0.00     0.000 C 
BRANCH  16  17
HETATM   17  C   UNL     1     -22.095  -7.749   0.126  1.00  0.00    -0.000 C 
BRANCH  17  18
HETATM   18  C   UNL     1     -23.395  -8.535   0.278  1.00  0.00    -0.005 C 
HETATM   19  C   UNL     1     -23.212  -9.977  -0.160  1.00  0.00     0.005 C 
ENDBRANCH  17  18
ENDBRANCH  16  17
ENDBRANCH  15  16
ENDBRANCH  14  15
ENDBRANCH  13  14
ENDBRANCH  12  13
ENDBRANCH  11  12
ENDBRANCH  10  11
ENDBRANCH   9  10
ENDBRANCH   8   9
ENDBRANCH   7   8
ENDBRANCH   1   7
BRANCH   2  20
HETATM   20  O   UNL     1     -23.928  -2.703  -9.030  1.00  0.00    -0.388 OA
HETATM   21  H   UNL     1     -23.781  -2.503  -8.092  1.00  0.00     0.210 HD
ENDBRANCH   2  20
BRANCH   3  22
HETATM   22  O   UNL     1     -25.058  -5.151  -9.774  1.00  0.00    -0.390 OA
HETATM   23  H   UNL     1     -25.170  -6.101 -10.004  1.00  0.00     0.210 HD
ENDBRANCH   3  22
BRANCH   5  24
HETATM   24  C   UNL     1     -22.760  -3.066 -13.650  1.00  0.00     0.198 C 
BRANCH  24  25
HETATM   25  O   UNL     1     -23.728  -3.763 -14.428  1.00  0.00    -0.398 OA
HETATM   26  H   UNL     1     -23.335  -3.875 -15.315  1.00  0.00     0.209 HD
ENDBRANCH  24  25
ENDBRANCH   5  24
BRANCH   4  27
HETATM   27  O   UNL     1     -24.939  -3.137 -11.662  1.00  0.00    -0.390 OA
HETATM   28  H   UNL     1     -25.600  -3.347 -10.974  1.00  0.00     0.210 HD
ENDBRANCH   4  27
TORSDOF 17
BEGIN_RES ARG D 557
REMARK  4 active torsions:
REMARK  status: ('A' for Active; 'I' for Inactive)
REMARK    1  A    between atoms: CA   and  CB  
REMARK    2  A    between atoms: CB   and  CG  
REMARK    3  A    between atoms: CG   and  CD  
REMARK    4  A    between atoms: CD   and  NE  
REMARK       I    between atoms: NE   and  CZ  
REMARK       I    between atoms: CZ   and  NH1 
REMARK       I    between atoms: CZ   and  NH2 
ROOT
ATOM      1  CA  ARG D 557     -26.217   2.705 -17.014  1.00 35.49     0.159 C 
ENDROOT
BRANCH   1   2
ATOM      2  CB  ARG D 557     -26.789   1.319 -17.183  1.00 35.49     0.034 C 
BRANCH   2   3
ATOM      3  CG  ARG D 557     -28.237   1.224 -17.402  1.00 35.49     0.027 C 
BRANCH   3   4
ATOM      4  CD  ARG D 557     -28.890   0.288 -16.459  1.00 35.49     0.116 C 
BRANCH   4   5
ATOM      5  NE  ARG D 557     -29.276  -0.943 -17.097  1.00 35.49    -0.212 N 
ATOM      6  CZ  ARG D 557     -28.642  -2.091 -16.999  1.00 35.49     0.666 C 
ATOM      7  NH1 ARG D 557     -27.538  -2.232 -16.289  1.00 35.49    -0.235 N 
ATOM      8  NH2 ARG D 557     -29.147  -3.111 -17.629  1.00 35.49    -0.235 N 
ATOM      9  HH  ARG D 557     -27.189  -1.575 -15.864  1.00 35.49     0.174 HD
ATOM     10  HH  ARG D 557     -27.170  -3.005 -16.259  1.00 35.49     0.174 HD
ATOM     11  HH  ARG D 557     -29.865  -2.992 -18.073  1.00 35.49     0.174 HD
ATOM     12  HH  ARG D 557     -28.768  -3.869 -17.586  1.00 35.49     0.174 HD
ATOM     13  HE  ARG D 557     -29.936  -0.926 -17.632  1.00 35.49     0.178 HD
ENDBRANCH   4   5
ENDBRANCH   3   4
ENDBRANCH   2   3
ENDBRANCH   1   2
END_RES ARG D 557
BEGIN_RES GLU D 570
REMARK  3 active torsions:
REMARK  status: ('A' for Active; 'I' for Inactive)
REMARK    5  A    between atoms: CA   and  CB  
REMARK    6  A    between atoms: CB   and  CG  
REMARK    7  A    between atoms: CG   and  CD  
ROOT
ATOM     14  CA  GLU D 570     -18.033  -6.348 -13.375  1.00 32.92     0.160 C 
ENDROOT
BRANCH  14  15
ATOM     15  CB  GLU D 570     -19.500  -6.345 -13.794  1.00 32.92     0.043 C 
BRANCH  15  16
ATOM     16  CG  GLU D 570     -19.803  -6.077 -15.224  1.00 32.92     0.100 C 
BRANCH  16  17
ATOM     17  CD  GLU D 570     -21.266  -5.793 -15.473  1.00 32.92     0.185 C 
ATOM     18  OE1 GLU D 570     -22.122  -6.375 -14.780  1.00 32.92    -0.647 OA
ATOM     19  OE2 GLU D 570     -21.560  -4.992 -16.382  1.00 32.92    -0.647 OA
ENDBRANCH  16  17
ENDBRANCH  15  16
ENDBRANCH  14  15
END_RES GLU D 570
ENDMDL
MODEL 3
REMARK VINA RESULT:      -7.0      3.449      6.273
REMARK  17 active torsions:
REMARK  status: ('A' for Active; 'I' for Inactive)
REMARK    1  A    between atoms: C_2  and  C_3 
REMARK    2  A    between atoms: C_3  and  C_4 
REMARK    3  A    between atoms: C_4  and  C_5 
REMARK    4  A    between atoms: C_5  and  C_6 
REMARK    5  A    between atoms: C_6  and  C_7 
REMARK    6  A    between atoms: C_7  and  C_8 
REMARK    7  A    between atoms: C_8  and  C_9 
REMARK    8  A    between atoms: C_9  and  C_10 
REMARK    9  A    between atoms: C_10  and  C_11 
REMARK   10  A    between atoms: C_11  and  C_12 
REMARK   11  A    between atoms: C_12  and  O_13 
REMARK   12  A    between atoms: O_13  and  C_14 
REMARK   13  A    between atoms: C_15  and  O_24 
REMARK   14  A    between atoms: C_16  and  O_23 
REMARK   15  A    between atoms: C_17  and  O_22 
REMARK   16  A    between atoms: C_18  and  C_20 
REMARK   17  A    between atoms: C_20  and  O_21 
ROOT
HETATM    1  C   UNL     1     -27.117  -5.845 -16.012  1.00  0.00     0.291 C 
HETATM    2  C   UNL     1     -28.104  -7.037 -16.051  1.00  0.00     0.204 C 
HETATM    3  C   UNL     1     -29.005  -6.924 -17.290  1.00  0.00     0.183 C 
HETATM    4  C   UNL     1     -29.665  -5.543 -17.400  1.00  0.00     0.180 C 
HETATM    5  C   UNL     1     -28.582  -4.457 -17.326  1.00  0.00     0.179 C 
HETATM    6  O   UNL     1     -27.850  -4.598 -16.087  1.00  0.00    -0.348 OA
ENDROOT
BRANCH   1   7
HETATM    7  O   UNL     1     -26.114  -5.900 -17.028  1.00  0.00    -0.359 OA
BRANCH   7   8
HETATM    8  C   UNL     1     -24.956  -6.635 -16.623  1.00  0.00     0.171 C 
BRANCH   8   9
HETATM    9  C   UNL     1     -24.733  -6.511 -15.116  1.00  0.00     0.026 C 
BRANCH   9  10
HETATM   10  C   UNL     1     -23.441  -5.792 -14.729  1.00  0.00     0.002 C 
BRANCH  10  11
HETATM   11  C   UNL     1     -23.294  -5.651 -13.217  1.00  0.00     0.000 C 
BRANCH  11  12
HETATM   12  C   UNL     1     -22.287  -4.571 -12.842  1.00  0.00     0.000 C 
BRANCH  12  13
HETATM   13  C   UNL     1     -22.325  -4.355 -11.334  1.00  0.00     0.000 C 
BRANCH  13  14
HETATM   14  C   UNL     1     -21.060  -3.670 -10.840  1.00  0.00     0.000 C 
BRANCH  14  15
HETATM   15  C   UNL     1     -20.439  -4.486  -9.713  1.00  0.00     0.000 C 
BRANCH  15  16
HETATM   16  C   UNL     1     -21.458  -4.761  -8.617  1.00  0.00     0.000 C 
BRANCH  16  17
HETATM   17  C   UNL     1     -21.192  -3.870  -7.407  1.00  0.00    -0.000 C 
BRANCH  17  18
HETATM   18  C   UNL     1     -20.329  -4.590  -6.374  1.00  0.00    -0.005 C 
HETATM   19  C   UNL     1     -21.130  -5.651  -5.642  1.00  0.00     0.005 C 
ENDBRANCH  17  18
ENDBRANCH  16  17
ENDBRANCH  15  16
ENDBRANCH  14  15
ENDBRANCH  13  14
ENDBRANCH  12  13
ENDBRANCH  11  12
ENDBRANCH  10  11
ENDBRANCH   9  10
ENDBRANCH   8   9
ENDBRANCH   7   8
ENDBRANCH   1   7
BRANCH   2  20
HETATM   20  O   UNL     1     -28.884  -7.085 -14.841  1.00  0.00    -0.388 OA
HETATM   21  H   UNL     1     -28.385  -6.622 -14.150  1.00  0.00     0.210 HD
ENDBRANCH   2  20
BRANCH   3  22
HETATM   22  O   UNL     1     -30.016  -7.940 -17.251  1.00  0.00    -0.390 OA
HETATM   23  H   UNL     1     -30.613  -7.673 -16.515  1.00  0.00     0.210 HD
ENDBRANCH   3  22
BRANCH   5  24
HETATM   24  C   UNL     1     -29.193  -3.045 -17.375  1.00  0.00     0.198 C 
BRANCH  24  25
HETATM   25  O   UNL     1     -30.498  -3.089 -17.944  1.00  0.00    -0.398 OA
HETATM   26  H   UNL     1     -31.084  -2.624 -17.316  1.00  0.00     0.209 HD
ENDBRANCH  24  25
ENDBRANCH   5  24
BRANCH   4  27
HETATM   27  O   UNL     1     -30.633  -5.405 -16.343  1.00  0.00    -0.390 OA
HETATM   28  H   UNL     1     -31.453  -5.870 -16.598  1.00  0.00     0.210 HD
ENDBRANCH   4  27
TORSDOF 17
BEGIN_RES ARG D 557
REMARK  4 active torsions:
REMARK  status: ('A' for Active; 'I' for Inactive)
REMARK    1  A    between atoms: CA   and  CB  
REMARK    2  A    between atoms: CB   and  CG  
REMARK    3  A    between atoms: CG   and  CD  
REMARK    4  A    between atoms: CD   and  NE  
REMARK       I    between atoms: NE   and  CZ  
REMARK       I    between atoms: CZ   and  NH1 
REMARK       I    between atoms: CZ   and  NH2 
ROOT
ATOM      1  CA  ARG D 557     -26.217   2.705 -17.014  1.00 35.49     0.159 C 
ENDROOT
BRANCH   1   2
ATOM      2  CB  ARG D 557     -26.789   1.319 -17.183  1.00 35.49     0.034 C 
BRANCH   2   3
ATOM      3  CG  ARG D 557     -25.855   0.196 -17.032  1.00 35.49     0.027 C 
BRANCH   3   4
ATOM      4  CD  ARG D 557     -26.272  -0.745 -15.967  1.00 35.49     0.116 C 
BRANCH   4   5
ATOM      5  NE  ARG D 557     -25.253  -0.915 -14.965  1.00 35.49    -0.212 N 
ATOM      6  CZ  ARG D 557     -25.045  -2.003 -14.258  1.00 35.49     0.666 C 
ATOM      7  NH1 ARG D 557     -25.787  -3.087 -14.390  1.00 35.49    -0.235 N 
ATOM      8  NH2 ARG D 557     -24.060  -1.986 -13.407  1.00 35.49    -0.235 N 
ATOM      9  HH  ARG D 557     -26.439  -3.120 -14.945  1.00 35.49     0.174 HD
ATOM     10  HH  ARG D 557     -25.603  -3.767 -13.903  1.00 35.49     0.174 HD
ATOM     11  HH  ARG D 557     -23.593  -1.275 -13.349  1.00 35.49     0.174 HD
ATOM     12  HH  ARG D 557     -23.893  -2.671 -12.936  1.00 35.49     0.174 HD
ATOM     13  HE  ARG D 557     -24.774  -0.241 -14.764  1.00 35.49     0.178 HD
ENDBRANCH   4   5
ENDBRANCH   3   4
ENDBRANCH   2   3
ENDBRANCH   1   2
END_RES ARG D 557
BEGIN_RES GLU D 570
REMARK  3 active torsions:
REMARK  status: ('A' for Active; 'I' for Inactive)
REMARK    5  A    between atoms: CA   and  CB  
REMARK    6  A    between atoms: CB   and  CG  
REMARK    7  A    between atoms: CG   and  CD  
ROOT
ATOM     14  CA  GLU D 570     -18.033  -6.348 -13.375  1.00 32.92     0.160 C 
ENDROOT
BRANCH  14  15
ATOM     15  CB  GLU D 570     -19.500  -6.345 -13.794  1.00 32.92     0.043 C 
BRANCH  15  16
ATOM     16  CG  GLU D 570     -20.087  -7.635 -14.240  1.00 32.92     0.100 C 
BRANCH  16  17
ATOM     17  CD  GLU D 570     -20.602  -7.588 -15.660  1.00 32.92     0.185 C 
ATOM     18  OE1 GLU D 570     -21.181  -8.588 -16.127  1.00 32.92    -0.647 OA
ATOM     19  OE2 GLU D 570     -20.409  -6.547 -16.318  1.00 32.92    -0.647 OA
ENDBRANCH  16  17
ENDBRANCH  15  16
ENDBRANCH  14  15
END_RES GLU D 570
ENDMDL
MODEL 4
REMARK VINA RESULT:      -6.5      1.630      3.487
REMARK  17 active torsions:
REMARK  status: ('A' for Active; 'I' for Inactive)
REMARK    1  A    between atoms: C_2  and  C_3 
REMARK    2  A    between atoms: C_3  and  C_4 
REMARK    3  A    between atoms: C_4  and  C_5 
REMARK    4  A    between atoms: C_5  and  C_6 
REMARK    5  A    between atoms: C_6  and  C_7 
REMARK    6  A    between atoms: C_7  and  C_8 
REMARK    7  A    between atoms: C_8  and  C_9 
REMARK    8  A    between atoms: C_9  and  C_10 
REMARK    9  A    between atoms: C_10  and  C_11 
REMARK   10  A    between atoms: C_11  and  C_12 
REMARK   11  A    between atoms: C_12  and  O_13 
REMARK   12  A    between atoms: O_13  and  C_14 
REMARK   13  A    between atoms: C_15  and  O_24 
REMARK   14  A    between atoms: C_16  and  O_23 
REMARK   15  A    between atoms: C_17  and  O_22 
REMARK   16  A    between atoms: C_18  and  C_20 
REMARK   17  A    between atoms: C_20  and  O_21 
ROOT
HETATM    1  C   UNL     1     -22.168  -3.787  -8.356  1.00  0.00     0.291 C 
HETATM    2  C   UNL     1     -23.665  -4.142  -8.520  1.00  0.00     0.204 C 
HETATM    3  C   UNL     1     -23.847  -5.086  -9.719  1.00  0.00     0.183 C 
HETATM    4  C   UNL     1     -23.175  -4.542 -10.987  1.00  0.00     0.180 C 
HETATM    5  C   UNL     1     -21.707  -4.211 -10.681  1.00  0.00     0.179 C 
HETATM    6  O   UNL     1     -21.651  -3.253  -9.600  1.00  0.00    -0.348 OA
ENDROOT
BRANCH   1   7
HETATM    7  O   UNL     1     -21.367  -4.881  -7.906  1.00  0.00    -0.359 OA
BRANCH   7   8
HETATM    8  C   UNL     1     -20.226  -4.459  -7.155  1.00  0.00     0.171 C 
BRANCH   8   9
HETATM    9  C   UNL     1     -20.340  -4.904  -5.697  1.00  0.00     0.026 C 
BRANCH   9  10
HETATM   10  C   UNL     1     -20.782  -6.356  -5.516  1.00  0.00     0.002 C 
BRANCH  10  11
HETATM   11  C   UNL     1     -21.784  -6.513  -4.377  1.00  0.00     0.000 C 
BRANCH  11  12
HETATM   12  C   UNL     1     -21.249  -5.948  -3.067  1.00  0.00     0.000 C 
BRANCH  12  13
HETATM   13  C   UNL     1     -22.210  -6.306  -1.940  1.00  0.00     0.000 C 
BRANCH  13  14
HETATM   14  C   UNL     1     -21.657  -7.430  -1.076  1.00  0.00     0.000 C 
BRANCH  14  15
HETATM   15  C   UNL     1     -22.706  -7.860  -0.058  1.00  0.00     0.000 C 
BRANCH  15  16
HETATM   16  C   UNL     1     -22.861  -9.374  -0.045  1.00  0.00     0.000 C 
BRANCH  16  17
HETATM   17  C   UNL     1     -22.306  -9.977  -1.333  1.00  0.00    -0.000 C 
BRANCH  17  18
HETATM   18  C   UNL     1     -23.141 -11.174  -1.783  1.00  0.00    -0.005 C 
HETATM   19  C   UNL     1     -24.199 -11.516  -0.750  1.00  0.00     0.005 C 
ENDBRANCH  17  18
ENDBRANCH  16  17
ENDBRANCH  15  16
ENDBRANCH  14  15
ENDBRANCH  13  14
ENDBRANCH  12  13
ENDBRANCH  11  12
ENDBRANCH  10  11
ENDBRANCH   9  10
ENDBRANCH   8   9
ENDBRANCH   7   8
ENDBRANCH   1   7
BRANCH   2  20
HETATM   20  O   UNL     1     -24.454  -2.946  -8.673  1.00  0.00    -0.388 OA
HETATM   21  H   UNL     1     -23.901  -2.193  -8.414  1.00  0.00     0.210 HD
ENDBRANCH   2  20
BRANCH   3  22
HETATM   22  O   UNL     1     -25.243  -5.298  -9.965  1.00  0.00    -0.390 OA
HETATM   23  H   UNL     1     -25.542  -4.486 -10.436  1.00  0.00     0.210 HD
ENDBRANCH   3  22
BRANCH   5  24
HETATM   24  C   UNL     1     -20.997  -3.608 -11.905  1.00  0.00     0.198 C 
BRANCH  24  25
HETATM   25  O   UNL     1     -21.793  -3.777 -13.074  1.00  0.00    -0.398 OA
HETATM   26  H   UNL     1     -21.592  -4.671 -13.413  1.00  0.00     0.209 HD
ENDBRANCH  24  25
ENDBRANCH   5  24
BRANCH   4  27
HETATM   27  O   UNL     1     -23.901  -3.383 -11.438  1.00  0.00    -0.390 OA
HETATM   28  H   UNL     1     -24.717  -3.292 -10.909  1.00  0.00     0.210 HD
ENDBRANCH   4  27
TORSDOF 17
BEGIN_RES ARG D 557
REMARK  4 active torsions:
REMARK  status: ('A' for Active; 'I' for Inactive)
REMARK    1  A    between atoms: CA   and  CB  
REMARK    2  A    between atoms: CB   and  CG  
REMARK    3  A    between atoms: CG   and  CD  
REMARK    4  A    between atoms: CD   and  NE  
REMARK       I    between atoms: NE   and  CZ  
REMARK       I    between atoms: CZ   and  NH1 
REMARK       I    between atoms: CZ   and  NH2 
ROOT
ATOM      1  CA  ARG D 557     -26.217   2.705 -17.014  1.00 35.49     0.159 C 
ENDROOT
BRANCH   1   2
ATOM      2  CB  ARG D 557     -26.789   1.319 -17.183  1.00 35.49     0.034 C 
BRANCH   2   3
ATOM      3  CG  ARG D 557     -28.231   1.227 -17.444  1.00 35.49     0.027 C 
BRANCH   3   4
ATOM      4  CD  ARG D 557     -28.917   0.310 -16.506  1.00 35.49     0.116 C 
BRANCH   4   5
ATOM      5  NE  ARG D 557     -29.286  -0.932 -17.133  1.00 35.49    -0.212 N 
ATOM      6  CZ  ARG D 557     -28.640  -2.071 -17.021  1.00 35.49     0.666 C 
ATOM      7  NH1 ARG D 557     -27.537  -2.193 -16.307  1.00 35.49    -0.235 N 
ATOM      8  NH2 ARG D 557     -29.132  -3.103 -17.643  1.00 35.49    -0.235 N 
ATOM      9  HH  ARG D 557     -27.197  -1.528 -15.888  1.00 35.49     0.174 HD
ATOM     10  HH  ARG D 557     -27.160  -2.962 -16.269  1.00 35.49     0.174 HD
ATOM     11  HH  ARG D 557     -29.850  -2.996 -18.091  1.00 35.49     0.174 HD
ATOM     12  HH  ARG D 557     -28.745  -3.856 -17.592  1.00 35.49     0.174 HD
ATOM     13  HE  ARG D 557     -29.945  -0.927 -17.671  1.00 35.49     0.178 HD
ENDBRANCH   4   5
ENDBRANCH   3   4
ENDBRANCH   2   3
ENDBRANCH   1   2
END_RES ARG D 557
BEGIN_RES GLU D 570
REMARK  3 active torsions:
REMARK  status: ('A' for Active; 'I' for Inactive)
REMARK    5  A    between atoms: CA   and  CB  
REMARK    6  A    between atoms: CB   and  CG  
REMARK    7  A    between atoms: CG   and  CD  
ROOT
ATOM     14  CA  GLU D 570     -18.033  -6.348 -13.375  1.00 32.92     0.160 C 
ENDROOT
BRANCH  14  15
ATOM     15  CB  GLU D 570     -19.500  -6.345 -13.794  1.00 32.92     0.043 C 
BRANCH  15  16
ATOM     16  CG  GLU D 570     -19.796  -6.390 -15.249  1.00 32.92     0.100 C 
BRANCH  16  17
ATOM     17  CD  GLU D 570     -21.241  -6.080 -15.566  1.00 32.92     0.185 C 
ATOM     18  OE1 GLU D 570     -22.068  -7.011 -15.593  1.00 32.92    -0.647 OA
ATOM     19  OE2 GLU D 570     -21.545  -4.895 -15.808  1.00 32.92    -0.647 OA
ENDBRANCH  16  17
ENDBRANCH  15  16
ENDBRANCH  14  15
END_RES GLU D 570
ENDMDL
MODEL 5
REMARK VINA RESULT:      -6.4      3.362      6.333
REMARK  17 active torsions:
REMARK  status: ('A' for Active; 'I' for Inactive)
REMARK    1  A    between atoms: C_2  and  C_3 
REMARK    2  A    between atoms: C_3  and  C_4 
REMARK    3  A    between atoms: C_4  and  C_5 
REMARK    4  A    between atoms: C_5  and  C_6 
REMARK    5  A    between atoms: C_6  and  C_7 
REMARK    6  A    between atoms: C_7  and  C_8 
REMARK    7  A    between atoms: C_8  and  C_9 
REMARK    8  A    between atoms: C_9  and  C_10 
REMARK    9  A    between atoms: C_10  and  C_11 
REMARK   10  A    between atoms: C_11  and  C_12 
REMARK   11  A    between atoms: C_12  and  O_13 
REMARK   12  A    between atoms: O_13  and  C_14 
REMARK   13  A    between atoms: C_15  and  O_24 
REMARK   14  A    between atoms: C_16  and  O_23 
REMARK   15  A    between atoms: C_17  and  O_22 
REMARK   16  A    between atoms: C_18  and  C_20 
REMARK   17  A    between atoms: C_20  and  O_21 
ROOT
HETATM    1  C   UNL     1     -26.795  -6.175 -15.872  1.00  0.00     0.291 C 
HETATM    2  C   UNL     1     -28.288  -6.451 -15.576  1.00  0.00     0.204 C 
HETATM    3  C   UNL     1     -28.880  -7.342 -16.679  1.00  0.00     0.183 C 
HETATM    4  C   UNL     1     -28.597  -6.787 -18.082  1.00  0.00     0.180 C 
HETATM    5  C   UNL     1     -27.089  -6.539 -18.234  1.00  0.00     0.179 C 
HETATM    6  O   UNL     1     -26.652  -5.624 -17.204  1.00  0.00    -0.348 OA
ENDROOT
BRANCH   1   7
HETATM    7  O   UNL     1     -25.958  -7.322 -15.710  1.00  0.00    -0.359 OA
BRANCH   7   8
HETATM    8  C   UNL     1     -24.581  -6.982 -15.531  1.00  0.00     0.171 C 
BRANCH   8   9
HETATM    9  C   UNL     1     -24.440  -5.666 -14.767  1.00  0.00     0.026 C 
BRANCH   9  10
HETATM   10  C   UNL     1     -23.268  -5.631 -13.787  1.00  0.00     0.002 C 
BRANCH  10  11
HETATM   11  C   UNL     1     -23.716  -5.284 -12.370  1.00  0.00     0.000 C 
BRANCH  11  12
HETATM   12  C   UNL     1     -23.176  -3.933 -11.920  1.00  0.00     0.000 C 
BRANCH  12  13
HETATM   13  C   UNL     1     -21.743  -3.777 -12.416  1.00  0.00     0.000 C 
BRANCH  13  14
HETATM   14  C   UNL     1     -20.819  -3.310 -11.301  1.00  0.00     0.000 C 
BRANCH  14  15
HETATM   15  C   UNL     1     -20.419  -4.496 -10.432  1.00  0.00     0.000 C 
BRANCH  15  16
HETATM   16  C   UNL     1     -20.506  -4.142  -8.955  1.00  0.00     0.000 C 
BRANCH  16  17
HETATM   17  C   UNL     1     -21.927  -4.355  -8.439  1.00  0.00    -0.000 C 
BRANCH  17  18
HETATM   18  C   UNL     1     -21.919  -4.851  -6.995  1.00  0.00    -0.005 C 
HETATM   19  C   UNL     1     -20.977  -6.030  -6.833  1.00  0.00     0.005 C 
ENDBRANCH  17  18
ENDBRANCH  16  17
ENDBRANCH  15  16
ENDBRANCH  14  15
ENDBRANCH  13  14
ENDBRANCH  12  13
ENDBRANCH  11  12
ENDBRANCH  10  11
ENDBRANCH   9  10
ENDBRANCH   8   9
ENDBRANCH   7   8
ENDBRANCH   1   7
BRANCH   2  20
HETATM   20  O   UNL     1     -29.017  -5.214 -15.458  1.00  0.00    -0.388 OA
HETATM   21  H   UNL     1     -29.918  -5.429 -15.172  1.00  0.00     0.210 HD
ENDBRANCH   2  20
BRANCH   3  22
HETATM   22  O   UNL     1     -30.295  -7.478 -16.490  1.00  0.00    -0.390 OA
HETATM   23  H   UNL     1     -30.507  -8.382 -16.816  1.00  0.00     0.210 HD
ENDBRANCH   3  22
BRANCH   5  24
HETATM   24  C   UNL     1     -26.753  -5.928 -19.605  1.00  0.00     0.198 C 
BRANCH  24  25
HETATM   25  O   UNL     1     -26.444  -6.954 -20.544  1.00  0.00    -0.398 OA
HETATM   26  H   UNL     1     -26.029  -6.507 -21.307  1.00  0.00     0.209 HD
ENDBRANCH  24  25
ENDBRANCH   5  24
BRANCH   4  27
HETATM   27  O   UNL     1     -29.359  -5.579 -18.266  1.00  0.00    -0.390 OA
HETATM   28  H   UNL     1     -29.161  -4.962 -17.535  1.00  0.00     0.210 HD
ENDBRANCH   4  27
TORSDOF 17
BEGIN_RES ARG D 557
REMARK  4 active torsions:
REMARK  status: ('A' for Active; 'I' for Inactive)
REMARK    1  A    between atoms: CA   and  CB  
REMARK    2  A    between atoms: CB   and  CG  
REMARK    3  A    between atoms: CG   and  CD  
REMARK    4  A    between atoms: CD   and  NE  
REMARK       I    between atoms: NE   and  CZ  
REMARK       I    between atoms: CZ   and  NH1 
REMARK       I    between atoms: CZ   and  NH2 
ROOT
ATOM      1  CA  ARG D 557     -26.217   2.705 -17.014  1.00 35.49     0.159 C 
ENDROOT
BRANCH   1   2
ATOM      2  CB  ARG D 557     -26.789   1.319 -17.183  1.00 35.49     0.034 C 
BRANCH   2   3
ATOM      3  CG  ARG D 557     -28.247   1.189 -17.077  1.00 35.49     0.027 C 
BRANCH   3   4
ATOM      4  CD  ARG D 557     -28.678  -0.219 -16.917  1.00 35.49     0.116 C 
BRANCH   4   5
ATOM      5  NE  ARG D 557     -27.726  -0.995 -16.166  1.00 35.49    -0.212 N 
ATOM      6  CZ  ARG D 557     -27.553  -2.295 -16.257  1.00 35.49     0.666 C 
ATOM      7  NH1 ARG D 557     -28.270  -3.051 -17.067  1.00 35.49    -0.235 N 
ATOM      8  NH2 ARG D 557     -26.628  -2.830 -15.514  1.00 35.49    -0.235 N 
ATOM      9  HH  ARG D 557     -28.883  -2.720 -17.566  1.00 35.49     0.174 HD
ATOM     10  HH  ARG D 557     -28.111  -3.893 -17.086  1.00 35.49     0.174 HD
ATOM     11  HH  ARG D 557     -26.175  -2.316 -15.006  1.00 35.49     0.174 HD
ATOM     12  HH  ARG D 557     -26.484  -3.665 -15.548  1.00 35.49     0.174 HD
ATOM     13  HE  ARG D 557     -27.272  -0.599 -15.567  1.00 35.49     0.178 HD
ENDBRANCH   4   5
ENDBRANCH   3   4
ENDBRANCH   2   3
ENDBRANCH   1   2
END_RES ARG D 557
BEGIN_RES GLU D 570
REMARK  3 active torsions:
REMARK  status: ('A' for Active; 'I' for Inactive)
REMARK    5  A    between atoms: CA   and  CB  
REMARK    6  A    between atoms: CB   and  CG  
REMARK    7  A    between atoms: CG   and  CD  
ROOT
ATOM     14  CA  GLU D 570     -18.033  -6.348 -13.375  1.00 32.92     0.160 C 
ENDROOT
BRANCH  14  15
ATOM     15  CB  GLU D 570     -19.500  -6.345 -13.794  1.00 32.92     0.043 C 
BRANCH  15  16
ATOM     16  CG  GLU D 570     -19.806  -6.035 -15.215  1.00 32.92     0.100 C 
BRANCH  16  17
ATOM     17  CD  GLU D 570     -20.671  -7.083 -15.874  1.00 32.92     0.185 C 
ATOM     18  OE1 GLU D 570     -20.707  -8.230 -15.388  1.00 32.92    -0.647 OA
ATOM     19  OE2 GLU D 570     -21.305  -6.759 -16.897  1.00 32.92    -0.647 OA
ENDBRANCH  16  17
ENDBRANCH  15  16
ENDBRANCH  14  15
END_RES GLU D 570
ENDMDL
MODEL 6
REMARK VINA RESULT:      -6.3      2.309      4.387
REMARK  17 active torsions:
REMARK  status: ('A' for Active; 'I' for Inactive)
REMARK    1  A    between atoms: C_2  and  C_3 
REMARK    2  A    between atoms: C_3  and  C_4 
REMARK    3  A    between atoms: C_4  and  C_5 
REMARK    4  A    between atoms: C_5  and  C_6 
REMARK    5  A    between atoms: C_6  and  C_7 
REMARK    6  A    between atoms: C_7  and  C_8 
REMARK    7  A    between atoms: C_8  and  C_9 
REMARK    8  A    between atoms: C_9  and  C_10 
REMARK    9  A    between atoms: C_10  and  C_11 
REMARK   10  A    between atoms: C_11  and  C_12 
REMARK   11  A    between atoms: C_12  and  O_13 
REMARK   12  A    between atoms: O_13  and  C_14 
REMARK   13  A    between atoms: C_15  and  O_24 
REMARK   14  A    between atoms: C_16  and  O_23 
REMARK   15  A    between atoms: C_17  and  O_22 
REMARK   16  A    between atoms: C_18  and  C_20 
REMARK   17  A    between atoms: C_20  and  O_21 
ROOT
HETATM    1  C   UNL     1     -23.173  -4.106  -7.559  1.00  0.00     0.291 C 
HETATM    2  C   UNL     1     -24.106  -4.057  -8.792  1.00  0.00     0.204 C 
HETATM    3  C   UNL     1     -23.482  -4.855  -9.948  1.00  0.00     0.183 C 
HETATM    4  C   UNL     1     -22.033  -4.431 -10.224  1.00  0.00     0.180 C 
HETATM    5  C   UNL     1     -21.226  -4.504  -8.919  1.00  0.00     0.179 C 
HETATM    6  O   UNL     1     -21.847  -3.654  -7.928  1.00  0.00    -0.348 OA
ENDROOT
BRANCH   1   7
HETATM    7  O   UNL     1     -23.111  -5.392  -6.939  1.00  0.00    -0.359 OA
BRANCH   7   8
HETATM    8  C   UNL     1     -22.073  -5.486  -5.960  1.00  0.00     0.171 C 
BRANCH   8   9
HETATM    9  C   UNL     1     -22.356  -6.618  -4.974  1.00  0.00     0.026 C 
BRANCH   9  10
HETATM   10  C   UNL     1     -21.304  -7.728  -4.973  1.00  0.00     0.002 C 
BRANCH  10  11
HETATM   11  C   UNL     1     -20.951  -8.182  -3.561  1.00  0.00     0.000 C 
BRANCH  11  12
HETATM   12  C   UNL     1     -21.501  -7.233  -2.504  1.00  0.00     0.000 C 
BRANCH  12  13
HETATM   13  C   UNL     1     -21.280  -7.840  -1.124  1.00  0.00     0.000 C 
BRANCH  13  14
HETATM   14  C   UNL     1     -22.244  -7.256  -0.101  1.00  0.00     0.000 C 
BRANCH  14  15
HETATM   15  C   UNL     1     -23.237  -8.325   0.338  1.00  0.00     0.000 C 
BRANCH  15  16
HETATM   16  C   UNL     1     -22.902  -9.670  -0.290  1.00  0.00     0.000 C 
BRANCH  16  17
HETATM   17  C   UNL     1     -24.010 -10.681  -0.006  1.00  0.00    -0.000 C 
BRANCH  17  18
HETATM   18  C   UNL     1     -24.067 -11.752  -1.093  1.00  0.00    -0.005 C 
HETATM   19  C   UNL     1     -23.063 -11.461  -2.194  1.00  0.00     0.005 C 
ENDBRANCH  17  18
ENDBRANCH  16  17
ENDBRANCH  15  16
ENDBRANCH  14  15
ENDBRANCH  13  14
ENDBRANCH  12  13
ENDBRANCH  11  12
ENDBRANCH  10  11
ENDBRANCH   9  10
ENDBRANCH   8   9
ENDBRANCH   7   8
ENDBRANCH   1   7
BRANCH   2  20
HETATM   20  O   UNL     1     -24.361  -2.693  -9.178  1.00  0.00    -0.388 OA
HETATM   21  H   UNL     1     -23.528  -2.318  -9.504  1.00  0.00     0.210 HD
ENDBRANCH   2  20
BRANCH   3  22
HETATM   22  O   UNL     1     -24.268  -4.689 -11.135  1.00  0.00    -0.390 OA
HETATM   23  H   UNL     1     -23.613  -4.504 -11.846  1.00  0.00     0.210 HD
ENDBRANCH   3  22
BRANCH   5  24
HETATM   24  C   UNL     1     -19.775  -4.035  -9.126  1.00  0.00     0.198 C 
BRANCH  24  25
HETATM   25  O   UNL     1     -19.049  -4.111  -7.903  1.00  0.00    -0.398 OA
HETATM   26  H   UNL     1     -19.220  -5.003  -7.541  1.00  0.00     0.209 HD
ENDBRANCH  24  25
ENDBRANCH   5  24
BRANCH   4  27
HETATM   27  O   UNL     1     -22.035  -3.101 -10.778  1.00  0.00    -0.390 OA
HETATM   28  H   UNL     1     -22.822  -2.993 -11.345  1.00  0.00     0.210 HD
ENDBRANCH   4  27
TORSDOF 17
BEGIN_RES ARG D 557
REMARK  4 active torsions:
REMARK  status: ('A' for Active; 'I' for Inactive)
REMARK    1  A    between atoms: CA   and  CB  
REMARK    2  A    between atoms: CB   and  CG  
REMARK    3  A    between atoms: CG   and  CD  
REMARK    4  A    between atoms: CD   and  NE  
REMARK       I    between atoms: NE   and  CZ  
REMARK       I    between atoms: CZ   and  NH1 
REMARK       I    between atoms: CZ   and  NH2 
ROOT
ATOM      1  CA  ARG D 557     -26.217   2.705 -17.014  1.00 35.49     0.159 C 
ENDROOT
BRANCH   1   2
ATOM      2  CB  ARG D 557     -26.789   1.319 -17.183  1.00 35.49     0.034 C 
BRANCH   2   3
ATOM      3  CG  ARG D 557     -25.846   0.198 -17.081  1.00 35.49     0.027 C 
BRANCH   3   4
ATOM      4  CD  ARG D 557     -24.849   0.396 -16.005  1.00 35.49     0.116 C 
BRANCH   4   5
ATOM      5  NE  ARG D 557     -25.038  -0.522 -14.913  1.00 35.49    -0.212 N 
ATOM      6  CZ  ARG D 557     -24.242  -1.521 -14.603  1.00 35.49     0.666 C 
ATOM      7  NH1 ARG D 557     -23.154  -1.802 -15.296  1.00 35.49    -0.235 N 
ATOM      8  NH2 ARG D 557     -24.558  -2.241 -13.566  1.00 35.49    -0.235 N 
ATOM      9  HH  ARG D 557     -22.926  -1.341 -15.981  1.00 35.49     0.174 HD
ATOM     10  HH  ARG D 557     -22.672  -2.464 -15.045  1.00 35.49     0.174 HD
ATOM     11  HH  ARG D 557     -25.263  -2.031 -13.133  1.00 35.49     0.174 HD
ATOM     12  HH  ARG D 557     -24.067  -2.891 -13.332  1.00 35.49     0.174 HD
ATOM     13  HE  ARG D 557     -25.754  -0.459 -14.458  1.00 35.49     0.178 HD
ENDBRANCH   4   5
ENDBRANCH   3   4
ENDBRANCH   2   3
ENDBRANCH   1   2
END_RES ARG D 557
BEGIN_RES GLU D 570
REMARK  3 active torsions:
REMARK  status: ('A' for Active; 'I' for Inactive)
REMARK    5  A    between atoms: CA   and  CB  
REMARK    6  A    between atoms: CB   and  CG  
REMARK    7  A    between atoms: CG   and  CD  
ROOT
ATOM     14  CA  GLU D 570     -18.033  -6.348 -13.375  1.00 32.92     0.160 C 
ENDROOT
BRANCH  14  15
ATOM     15  CB  GLU D 570     -19.500  -6.345 -13.794  1.00 32.92     0.043 C 
BRANCH  15  16
ATOM     16  CG  GLU D 570     -20.410  -5.402 -13.093  1.00 32.92     0.100 C 
BRANCH  16  17
ATOM     17  CD  GLU D 570     -21.543  -4.917 -13.968  1.00 32.92     0.185 C 
ATOM     18  OE1 GLU D 570     -21.433  -5.006 -15.206  1.00 32.92    -0.647 OA
ATOM     19  OE2 GLU D 570     -22.545  -4.428 -13.409  1.00 32.92    -0.647 OA
ENDBRANCH  16  17
ENDBRANCH  15  16
ENDBRANCH  14  15
END_RES GLU D 570
ENDMDL
MODEL 7
REMARK VINA RESULT:      -6.2      7.886     12.129
REMARK  17 active torsions:
REMARK  status: ('A' for Active; 'I' for Inactive)
REMARK    1  A    between atoms: C_2  and  C_3 
REMARK    2  A    between atoms: C_3  and  C_4 
REMARK    3  A    between atoms: C_4  and  C_5 
REMARK    4  A    between atoms: C_5  and  C_6 
REMARK    5  A    between atoms: C_6  and  C_7 
REMARK    6  A    between atoms: C_7  and  C_8 
REMARK    7  A    between atoms: C_8  and  C_9 
REMARK    8  A    between atoms: C_9  and  C_10 
REMARK    9  A    between atoms: C_10  and  C_11 
REMARK   10  A    between atoms: C_11  and  C_12 
REMARK   11  A    between atoms: C_12  and  O_13 
REMARK   12  A    between atoms: O_13  and  C_14 
REMARK   13  A    between atoms: C_15  and  O_24 
REMARK   14  A    between atoms: C_16  and  O_23 
REMARK   15  A    between atoms: C_17  and  O_22 
REMARK   16  A    between atoms: C_18  and  C_20 
REMARK   17  A    between atoms: C_20  and  O_21 
ROOT
HETATM    1  C   UNL     1     -35.818  -0.571 -13.312  1.00  0.00     0.291 C 
HETATM    2  C   UNL     1     -35.714   0.838 -13.943  1.00  0.00     0.204 C 
HETATM    3  C   UNL     1     -36.179   0.787 -15.406  1.00  0.00     0.183 C 
HETATM    4  C   UNL     1     -35.473  -0.323 -16.197  1.00  0.00     0.180 C 
HETATM    5  C   UNL     1     -35.635  -1.657 -15.453  1.00  0.00     0.179 C 
HETATM    6  O   UNL     1     -35.089  -1.527 -14.120  1.00  0.00    -0.348 OA
ENDROOT
BRANCH   1   7
HETATM    7  O   UNL     1     -37.163  -1.007 -13.106  1.00  0.00    -0.359 OA
BRANCH   7   8
HETATM    8  C   UNL     1     -37.834  -0.269 -12.082  1.00  0.00     0.171 C 
BRANCH   8   9
HETATM    9  C   UNL     1     -36.922  -0.064 -10.872  1.00  0.00     0.026 C 
BRANCH   9  10
HETATM   10  C   UNL     1     -36.828  -1.276  -9.945  1.00  0.00     0.002 C 
BRANCH  10  11
HETATM   11  C   UNL     1     -35.755  -2.261 -10.397  1.00  0.00     0.000 C 
BRANCH  11  12
HETATM   12  C   UNL     1     -34.366  -1.841  -9.934  1.00  0.00     0.000 C 
BRANCH  12  13
HETATM   13  C   UNL     1     -33.328  -2.402 -10.900  1.00  0.00     0.000 C 
BRANCH  13  14
HETATM   14  C   UNL     1     -33.876  -3.593 -11.672  1.00  0.00     0.000 C 
BRANCH  14  15
HETATM   15  C   UNL     1     -32.798  -4.663 -11.799  1.00  0.00     0.000 C 
BRANCH  15  16
HETATM   16  C   UNL     1     -33.240  -5.960 -11.137  1.00  0.00     0.000 C 
BRANCH  16  17
HETATM   17  C   UNL     1     -34.653  -5.818 -10.578  1.00  0.00    -0.000 C 
BRANCH  17  18
HETATM   18  C   UNL     1     -34.987  -6.969  -9.632  1.00  0.00    -0.005 C 
HETATM   19  C   UNL     1     -34.253  -8.234 -10.037  1.00  0.00     0.005 C 
ENDBRANCH  17  18
ENDBRANCH  16  17
ENDBRANCH  15  16
ENDBRANCH  14  15
ENDBRANCH  13  14
ENDBRANCH  12  13
ENDBRANCH  11  12
ENDBRANCH  10  11
ENDBRANCH   9  10
ENDBRANCH   8   9
ENDBRANCH   7   8
ENDBRANCH   1   7
BRANCH   2  20
HETATM   20  O   UNL     1     -34.366   1.339 -13.841  1.00  0.00    -0.388 OA
HETATM   21  H   UNL     1     -33.848   0.690 -13.341  1.00  0.00     0.210 HD
ENDBRANCH   2  20
BRANCH   3  22
HETATM   22  O   UNL     1     -35.945   2.053 -16.037  1.00  0.00    -0.390 OA
HETATM   23  H   UNL     1     -36.653   2.642 -15.690  1.00  0.00     0.210 HD
ENDBRANCH   3  22
BRANCH   5  24
HETATM   24  C   UNL     1     -34.897  -2.799 -16.174  1.00  0.00     0.198 C 
BRANCH  24  25
HETATM   25  O   UNL     1     -34.416  -3.753 -15.231  1.00  0.00    -0.398 OA
HETATM   26  H   UNL     1     -34.373  -4.605 -15.706  1.00  0.00     0.209 HD
ENDBRANCH  24  25
ENDBRANCH   5  24
BRANCH   4  27
HETATM   27  O   UNL     1     -34.087   0.032 -16.362  1.00  0.00    -0.390 OA
HETATM   28  H   UNL     1     -33.891   0.117 -17.316  1.00  0.00     0.210 HD
ENDBRANCH   4  27
TORSDOF 17
BEGIN_RES ARG D 557
REMARK  4 active torsions:
REMARK  status: ('A' for Active; 'I' for Inactive)
REMARK    1  A    between atoms: CA   and  CB  
REMARK    2  A    between atoms: CB   and  CG  
REMARK    3  A    between atoms: CG   and  CD  
REMARK    4  A    between atoms: CD   and  NE  
REMARK       I    between atoms: NE   and  CZ  
REMARK       I    between atoms: CZ   and  NH1 
REMARK       I    between atoms: CZ   and  NH2 
ROOT
ATOM      1  CA  ARG D 557     -26.217   2.705 -17.014  1.00 35.49     0.159 C 
ENDROOT
BRANCH   1   2
ATOM      2  CB  ARG D 557     -26.789   1.319 -17.183  1.00 35.49     0.034 C 
BRANCH   2   3
ATOM      3  CG  ARG D 557     -28.235   1.225 -17.421  1.00 35.49     0.027 C 
BRANCH   3   4
ATOM      4  CD  ARG D 557     -28.901   0.290 -16.486  1.00 35.49     0.116 C 
BRANCH   4   5
ATOM      5  NE  ARG D 557     -29.266  -0.947 -17.125  1.00 35.49    -0.212 N 
ATOM      6  CZ  ARG D 557     -28.627  -2.089 -17.011  1.00 35.49     0.666 C 
ATOM      7  NH1 ARG D 557     -27.535  -2.221 -16.280  1.00 35.49    -0.235 N 
ATOM      8  NH2 ARG D 557     -29.114  -3.116 -17.645  1.00 35.49    -0.235 N 
ATOM      9  HH  ARG D 557     -27.199  -1.559 -15.852  1.00 35.49     0.174 HD
ATOM     10  HH  ARG D 557     -27.162  -2.991 -16.241  1.00 35.49     0.174 HD
ATOM     11  HH  ARG D 557     -29.825  -3.003 -18.103  1.00 35.49     0.174 HD
ATOM     12  HH  ARG D 557     -28.731  -3.871 -17.592  1.00 35.49     0.174 HD
ATOM     13  HE  ARG D 557     -29.917  -0.936 -17.673  1.00 35.49     0.178 HD
ENDBRANCH   4   5
ENDBRANCH   3   4
ENDBRANCH   2   3
ENDBRANCH   1   2
END_RES ARG D 557
BEGIN_RES GLU D 570
REMARK  3 active torsions:
REMARK  status: ('A' for Active; 'I' for Inactive)
REMARK    5  A    between atoms: CA   and  CB  
REMARK    6  A    between atoms: CB   and  CG  
REMARK    7  A    between atoms: CG   and  CD  
ROOT
ATOM     14  CA  GLU D 570     -18.033  -6.348 -13.375  1.00 32.92     0.160 C 
ENDROOT
BRANCH  14  15
ATOM     15  CB  GLU D 570     -19.500  -6.345 -13.794  1.00 32.92     0.043 C 
BRANCH  15  16
ATOM     16  CG  GLU D 570     -20.450  -5.571 -12.954  1.00 32.92     0.100 C 
BRANCH  16  17
ATOM     17  CD  GLU D 570     -21.699  -5.163 -13.700  1.00 32.92     0.185 C 
ATOM     18  OE1 GLU D 570     -21.793  -5.429 -14.914  1.00 32.92    -0.647 OA
ATOM     19  OE2 GLU D 570     -22.585  -4.555 -13.068  1.00 32.92    -0.647 OA
ENDBRANCH  16  17
ENDBRANCH  15  16
ENDBRANCH  14  15
END_RES GLU D 570
ENDMDL
MODEL 8
REMARK VINA RESULT:      -6.1      3.043      5.919
REMARK  17 active torsions:
REMARK  status: ('A' for Active; 'I' for Inactive)
REMARK    1  A    between atoms: C_2  and  C_3 
REMARK    2  A    between atoms: C_3  and  C_4 
REMARK    3  A    between atoms: C_4  and  C_5 
REMARK    4  A    between atoms: C_5  and  C_6 
REMARK    5  A    between atoms: C_6  and  C_7 
REMARK    6  A    between atoms: C_7  and  C_8 
REMARK    7  A    between atoms: C_8  and  C_9 
REMARK    8  A    between atoms: C_9  and  C_10 
REMARK    9  A    between atoms: C_10  and  C_11 
REMARK   10  A    between atoms: C_11  and  C_12 
REMARK   11  A    between atoms: C_12  and  O_13 
REMARK   12  A    between atoms: O_13  and  C_14 
REMARK   13  A    between atoms: C_15  and  O_24 
REMARK   14  A    between atoms: C_16  and  O_23 
REMARK   15  A    between atoms: C_17  and  O_22 
REMARK   16  A    between atoms: C_18  and  C_20 
REMARK   17  A    between atoms: C_20  and  O_21 
ROOT
HETATM    1  C   UNL     1     -21.661  -6.435  -5.312  1.00  0.00     0.291 C 
HETATM    2  C   UNL     1     -20.172  -6.189  -5.652  1.00  0.00     0.204 C 
HETATM    3  C   UNL     1     -19.976  -4.733  -6.101  1.00  0.00     0.183 C 
HETATM    4  C   UNL     1     -20.960  -4.335  -7.210  1.00  0.00     0.180 C 
HETATM    5  C   UNL     1     -22.392  -4.651  -6.753  1.00  0.00     0.179 C 
HETATM    6  O   UNL     1     -22.491  -6.058  -6.438  1.00  0.00    -0.348 OA
ENDROOT
BRANCH   1   7
HETATM    7  O   UNL     1     -22.094  -5.771  -4.123  1.00  0.00    -0.359 OA
BRANCH   7   8
HETATM    8  C   UNL     1     -21.351  -6.167  -2.967  1.00  0.00     0.171 C 
BRANCH   8   9
HETATM    9  C   UNL     1     -22.288  -6.486  -1.802  1.00  0.00     0.026 C 
BRANCH   9  10
HETATM   10  C   UNL     1     -21.736  -7.519  -0.818  1.00  0.00     0.002 C 
BRANCH  10  11
HETATM   11  C   UNL     1     -22.706  -7.795   0.327  1.00  0.00     0.000 C 
BRANCH  11  12
HETATM   12  C   UNL     1     -23.431  -9.122   0.149  1.00  0.00     0.000 C 
BRANCH  12  13
HETATM   13  C   UNL     1     -22.444 -10.166  -0.361  1.00  0.00     0.000 C 
BRANCH  13  14
HETATM   14  C   UNL     1     -22.968 -10.860  -1.609  1.00  0.00     0.000 C 
BRANCH  14  15
HETATM   15  C   UNL     1     -21.827 -11.074  -2.597  1.00  0.00     0.000 C 
BRANCH  15  16
HETATM   16  C   UNL     1     -21.792  -9.963  -3.635  1.00  0.00     0.000 C 
BRANCH  16  17
HETATM   17  C   UNL     1     -20.350  -9.601  -3.981  1.00  0.00    -0.000 C 
BRANCH  17  18
HETATM   18  C   UNL     1     -19.487  -9.524  -2.723  1.00  0.00    -0.005 C 
HETATM   19  C   UNL     1     -18.012  -9.509  -3.077  1.00  0.00     0.005 C 
ENDBRANCH  17  18
ENDBRANCH  16  17
ENDBRANCH  15  16
ENDBRANCH  14  15
ENDBRANCH  13  14
ENDBRANCH  12  13
ENDBRANCH  11  12
ENDBRANCH  10  11
ENDBRANCH   9  10
ENDBRANCH   8   9
ENDBRANCH   7   8
ENDBRANCH   1   7
BRANCH   2  20
HETATM   20  O   UNL     1     -19.726  -7.112  -6.664  1.00  0.00    -0.388 OA
HETATM   21  H   UNL     1     -19.615  -7.979  -6.244  1.00  0.00     0.210 HD
ENDBRANCH   2  20
BRANCH   3  22
HETATM   22  O   UNL     1     -18.631  -4.541  -6.559  1.00  0.00    -0.390 OA
HETATM   23  H   UNL     1     -18.596  -4.992  -7.433  1.00  0.00     0.210 HD
ENDBRANCH   3  22
BRANCH   5  24
HETATM   24  C   UNL     1     -23.420  -4.322  -7.850  1.00  0.00     0.198 C 
BRANCH  24  25
HETATM   25  O   UNL     1     -22.926  -3.293  -8.702  1.00  0.00    -0.398 OA
HETATM   26  H   UNL     1     -23.307  -2.458  -8.368  1.00  0.00     0.209 HD
ENDBRANCH  24  25
ENDBRANCH   5  24
BRANCH   4  27
HETATM   27  O   UNL     1     -20.615  -5.043  -8.415  1.00  0.00    -0.390 OA
HETATM   28  H   UNL     1     -21.240  -4.791  -9.123  1.00  0.00     0.210 HD
ENDBRANCH   4  27
TORSDOF 17
BEGIN_RES ARG D 557
REMARK  4 active torsions:
REMARK  status: ('A' for Active; 'I' for Inactive)
REMARK    1  A    between atoms: CA   and  CB  
REMARK    2  A    between atoms: CB   and  CG  
REMARK    3  A    between atoms: CG   and  CD  
REMARK    4  A    between atoms: CD   and  NE  
REMARK       I    between atoms: NE   and  CZ  
REMARK       I    between atoms: CZ   and  NH1 
REMARK       I    between atoms: CZ   and  NH2 
ROOT
ATOM      1  CA  ARG D 557     -26.217   2.705 -17.014  1.00 35.49     0.159 C 
ENDROOT
BRANCH   1   2
ATOM      2  CB  ARG D 557     -26.789   1.319 -17.183  1.00 35.49     0.034 C 
BRANCH   2   3
ATOM      3  CG  ARG D 557     -25.838   0.202 -17.139  1.00 35.49     0.027 C 
BRANCH   3   4
ATOM      4  CD  ARG D 557     -24.743   0.431 -16.169  1.00 35.49     0.116 C 
BRANCH   4   5
ATOM      5  NE  ARG D 557     -24.849  -0.428 -15.019  1.00 35.49    -0.212 N 
ATOM      6  CZ  ARG D 557     -24.013  -1.391 -14.700  1.00 35.49     0.666 C 
ATOM      7  NH1 ARG D 557     -22.959  -1.689 -15.437  1.00 35.49    -0.235 N 
ATOM      8  NH2 ARG D 557     -24.253  -2.057 -13.608  1.00 35.49    -0.235 N 
ATOM      9  HH  ARG D 557     -22.781  -1.262 -16.159  1.00 35.49     0.174 HD
ATOM     10  HH  ARG D 557     -22.448  -2.325 -15.178  1.00 35.49     0.174 HD
ATOM     11  HH  ARG D 557     -24.937  -1.838 -13.148  1.00 35.49     0.174 HD
ATOM     12  HH  ARG D 557     -23.734  -2.683 -13.367  1.00 35.49     0.174 HD
ATOM     13  HE  ARG D 557     -25.539  -0.354 -14.527  1.00 35.49     0.178 HD
ENDBRANCH   4   5
ENDBRANCH   3   4
ENDBRANCH   2   3
ENDBRANCH   1   2
END_RES ARG D 557
BEGIN_RES GLU D 570
REMARK  3 active torsions:
REMARK  status: ('A' for Active; 'I' for Inactive)
REMARK    5  A    between atoms: CA   and  CB  
REMARK    6  A    between atoms: CB   and  CG  
REMARK    7  A    between atoms: CG   and  CD  
ROOT
ATOM     14  CA  GLU D 570     -18.033  -6.348 -13.375  1.00 32.92     0.160 C 
ENDROOT
BRANCH  14  15
ATOM     15  CB  GLU D 570     -19.500  -6.345 -13.794  1.00 32.92     0.043 C 
BRANCH  15  16
ATOM     16  CG  GLU D 570     -19.820  -5.863 -15.162  1.00 32.92     0.100 C 
BRANCH  16  17
ATOM     17  CD  GLU D 570     -21.298  -5.631 -15.375  1.00 32.92     0.185 C 
ATOM     18  OE1 GLU D 570     -22.091  -6.575 -15.194  1.00 32.92    -0.647 OA
ATOM     19  OE2 GLU D 570     -21.665  -4.497 -15.742  1.00 32.92    -0.647 OA
ENDBRANCH  16  17
ENDBRANCH  15  16
ENDBRANCH  14  15
END_RES GLU D 570
ENDMDL
MODEL 9
REMARK VINA RESULT:      -5.9      3.486      8.588
REMARK  17 active torsions:
REMARK  status: ('A' for Active; 'I' for Inactive)
REMARK    1  A    between atoms: C_2  and  C_3 
REMARK    2  A    between atoms: C_3  and  C_4 
REMARK    3  A    between atoms: C_4  and  C_5 
REMARK    4  A    between atoms: C_5  and  C_6 
REMARK    5  A    between atoms: C_6  and  C_7 
REMARK    6  A    between atoms: C_7  and  C_8 
REMARK    7  A    between atoms: C_8  and  C_9 
REMARK    8  A    between atoms: C_9  and  C_10 
REMARK    9  A    between atoms: C_10  and  C_11 
REMARK   10  A    between atoms: C_11  and  C_12 
REMARK   11  A    between atoms: C_12  and  O_13 
REMARK   12  A    between atoms: O_13  and  C_14 
REMARK   13  A    between atoms: C_15  and  O_24 
REMARK   14  A    between atoms: C_16  and  O_23 
REMARK   15  A    between atoms: C_17  and  O_22 
REMARK   16  A    between atoms: C_18  and  C_20 
REMARK   17  A    between atoms: C_20  and  O_21 
ROOT
HETATM    1  C   UNL     1     -23.211  -4.833 -11.136  1.00  0.00     0.291 C 
HETATM    2  C   UNL     1     -24.493  -4.269 -10.477  1.00  0.00     0.204 C 
HETATM    3  C   UNL     1     -24.141  -3.039  -9.627  1.00  0.00     0.183 C 
HETATM    4  C   UNL     1     -22.990  -3.322  -8.651  1.00  0.00     0.180 C 
HETATM    5  C   UNL     1     -21.796  -3.895  -9.429  1.00  0.00     0.179 C 
HETATM    6  O   UNL     1     -22.211  -5.094 -10.122  1.00  0.00    -0.348 OA
ENDROOT
BRANCH   1   7
HETATM    7  O   UNL     1     -22.679  -3.993 -12.163  1.00  0.00    -0.359 OA
BRANCH   7   8
HETATM    8  C   UNL     1     -22.056  -4.733 -13.216  1.00  0.00     0.171 C 
BRANCH   8   9
HETATM    9  C   UNL     1     -22.997  -4.874 -14.412  1.00  0.00     0.026 C 
BRANCH   9  10
HETATM   10  C   UNL     1     -23.868  -6.130 -14.382  1.00  0.00     0.002 C 
BRANCH  10  11
HETATM   11  C   UNL     1     -24.090  -6.707 -15.776  1.00  0.00     0.000 C 
BRANCH  11  12
HETATM   12  C   UNL     1     -25.568  -6.931 -16.069  1.00  0.00     0.000 C 
BRANCH  12  13
HETATM   13  C   UNL     1     -26.374  -5.779 -15.480  1.00  0.00     0.000 C 
BRANCH  13  14
HETATM   14  C   UNL     1     -27.150  -5.038 -16.559  1.00  0.00     0.000 C 
BRANCH  14  15
HETATM   15  C   UNL     1     -27.404  -5.968 -17.740  1.00  0.00     0.000 C 
BRANCH  15  16
HETATM   16  C   UNL     1     -28.821  -5.801 -18.268  1.00  0.00     0.000 C 
BRANCH  16  17
HETATM   17  C   UNL     1     -29.406  -4.466 -17.811  1.00  0.00    -0.000 C 
BRANCH  17  18
HETATM   18  C   UNL     1     -30.713  -4.672 -17.049  1.00  0.00    -0.005 C 
HETATM   19  C   UNL     1     -31.767  -3.680 -17.504  1.00  0.00     0.005 C 
ENDBRANCH  17  18
ENDBRANCH  16  17
ENDBRANCH  15  16
ENDBRANCH  14  15
ENDBRANCH  13  14
ENDBRANCH  12  13
ENDBRANCH  11  12
ENDBRANCH  10  11
ENDBRANCH   9  10
ENDBRANCH   8   9
ENDBRANCH   7   8
ENDBRANCH   1   7
BRANCH   2  20
HETATM   20  O   UNL     1     -25.141  -5.283  -9.685  1.00  0.00    -0.388 OA
HETATM   21  H   UNL     1     -25.970  -5.519 -10.129  1.00  0.00     0.210 HD
ENDBRANCH   2  20
BRANCH   3  22
HETATM   22  O   UNL     1     -25.296  -2.604  -8.897  1.00  0.00    -0.390 OA
HETATM   23  H   UNL     1     -25.063  -2.744  -7.951  1.00  0.00     0.210 HD
ENDBRANCH   3  22
BRANCH   5  24
HETATM   24  C   UNL     1     -20.630  -4.252  -8.490  1.00  0.00     0.198 C 
BRANCH  24  25
HETATM   25  O   UNL     1     -20.873  -5.500  -7.849  1.00  0.00    -0.398 OA
HETATM   26  H   UNL     1     -21.742  -5.807  -8.172  1.00  0.00     0.209 HD
ENDBRANCH  24  25
ENDBRANCH   5  24
BRANCH   4  27
HETATM   27  O   UNL     1     -23.454  -4.234  -7.637  1.00  0.00    -0.390 OA
HETATM   28  H   UNL     1     -24.018  -3.747  -7.005  1.00  0.00     0.210 HD
ENDBRANCH   4  27
TORSDOF 17
BEGIN_RES ARG D 557
REMARK  4 active torsions:
REMARK  status: ('A' for Active; 'I' for Inactive)
REMARK    1  A    between atoms: CA   and  CB  
REMARK    2  A    between atoms: CB   and  CG  
REMARK    3  A    between atoms: CG   and  CD  
REMARK    4  A    between atoms: CD   and  NE  
REMARK       I    between atoms: NE   and  CZ  
REMARK       I    between atoms: CZ   and  NH1 
REMARK       I    between atoms: CZ   and  NH2 
ROOT
ATOM      1  CA  ARG D 557     -26.217   2.705 -17.014  1.00 35.49     0.159 C 
ENDROOT
BRANCH   1   2
ATOM      2  CB  ARG D 557     -26.789   1.319 -17.183  1.00 35.49     0.034 C 
BRANCH   2   3
ATOM      3  CG  ARG D 557     -25.988   0.205 -16.660  1.00 35.49     0.027 C 
BRANCH   3   4
ATOM      4  CD  ARG D 557     -26.824  -0.938 -16.230  1.00 35.49     0.116 C 
BRANCH   4   5
ATOM      5  NE  ARG D 557     -26.247  -1.645 -15.118  1.00 35.49    -0.212 N 
ATOM      6  CZ  ARG D 557     -25.047  -1.444 -14.619  1.00 35.49     0.666 C 
ATOM      7  NH1 ARG D 557     -24.213  -0.549 -15.117  1.00 35.49    -0.235 N 
ATOM      8  NH2 ARG D 557     -24.695  -2.162 -13.593  1.00 35.49    -0.235 N 
ATOM      9  HH  ARG D 557     -24.425  -0.064 -15.791  1.00 35.49     0.174 HD
ATOM     10  HH  ARG D 557     -23.445  -0.460 -14.749  1.00 35.49     0.174 HD
ATOM     11  HH  ARG D 557     -25.257  -2.727 -13.288  1.00 35.49     0.174 HD
ATOM     12  HH  ARG D 557     -23.931  -2.058 -13.242  1.00 35.49     0.174 HD
ATOM     13  HE  ARG D 557     -26.687  -2.290 -14.782  1.00 35.49     0.178 HD
ENDBRANCH   4   5
ENDBRANCH   3   4
ENDBRANCH   2   3
ENDBRANCH   1   2
END_RES ARG D 557
BEGIN_RES GLU D 570
REMARK  3 active torsions:
REMARK  status: ('A' for Active; 'I' for Inactive)
REMARK    5  A    between atoms: CA   and  CB  
REMARK    6  A    between atoms: CB   and  CG  
REMARK    7  A    between atoms: CG   and  CD  
ROOT
ATOM     14  CA  GLU D 570     -18.033  -6.348 -13.375  1.00 32.92     0.160 C 
ENDROOT
BRANCH  14  15
ATOM     15  CB  GLU D 570     -19.500  -6.345 -13.794  1.00 32.92     0.043 C 
BRANCH  15  16
ATOM     16  CG  GLU D 570     -20.101  -7.644 -14.192  1.00 32.92     0.100 C 
BRANCH  16  17
ATOM     17  CD  GLU D 570     -20.513  -7.682 -15.645  1.00 32.92     0.185 C 
ATOM     18  OE1 GLU D 570     -20.686  -6.609 -16.253  1.00 32.92    -0.647 OA
ATOM     19  OE2 GLU D 570     -20.682  -8.798 -16.176  1.00 32.92    -0.647 OA
ENDBRANCH  16  17
ENDBRANCH  15  16
ENDBRANCH  14  15
END_RES GLU D 570
ENDMDL
