MODEL 1
REMARK VINA RESULT:     -10.2      0.000      0.000
REMARK  5 active torsions:
REMARK  status: ('A' for Active; 'I' for Inactive)
REMARK    1  A    between atoms: C_4  and  N_7 
REMARK    2  A    between atoms: N_9  and  C_11 
REMARK    3  A    between atoms: C_14  and  N_17 
REMARK    4  A    between atoms: N_19  and  C_21 
REMARK    5  A    between atoms: C_22  and  O_31 
ROOT
HETATM    1  C   UNL     1     -21.338  -4.976  -7.839  1.00  0.00     0.048 A 
HETATM    2  C   UNL     1     -20.075  -5.342  -7.363  1.00  0.00     0.033 A 
HETATM    3  C   UNL     1     -19.903  -5.876  -6.069  1.00  0.00     0.033 A 
HETATM    4  C   UNL     1     -20.981  -6.066  -5.201  1.00  0.00     0.048 A 
HETATM    5  C   UNL     1     -22.246  -5.707  -5.680  1.00  0.00     0.033 A 
HETATM    6  C   UNL     1     -22.418  -5.163  -6.970  1.00  0.00     0.033 A 
ENDROOT
BRANCH   4   7
HETATM    7  N   UNL     1     -20.885  -6.560  -3.876  1.00  0.00    -0.300 N 
HETATM    8  N   UNL     1     -21.439  -7.672  -3.682  1.00  0.00    -0.297 N 
ATOM      9  HN  UNL     1     -21.797  -8.282  -4.417  1.00  0.00     0.187 HD
ATOM     10  HN  UNL     1     -20.402  -6.051  -3.136  1.00  0.00     0.187 HD
BRANCH   8  11
HETATM   11  C   UNL     1     -21.494  -7.957  -2.284  1.00  0.00     0.092 C 
HETATM   12  C   UNL     1     -22.134  -7.063  -1.404  1.00  0.00     0.094 C 
HETATM   13  C   UNL     1     -22.209  -7.305  -0.026  1.00  0.00     0.040 C 
HETATM   14  C   UNL     1     -21.780  -8.532   0.468  1.00  0.00     0.015 C 
HETATM   15  C   UNL     1     -21.142  -9.450  -0.379  1.00  0.00    -0.024 C 
HETATM   16  C   UNL     1     -20.721 -10.684   0.117  1.00  0.00     0.012 C 
HETATM   17  C   UNL     1     -20.852  -9.097  -1.723  1.00  0.00     0.005 C 
HETATM   18  C   UNL     1     -19.685 -11.362  -0.511  1.00  0.00     0.001 C 
HETATM   19  C   UNL     1     -19.244 -10.937  -1.756  1.00  0.00     0.001 C 
HETATM   20  C   UNL     1     -19.903  -9.889  -2.399  1.00  0.00     0.014 C 
BRANCH  12  21
HETATM   21  O   UNL     1     -22.689  -5.895  -1.836  1.00  0.00    -0.358 OA
HETATM   22  H   UNL     1     -23.114  -6.091  -2.686  1.00  0.00     0.217 HD
ENDBRANCH  12  21
ENDBRANCH   8  11
ENDBRANCH   4   7
BRANCH   1  23
HETATM   23  N   UNL     1     -21.576  -4.364  -9.095  1.00  0.00    -0.300 N 
HETATM   24  N   UNL     1     -22.735  -4.553  -9.531  1.00  0.00    -0.300 N 
ATOM     25  HN  UNL     1     -23.460  -5.035  -8.999  1.00  0.00     0.187 HD
ATOM     26  HN  UNL     1     -20.872  -3.823  -9.596  1.00  0.00     0.187 HD
BRANCH  24  27
HETATM   27  C   UNL     1     -22.947  -4.030 -10.838  1.00  0.00     0.048 A 
HETATM   28  C   UNL     1     -21.999  -4.102 -11.872  1.00  0.00     0.031 A 
HETATM   29  C   UNL     1     -22.301  -3.614 -13.147  1.00  0.00     0.002 A 
HETATM   30  C   UNL     1     -23.551  -3.072 -13.430  1.00  0.00     0.000 A 
HETATM   31  C   UNL     1     -24.497  -2.990 -12.409  1.00  0.00     0.002 A 
HETATM   32  C   UNL     1     -24.192  -3.465 -11.129  1.00  0.00     0.031 A 
ENDBRANCH  24  27
ENDBRANCH   1  23
TORSDOF 5
BEGIN_RES ARG D 557
REMARK  4 active torsions:
REMARK  status: ('A' for Active; 'I' for Inactive)
REMARK    1  A    between atoms: CA   and  CB  
REMARK    2  A    between atoms: CB   and  CG  
REMARK    3  A    between atoms: CG   and  CD  
REMARK    4  A    between atoms: CD   and  NE  
REMARK       I    between atoms: NE   and  CZ  
REMARK       I    between atoms: CZ   and  NH1 
REMARK       I    between atoms: CZ   and  NH2 
ROOT
ATOM      1  CA  ARG D 557     -26.217   2.705 -17.014  1.00 35.49     0.159 C 
ENDROOT
BRANCH   1   2
ATOM      2  CB  ARG D 557     -26.789   1.319 -17.183  1.00 35.49     0.034 C 
BRANCH   2   3
ATOM      3  CG  ARG D 557     -28.218   1.154 -16.891  1.00 35.49     0.027 C 
BRANCH   3   4
ATOM      4  CD  ARG D 557     -28.616  -0.270 -16.808  1.00 35.49     0.116 C 
BRANCH   4   5
ATOM      5  NE  ARG D 557     -27.643  -1.065 -16.107  1.00 35.49    -0.212 N 
ATOM      6  CZ  ARG D 557     -27.520  -2.372 -16.183  1.00 35.49     0.666 C 
ATOM      7  NH1 ARG D 557     -28.317  -3.117 -16.926  1.00 35.49    -0.235 N 
ATOM      8  NH2 ARG D 557     -26.565  -2.926 -15.493  1.00 35.49    -0.235 N 
ATOM      9  HH  ARG D 557     -28.950  -2.773 -17.390  1.00 35.49     0.174 HD
ATOM     10  HH  ARG D 557     -28.187  -3.964 -16.939  1.00 35.49     0.174 HD
ATOM     11  HH  ARG D 557     -26.062  -2.419 -15.028  1.00 35.49     0.174 HD
ATOM     12  HH  ARG D 557     -26.453  -3.766 -15.520  1.00 35.49     0.174 HD
ATOM     13  HE  ARG D 557     -27.135  -0.674 -15.548  1.00 35.49     0.178 HD
ENDBRANCH   4   5
ENDBRANCH   3   4
ENDBRANCH   2   3
ENDBRANCH   1   2
END_RES ARG D 557
BEGIN_RES GLU D 570
REMARK  3 active torsions:
REMARK  status: ('A' for Active; 'I' for Inactive)
REMARK    5  A    between atoms: CA   and  CB  
REMARK    6  A    between atoms: CB   and  CG  
REMARK    7  A    between atoms: CG   and  CD  
ROOT
ATOM     14  CA  GLU D 570     -18.033  -6.348 -13.375  1.00 32.92     0.160 C 
ENDROOT
BRANCH  14  15
ATOM     15  CB  GLU D 570     -19.500  -6.345 -13.794  1.00 32.92     0.043 C 
BRANCH  15  16
ATOM     16  CG  GLU D 570     -19.796  -6.284 -15.249  1.00 32.92     0.100 C 
BRANCH  16  17
ATOM     17  CD  GLU D 570     -21.252  -6.005 -15.542  1.00 32.92     0.185 C 
ATOM     18  OE1 GLU D 570     -21.543  -5.127 -16.378  1.00 32.92    -0.647 OA
ATOM     19  OE2 GLU D 570     -22.110  -6.659 -14.918  1.00 32.92    -0.647 OA
ENDBRANCH  16  17
ENDBRANCH  15  16
ENDBRANCH  14  15
END_RES GLU D 570
ENDMDL
MODEL 2
REMARK VINA RESULT:     -10.0      1.927      2.913
REMARK  5 active torsions:
REMARK  status: ('A' for Active; 'I' for Inactive)
REMARK    1  A    between atoms: C_4  and  N_7 
REMARK    2  A    between atoms: N_9  and  C_11 
REMARK    3  A    between atoms: C_14  and  N_17 
REMARK    4  A    between atoms: N_19  and  C_21 
REMARK    5  A    between atoms: C_22  and  O_31 
ROOT
HETATM    1  C   UNL     1     -22.116  -3.759  -9.815  1.00  0.00     0.048 A 
HETATM    2  C   UNL     1     -22.943  -3.950  -8.704  1.00  0.00     0.033 A 
HETATM    3  C   UNL     1     -22.478  -4.607  -7.546  1.00  0.00     0.033 A 
HETATM    4  C   UNL     1     -21.173  -5.097  -7.451  1.00  0.00     0.048 A 
HETATM    5  C   UNL     1     -20.343  -4.898  -8.560  1.00  0.00     0.033 A 
HETATM    6  C   UNL     1     -20.810  -4.251  -9.723  1.00  0.00     0.033 A 
ENDROOT
BRANCH   4   7
HETATM    7  N   UNL     1     -20.644  -5.799  -6.339  1.00  0.00    -0.300 N 
HETATM    8  N   UNL     1     -21.033  -6.990  -6.229  1.00  0.00    -0.297 N 
ATOM      9  HN  UNL     1     -21.554  -7.502  -6.939  1.00  0.00     0.187 HD
ATOM     10  HN  UNL     1     -19.995  -5.371  -5.679  1.00  0.00     0.187 HD
BRANCH   8  11
HETATM   11  C   UNL     1     -20.639  -7.521  -4.962  1.00  0.00     0.092 C 
HETATM   12  C   UNL     1     -21.235  -7.043  -3.779  1.00  0.00     0.094 C 
HETATM   13  C   UNL     1     -20.876  -7.537  -2.517  1.00  0.00     0.040 C 
HETATM   14  C   UNL     1     -20.026  -8.634  -2.439  1.00  0.00     0.015 C 
HETATM   15  C   UNL     1     -19.417  -9.140  -3.596  1.00  0.00    -0.024 C 
HETATM   16  C   UNL     1     -18.571 -10.245  -3.516  1.00  0.00     0.012 C 
HETATM   17  C   UNL     1     -19.596  -8.481  -4.841  1.00  0.00     0.005 C 
HETATM   18  C   UNL     1     -17.597 -10.442  -4.487  1.00  0.00     0.001 C 
HETATM   19  C   UNL     1     -17.629  -9.686  -5.650  1.00  0.00     0.001 C 
HETATM   20  C   UNL     1     -18.687  -8.802  -5.868  1.00  0.00     0.014 C 
BRANCH  12  21
HETATM   21  O   UNL     1     -22.171  -6.053  -3.788  1.00  0.00    -0.358 OA
HETATM   22  H   UNL     1     -23.031  -6.488  -3.897  1.00  0.00     0.217 HD
ENDBRANCH  12  21
ENDBRANCH   8  11
ENDBRANCH   4   7
BRANCH   1  23
HETATM   23  N   UNL     1     -22.537  -3.178 -11.039  1.00  0.00    -0.300 N 
HETATM   24  N   UNL     1     -23.764  -3.303 -11.255  1.00  0.00    -0.300 N 
ATOM     25  HN  UNL     1     -24.410  -3.717 -10.583  1.00  0.00     0.187 HD
ATOM     26  HN  UNL     1     -21.901  -2.704 -11.680  1.00  0.00     0.187 HD
BRANCH  24  27
HETATM   27  C   UNL     1     -24.172  -2.816 -12.529  1.00  0.00     0.048 A 
HETATM   28  C   UNL     1     -25.472  -2.959 -13.042  1.00  0.00     0.031 A 
HETATM   29  C   UNL     1     -25.811  -2.404 -14.280  1.00  0.00     0.002 A 
HETATM   30  C   UNL     1     -24.883  -1.676 -15.018  1.00  0.00     0.000 A 
HETATM   31  C   UNL     1     -23.588  -1.533 -14.521  1.00  0.00     0.002 A 
HETATM   32  C   UNL     1     -23.242  -2.100 -13.290  1.00  0.00     0.031 A 
ENDBRANCH  24  27
ENDBRANCH   1  23
TORSDOF 5
BEGIN_RES ARG D 557
REMARK  4 active torsions:
REMARK  status: ('A' for Active; 'I' for Inactive)
REMARK    1  A    between atoms: CA   and  CB  
REMARK    2  A    between atoms: CB   and  CG  
REMARK    3  A    between atoms: CG   and  CD  
REMARK    4  A    between atoms: CD   and  NE  
REMARK       I    between atoms: NE   and  CZ  
REMARK       I    between atoms: CZ   and  NH1 
REMARK       I    between atoms: CZ   and  NH2 
ROOT
ATOM      1  CA  ARG D 557     -26.217   2.705 -17.014  1.00 35.49     0.159 C 
ENDROOT
BRANCH   1   2
ATOM      2  CB  ARG D 557     -26.789   1.319 -17.183  1.00 35.49     0.034 C 
BRANCH   2   3
ATOM      3  CG  ARG D 557     -28.125   1.083 -16.623  1.00 35.49     0.027 C 
BRANCH   3   4
ATOM      4  CD  ARG D 557     -28.810  -0.064 -17.262  1.00 35.49     0.116 C 
BRANCH   4   5
ATOM      5  NE  ARG D 557     -28.227  -1.324 -16.882  1.00 35.49    -0.212 N 
ATOM      6  CZ  ARG D 557     -28.765  -2.508 -17.072  1.00 35.49     0.666 C 
ATOM      7  NH1 ARG D 557     -29.947  -2.667 -17.640  1.00 35.49    -0.235 N 
ATOM      8  NH2 ARG D 557     -28.085  -3.546 -16.683  1.00 35.49    -0.235 N 
ATOM      9  HH  ARG D 557     -30.411  -1.998 -17.906  1.00 35.49     0.174 HD
ATOM     10  HH  ARG D 557     -30.246  -3.463 -17.741  1.00 35.49     0.174 HD
ATOM     11  HH  ARG D 557     -27.321  -3.414 -16.326  1.00 35.49     0.174 HD
ATOM     12  HH  ARG D 557     -28.397  -4.327 -16.793  1.00 35.49     0.174 HD
ATOM     13  HE  ARG D 557     -27.498  -1.311 -16.444  1.00 35.49     0.178 HD
ENDBRANCH   4   5
ENDBRANCH   3   4
ENDBRANCH   2   3
ENDBRANCH   1   2
END_RES ARG D 557
BEGIN_RES GLU D 570
REMARK  3 active torsions:
REMARK  status: ('A' for Active; 'I' for Inactive)
REMARK    5  A    between atoms: CA   and  CB  
REMARK    6  A    between atoms: CB   and  CG  
REMARK    7  A    between atoms: CG   and  CD  
ROOT
ATOM     14  CA  GLU D 570     -18.033  -6.348 -13.375  1.00 32.92     0.160 C 
ENDROOT
BRANCH  14  15
ATOM     15  CB  GLU D 570     -19.500  -6.345 -13.794  1.00 32.92     0.043 C 
BRANCH  15  16
ATOM     16  CG  GLU D 570     -20.432  -5.487 -13.018  1.00 32.92     0.100 C 
BRANCH  16  17
ATOM     17  CD  GLU D 570     -21.760  -5.283 -13.709  1.00 32.92     0.185 C 
ATOM     18  OE1 GLU D 570     -22.808  -5.593 -13.111  1.00 32.92    -0.647 OA
ATOM     19  OE2 GLU D 570     -21.751  -4.823 -14.868  1.00 32.92    -0.647 OA
ENDBRANCH  16  17
ENDBRANCH  15  16
ENDBRANCH  14  15
END_RES GLU D 570
ENDMDL
MODEL 3
REMARK VINA RESULT:      -9.7      5.227     11.418
REMARK  5 active torsions:
REMARK  status: ('A' for Active; 'I' for Inactive)
REMARK    1  A    between atoms: C_4  and  N_7 
REMARK    2  A    between atoms: N_9  and  C_11 
REMARK    3  A    between atoms: C_14  and  N_17 
REMARK    4  A    between atoms: N_19  and  C_21 
REMARK    5  A    between atoms: C_22  and  O_31 
ROOT
HETATM    1  C   UNL     1     -23.157  -4.002 -12.234  1.00  0.00     0.048 A 
HETATM    2  C   UNL     1     -22.943  -5.122 -13.044  1.00  0.00     0.033 A 
HETATM    3  C   UNL     1     -23.767  -5.392 -14.157  1.00  0.00     0.033 A 
HETATM    4  C   UNL     1     -24.833  -4.558 -14.504  1.00  0.00     0.048 A 
HETATM    5  C   UNL     1     -25.041  -3.434 -13.698  1.00  0.00     0.033 A 
HETATM    6  C   UNL     1     -24.225  -3.168 -12.578  1.00  0.00     0.033 A 
ENDROOT
BRANCH   4   7
HETATM    7  N   UNL     1     -25.727  -4.782 -15.581  1.00  0.00    -0.300 N 
HETATM    8  N   UNL     1     -25.940  -5.991 -15.852  1.00  0.00    -0.297 N 
ATOM      9  HN  UNL     1     -25.649  -6.779 -15.274  1.00  0.00     0.187 HD
ATOM     10  HN  UNL     1     -26.164  -4.019 -16.097  1.00  0.00     0.187 HD
BRANCH   8  11
HETATM   11  C   UNL     1     -26.650  -6.100 -17.087  1.00  0.00     0.092 C 
HETATM   12  C   UNL     1     -28.042  -5.888 -17.124  1.00  0.00     0.094 C 
HETATM   13  C   UNL     1     -28.775  -5.986 -18.314  1.00  0.00     0.040 C 
HETATM   14  C   UNL     1     -28.093  -6.143 -19.516  1.00  0.00     0.015 C 
HETATM   15  C   UNL     1     -26.707  -6.353 -19.519  1.00  0.00    -0.024 C 
HETATM   16  C   UNL     1     -26.024  -6.501 -20.726  1.00  0.00     0.012 C 
HETATM   17  C   UNL     1     -26.005  -6.494 -18.293  1.00  0.00     0.005 C 
HETATM   18  C   UNL     1     -24.819  -7.191 -20.757  1.00  0.00     0.001 C 
HETATM   19  C   UNL     1     -24.184  -7.511 -19.566  1.00  0.00     0.001 C 
HETATM   20  C   UNL     1     -24.717  -7.062 -18.357  1.00  0.00     0.014 C 
BRANCH  12  21
HETATM   21  O   UNL     1     -28.761  -5.606 -16.002  1.00  0.00    -0.358 OA
HETATM   22  H   UNL     1     -28.862  -4.641 -15.975  1.00  0.00     0.217 HD
ENDBRANCH  12  21
ENDBRANCH   8  11
ENDBRANCH   4   7
BRANCH   1  23
HETATM   23  N   UNL     1     -22.419  -3.709 -11.059  1.00  0.00    -0.300 N 
HETATM   24  N   UNL     1     -22.119  -4.726 -10.391  1.00  0.00    -0.300 N 
ATOM     25  HN  UNL     1     -22.320  -5.677 -10.701  1.00  0.00     0.187 HD
ATOM     26  HN  UNL     1     -22.159  -2.763 -10.784  1.00  0.00     0.187 HD
BRANCH  24  27
HETATM   27  C   UNL     1     -21.472  -4.429  -9.159  1.00  0.00     0.048 A 
HETATM   28  C   UNL     1     -22.144  -3.981  -8.010  1.00  0.00     0.031 A 
HETATM   29  C   UNL     1     -21.446  -3.762  -6.818  1.00  0.00     0.002 A 
HETATM   30  C   UNL     1     -20.079  -4.007  -6.733  1.00  0.00     0.000 A 
HETATM   31  C   UNL     1     -19.400  -4.446  -7.869  1.00  0.00     0.002 A 
HETATM   32  C   UNL     1     -20.095  -4.652  -9.066  1.00  0.00     0.031 A 
ENDBRANCH  24  27
ENDBRANCH   1  23
TORSDOF 5
BEGIN_RES ARG D 557
REMARK  4 active torsions:
REMARK  status: ('A' for Active; 'I' for Inactive)
REMARK    1  A    between atoms: CA   and  CB  
REMARK    2  A    between atoms: CB   and  CG  
REMARK    3  A    between atoms: CG   and  CD  
REMARK    4  A    between atoms: CD   and  NE  
REMARK       I    between atoms: NE   and  CZ  
REMARK       I    between atoms: CZ   and  NH1 
REMARK       I    between atoms: CZ   and  NH2 
ROOT
ATOM      1  CA  ARG D 557     -26.217   2.705 -17.014  1.00 35.49     0.159 C 
ENDROOT
BRANCH   1   2
ATOM      2  CB  ARG D 557     -26.789   1.319 -17.183  1.00 35.49     0.034 C 
BRANCH   2   3
ATOM      3  CG  ARG D 557     -28.247   1.218 -17.317  1.00 35.49     0.027 C 
BRANCH   3   4
ATOM      4  CD  ARG D 557     -28.836   0.251 -16.362  1.00 35.49     0.116 C 
BRANCH   4   5
ATOM      5  NE  ARG D 557     -29.501  -0.836 -17.032  1.00 35.49    -0.212 N 
ATOM      6  CZ  ARG D 557     -29.066  -2.074 -17.106  1.00 35.49     0.666 C 
ATOM      7  NH1 ARG D 557     -27.925  -2.458 -16.565  1.00 35.49    -0.235 N 
ATOM      8  NH2 ARG D 557     -29.811  -2.935 -17.736  1.00 35.49    -0.235 N 
ATOM      9  HH  ARG D 557     -27.420  -1.908 -16.144  1.00 35.49     0.174 HD
ATOM     10  HH  ARG D 557     -27.693  -3.279 -16.643  1.00 35.49     0.174 HD
ATOM     11  HH  ARG D 557     -30.546  -2.660 -18.069  1.00 35.49     0.174 HD
ATOM     12  HH  ARG D 557     -29.565  -3.744 -17.801  1.00 35.49     0.174 HD
ATOM     13  HE  ARG D 557     -30.209  -0.662 -17.470  1.00 35.49     0.178 HD
ENDBRANCH   4   5
ENDBRANCH   3   4
ENDBRANCH   2   3
ENDBRANCH   1   2
END_RES ARG D 557
BEGIN_RES GLU D 570
REMARK  3 active torsions:
REMARK  status: ('A' for Active; 'I' for Inactive)
REMARK    5  A    between atoms: CA   and  CB  
REMARK    6  A    between atoms: CB   and  CG  
REMARK    7  A    between atoms: CG   and  CD  
ROOT
ATOM     14  CA  GLU D 570     -18.033  -6.348 -13.375  1.00 32.92     0.160 C 
ENDROOT
BRANCH  14  15
ATOM     15  CB  GLU D 570     -19.500  -6.345 -13.794  1.00 32.92     0.043 C 
BRANCH  15  16
ATOM     16  CG  GLU D 570     -20.099  -7.643 -14.198  1.00 32.92     0.100 C 
BRANCH  16  17
ATOM     17  CD  GLU D 570     -20.657  -7.624 -15.602  1.00 32.92     0.185 C 
ATOM     18  OE1 GLU D 570     -20.778  -8.699 -16.220  1.00 32.92    -0.647 OA
ATOM     19  OE2 GLU D 570     -20.962  -6.519 -16.094  1.00 32.92    -0.647 OA
ENDBRANCH  16  17
ENDBRANCH  15  16
ENDBRANCH  14  15
END_RES GLU D 570
ENDMDL
MODEL 4
REMARK VINA RESULT:      -9.7      2.073      8.816
REMARK  5 active torsions:
REMARK  status: ('A' for Active; 'I' for Inactive)
REMARK    1  A    between atoms: C_4  and  N_7 
REMARK    2  A    between atoms: N_9  and  C_11 
REMARK    3  A    between atoms: C_14  and  N_17 
REMARK    4  A    between atoms: N_19  and  C_21 
REMARK    5  A    between atoms: C_22  and  O_31 
ROOT
HETATM    1  C   UNL     1     -21.578  -8.091  -3.190  1.00  0.00     0.048 A 
HETATM    2  C   UNL     1     -21.367  -6.711  -3.120  1.00  0.00     0.033 A 
HETATM    3  C   UNL     1     -21.132  -5.943  -4.280  1.00  0.00     0.033 A 
HETATM    4  C   UNL     1     -21.099  -6.520  -5.552  1.00  0.00     0.048 A 
HETATM    5  C   UNL     1     -21.319  -7.900  -5.623  1.00  0.00     0.033 A 
HETATM    6  C   UNL     1     -21.543  -8.671  -4.463  1.00  0.00     0.033 A 
ENDROOT
BRANCH   4   7
HETATM    7  N   UNL     1     -20.833  -5.824  -6.757  1.00  0.00    -0.300 N 
HETATM    8  N   UNL     1     -21.631  -4.889  -7.019  1.00  0.00    -0.297 N 
ATOM      9  HN  UNL     1     -22.327  -4.518  -6.373  1.00  0.00     0.187 HD
ATOM     10  HN  UNL     1     -20.051  -6.065  -7.367  1.00  0.00     0.187 HD
BRANCH   8  11
HETATM   11  C   UNL     1     -21.422  -4.422  -8.352  1.00  0.00     0.092 C 
HETATM   12  C   UNL     1     -20.114  -4.240  -8.841  1.00  0.00     0.094 C 
HETATM   13  C   UNL     1     -19.866  -3.782 -10.142  1.00  0.00     0.040 C 
HETATM   14  C   UNL     1     -20.931  -3.654 -11.026  1.00  0.00     0.015 C 
HETATM   15  C   UNL     1     -22.247  -3.831 -10.578  1.00  0.00    -0.024 C 
HETATM   16  C   UNL     1     -23.313  -3.710 -11.469  1.00  0.00     0.012 C 
HETATM   17  C   UNL     1     -22.505  -4.057  -9.200  1.00  0.00     0.005 C 
HETATM   18  C   UNL     1     -24.575  -3.378 -10.994  1.00  0.00     0.001 C 
HETATM   19  C   UNL     1     -24.823  -3.409  -9.629  1.00  0.00     0.001 C 
HETATM   20  C   UNL     1     -23.829  -3.858  -8.759  1.00  0.00     0.014 C 
BRANCH  12  21
HETATM   21  O   UNL     1     -19.015  -4.467  -8.068  1.00  0.00    -0.358 OA
HETATM   22  H   UNL     1     -19.132  -3.941  -7.261  1.00  0.00     0.217 HD
ENDBRANCH  12  21
ENDBRANCH   8  11
ENDBRANCH   4   7
BRANCH   1  23
HETATM   23  N   UNL     1     -21.743  -8.937  -2.064  1.00  0.00    -0.300 N 
HETATM   24  N   UNL     1     -21.806 -10.153  -2.358  1.00  0.00    -0.300 N 
ATOM     25  HN  UNL     1     -21.676 -10.506  -3.306  1.00  0.00     0.187 HD
ATOM     26  HN  UNL     1     -21.805  -8.588  -1.108  1.00  0.00     0.187 HD
BRANCH  24  27
HETATM   27  C   UNL     1     -22.077 -10.996  -1.243  1.00  0.00     0.048 A 
HETATM   28  C   UNL     1     -21.098 -11.433  -0.336  1.00  0.00     0.031 A 
HETATM   29  C   UNL     1     -21.452 -12.216   0.766  1.00  0.00     0.002 A 
HETATM   30  C   UNL     1     -22.779 -12.558   1.008  1.00  0.00     0.000 A 
HETATM   31  C   UNL     1     -23.758 -12.135   0.111  1.00  0.00     0.002 A 
HETATM   32  C   UNL     1     -23.405 -11.363  -1.001  1.00  0.00     0.031 A 
ENDBRANCH  24  27
ENDBRANCH   1  23
TORSDOF 5
BEGIN_RES ARG D 557
REMARK  4 active torsions:
REMARK  status: ('A' for Active; 'I' for Inactive)
REMARK    1  A    between atoms: CA   and  CB  
REMARK    2  A    between atoms: CB   and  CG  
REMARK    3  A    between atoms: CG   and  CD  
REMARK    4  A    between atoms: CD   and  NE  
REMARK       I    between atoms: NE   and  CZ  
REMARK       I    between atoms: CZ   and  NH1 
REMARK       I    between atoms: CZ   and  NH2 
ROOT
ATOM      1  CA  ARG D 557     -26.217   2.705 -17.014  1.00 35.49     0.159 C 
ENDROOT
BRANCH   1   2
ATOM      2  CB  ARG D 557     -26.789   1.319 -17.183  1.00 35.49     0.034 C 
BRANCH   2   3
ATOM      3  CG  ARG D 557     -28.225   1.161 -16.925  1.00 35.49     0.027 C 
BRANCH   3   4
ATOM      4  CD  ARG D 557     -28.608  -0.253 -16.708  1.00 35.49     0.116 C 
BRANCH   4   5
ATOM      5  NE  ARG D 557     -27.588  -0.990 -16.009  1.00 35.49    -0.212 N 
ATOM      6  CZ  ARG D 557     -27.393  -2.287 -16.080  1.00 35.49     0.666 C 
ATOM      7  NH1 ARG D 557     -28.149  -3.079 -16.817  1.00 35.49    -0.235 N 
ATOM      8  NH2 ARG D 557     -26.405  -2.784 -15.393  1.00 35.49    -0.235 N 
ATOM      9  HH  ARG D 557     -28.803  -2.773 -17.279  1.00 35.49     0.174 HD
ATOM     10  HH  ARG D 557     -27.973  -3.918 -16.827  1.00 35.49     0.174 HD
ATOM     11  HH  ARG D 557     -25.929  -2.248 -14.932  1.00 35.49     0.174 HD
ATOM     12  HH  ARG D 557     -26.246  -3.617 -15.417  1.00 35.49     0.174 HD
ATOM     13  HE  ARG D 557     -27.101  -0.568 -15.454  1.00 35.49     0.178 HD
ENDBRANCH   4   5
ENDBRANCH   3   4
ENDBRANCH   2   3
ENDBRANCH   1   2
END_RES ARG D 557
BEGIN_RES GLU D 570
REMARK  3 active torsions:
REMARK  status: ('A' for Active; 'I' for Inactive)
REMARK    5  A    between atoms: CA   and  CB  
REMARK    6  A    between atoms: CB   and  CG  
REMARK    7  A    between atoms: CG   and  CD  
ROOT
ATOM     14  CA  GLU D 570     -18.033  -6.348 -13.375  1.00 32.92     0.160 C 
ENDROOT
BRANCH  14  15
ATOM     15  CB  GLU D 570     -19.500  -6.345 -13.794  1.00 32.92     0.043 C 
BRANCH  15  16
ATOM     16  CG  GLU D 570     -19.807  -6.011 -15.209  1.00 32.92     0.100 C 
BRANCH  16  17
ATOM     17  CD  GLU D 570     -21.144  -5.327 -15.376  1.00 32.92     0.185 C 
ATOM     18  OE1 GLU D 570     -21.774  -4.973 -14.361  1.00 32.92    -0.647 OA
ATOM     19  OE2 GLU D 570     -21.574  -5.159 -16.535  1.00 32.92    -0.647 OA
ENDBRANCH  16  17
ENDBRANCH  15  16
ENDBRANCH  14  15
END_RES GLU D 570
ENDMDL
MODEL 5
REMARK VINA RESULT:      -9.4      5.244     11.369
REMARK  5 active torsions:
REMARK  status: ('A' for Active; 'I' for Inactive)
REMARK    1  A    between atoms: C_4  and  N_7 
REMARK    2  A    between atoms: N_9  and  C_11 
REMARK    3  A    between atoms: C_14  and  N_17 
REMARK    4  A    between atoms: N_19  and  C_21 
REMARK    5  A    between atoms: C_22  and  O_31 
ROOT
HETATM    1  C   UNL     1     -23.077  -4.054 -12.268  1.00  0.00     0.048 A 
HETATM    2  C   UNL     1     -22.870  -5.158 -13.101  1.00  0.00     0.033 A 
HETATM    3  C   UNL     1     -23.720  -5.424 -14.195  1.00  0.00     0.033 A 
HETATM    4  C   UNL     1     -24.806  -4.600 -14.501  1.00  0.00     0.048 A 
HETATM    5  C   UNL     1     -25.008  -3.490 -13.672  1.00  0.00     0.033 A 
HETATM    6  C   UNL     1     -24.165  -3.229 -12.571  1.00  0.00     0.033 A 
ENDROOT
BRANCH   4   7
HETATM    7  N   UNL     1     -25.725  -4.820 -15.557  1.00  0.00    -0.300 N 
HETATM    8  N   UNL     1     -26.192  -5.986 -15.621  1.00  0.00    -0.297 N 
ATOM      9  HN  UNL     1     -26.076  -6.702 -14.904  1.00  0.00     0.187 HD
ATOM     10  HN  UNL     1     -25.989  -4.087 -16.215  1.00  0.00     0.187 HD
BRANCH   8  11
HETATM   11  C   UNL     1     -26.907  -6.164 -16.845  1.00  0.00     0.092 C 
HETATM   12  C   UNL     1     -26.208  -6.401 -18.044  1.00  0.00     0.094 C 
HETATM   13  C   UNL     1     -26.872  -6.579 -19.266  1.00  0.00     0.040 C 
HETATM   14  C   UNL     1     -28.259  -6.681 -19.271  1.00  0.00     0.015 C 
HETATM   15  C   UNL     1     -28.988  -6.455 -18.095  1.00  0.00    -0.024 C 
HETATM   16  C   UNL     1     -30.378  -6.567 -18.102  1.00  0.00     0.012 C 
HETATM   17  C   UNL     1     -28.323  -6.036 -16.914  1.00  0.00     0.005 C 
HETATM   18  C   UNL     1     -31.130  -5.882 -17.155  1.00  0.00     0.001 C 
HETATM   19  C   UNL     1     -30.494  -5.297 -16.070  1.00  0.00     0.001 C 
HETATM   20  C   UNL     1     -29.121  -5.477 -15.897  1.00  0.00     0.014 C 
BRANCH  12  21
HETATM   21  O   UNL     1     -24.847  -6.439 -18.094  1.00  0.00    -0.358 OA
HETATM   22  H   UNL     1     -24.530  -5.705 -17.544  1.00  0.00     0.217 HD
ENDBRANCH  12  21
ENDBRANCH   8  11
ENDBRANCH   4   7
BRANCH   1  23
HETATM   23  N   UNL     1     -22.312  -3.768 -11.109  1.00  0.00    -0.300 N 
HETATM   24  N   UNL     1     -22.143  -4.761 -10.365  1.00  0.00    -0.300 N 
ATOM     25  HN  UNL     1     -22.459  -5.700 -10.607  1.00  0.00     0.187 HD
ATOM     26  HN  UNL     1     -21.937  -2.843 -10.901  1.00  0.00     0.187 HD
BRANCH  24  27
HETATM   27  C   UNL     1     -21.467  -4.456  -9.150  1.00  0.00     0.048 A 
HETATM   28  C   UNL     1     -22.108  -3.970  -7.999  1.00  0.00     0.031 A 
HETATM   29  C   UNL     1     -21.383  -3.745  -6.824  1.00  0.00     0.002 A 
HETATM   30  C   UNL     1     -20.021  -4.021  -6.758  1.00  0.00     0.000 A 
HETATM   31  C   UNL     1     -19.373  -4.497  -7.897  1.00  0.00     0.002 A 
HETATM   32  C   UNL     1     -20.094  -4.710  -9.077  1.00  0.00     0.031 A 
ENDBRANCH  24  27
ENDBRANCH   1  23
TORSDOF 5
BEGIN_RES ARG D 557
REMARK  4 active torsions:
REMARK  status: ('A' for Active; 'I' for Inactive)
REMARK    1  A    between atoms: CA   and  CB  
REMARK    2  A    between atoms: CB   and  CG  
REMARK    3  A    between atoms: CG   and  CD  
REMARK    4  A    between atoms: CD   and  NE  
REMARK       I    between atoms: NE   and  CZ  
REMARK       I    between atoms: CZ   and  NH1 
REMARK       I    between atoms: CZ   and  NH2 
ROOT
ATOM      1  CA  ARG D 557     -26.217   2.705 -17.014  1.00 35.49     0.159 C 
ENDROOT
BRANCH   1   2
ATOM      2  CB  ARG D 557     -26.789   1.319 -17.183  1.00 35.49     0.034 C 
BRANCH   2   3
ATOM      3  CG  ARG D 557     -25.965   0.202 -16.706  1.00 35.49     0.027 C 
BRANCH   3   4
ATOM      4  CD  ARG D 557     -26.721  -0.722 -15.829  1.00 35.49     0.116 C 
BRANCH   4   5
ATOM      5  NE  ARG D 557     -27.559  -1.619 -16.581  1.00 35.49    -0.212 N 
ATOM      6  CZ  ARG D 557     -28.813  -1.403 -16.911  1.00 35.49     0.666 C 
ATOM      7  NH1 ARG D 557     -29.460  -0.307 -16.561  1.00 35.49    -0.235 N 
ATOM      8  NH2 ARG D 557     -29.415  -2.318 -17.614  1.00 35.49    -0.235 N 
ATOM      9  HH  ARG D 557     -29.083   0.309 -16.099  1.00 35.49     0.174 HD
ATOM     10  HH  ARG D 557     -30.276  -0.219 -16.807  1.00 35.49     0.174 HD
ATOM     11  HH  ARG D 557     -28.970  -3.012 -17.832  1.00 35.49     0.174 HD
ATOM     12  HH  ARG D 557     -30.222  -2.212 -17.849  1.00 35.49     0.174 HD
ATOM     13  HE  ARG D 557     -27.245  -2.382 -16.785  1.00 35.49     0.178 HD
ENDBRANCH   4   5
ENDBRANCH   3   4
ENDBRANCH   2   3
ENDBRANCH   1   2
END_RES ARG D 557
BEGIN_RES GLU D 570
REMARK  3 active torsions:
REMARK  status: ('A' for Active; 'I' for Inactive)
REMARK    5  A    between atoms: CA   and  CB  
REMARK    6  A    between atoms: CB   and  CG  
REMARK    7  A    between atoms: CG   and  CD  
ROOT
ATOM     14  CA  GLU D 570     -18.033  -6.348 -13.375  1.00 32.92     0.160 C 
ENDROOT
BRANCH  14  15
ATOM     15  CB  GLU D 570     -19.500  -6.345 -13.794  1.00 32.92     0.043 C 
BRANCH  15  16
ATOM     16  CG  GLU D 570     -20.022  -7.562 -14.469  1.00 32.92     0.100 C 
BRANCH  16  17
ATOM     17  CD  GLU D 570     -20.815  -7.249 -15.716  1.00 32.92     0.185 C 
ATOM     18  OE1 GLU D 570     -20.520  -6.239 -16.384  1.00 32.92    -0.647 OA
ATOM     19  OE2 GLU D 570     -21.751  -8.014 -16.021  1.00 32.92    -0.647 OA
ENDBRANCH  16  17
ENDBRANCH  15  16
ENDBRANCH  14  15
END_RES GLU D 570
ENDMDL
MODEL 6
REMARK VINA RESULT:      -9.0     14.463     16.518
REMARK  5 active torsions:
REMARK  status: ('A' for Active; 'I' for Inactive)
REMARK    1  A    between atoms: C_4  and  N_7 
REMARK    2  A    between atoms: N_9  and  C_11 
REMARK    3  A    between atoms: C_14  and  N_17 
REMARK    4  A    between atoms: N_19  and  C_21 
REMARK    5  A    between atoms: C_22  and  O_31 
ROOT
HETATM    1  C   UNL     1     -18.653   9.797   2.748  1.00  0.00     0.048 A 
HETATM    2  C   UNL     1     -19.139  10.845   1.960  1.00  0.00     0.033 A 
HETATM    3  C   UNL     1     -20.472  10.861   1.498  1.00  0.00     0.033 A 
HETATM    4  C   UNL     1     -21.369   9.836   1.804  1.00  0.00     0.048 A 
HETATM    5  C   UNL     1     -20.886   8.791   2.599  1.00  0.00     0.033 A 
HETATM    6  C   UNL     1     -19.550   8.768   3.053  1.00  0.00     0.033 A 
ENDROOT
BRANCH   4   7
HETATM    7  N   UNL     1     -22.709   9.761   1.347  1.00  0.00    -0.300 N 
HETATM    8  N   UNL     1     -23.294   8.675   1.591  1.00  0.00    -0.297 N 
ATOM      9  HN  UNL     1     -22.934   7.943   2.203  1.00  0.00     0.187 HD
ATOM     10  HN  UNL     1     -23.165  10.531   0.858  1.00  0.00     0.187 HD
BRANCH   8  11
HETATM   11  C   UNL     1     -24.535   8.615   0.886  1.00  0.00     0.092 C 
HETATM   12  C   UNL     1     -25.694   9.187   1.445  1.00  0.00     0.094 C 
HETATM   13  C   UNL     1     -26.931   9.149   0.787  1.00  0.00     0.040 C 
HETATM   14  C   UNL     1     -26.985   8.674  -0.519  1.00  0.00     0.015 C 
HETATM   15  C   UNL     1     -25.850   8.101  -1.111  1.00  0.00    -0.024 C 
HETATM   16  C   UNL     1     -25.905   7.634  -2.423  1.00  0.00     0.012 C 
HETATM   17  C   UNL     1     -24.665   7.923  -0.351  1.00  0.00     0.005 C 
HETATM   18  C   UNL     1     -25.022   6.648  -2.843  1.00  0.00     0.001 C 
HETATM   19  C   UNL     1     -23.941   6.312  -2.040  1.00  0.00     0.001 C 
HETATM   20  C   UNL     1     -23.706   7.027  -0.866  1.00  0.00     0.014 C 
BRANCH  12  21
HETATM   21  O   UNL     1     -25.689   9.782   2.671  1.00  0.00    -0.358 OA
HETATM   22  H   UNL     1     -25.588   9.070   3.322  1.00  0.00     0.217 HD
ENDBRANCH  12  21
ENDBRANCH   8  11
ENDBRANCH   4   7
BRANCH   1  23
HETATM   23  N   UNL     1     -17.309   9.676   3.183  1.00  0.00    -0.300 N 
HETATM   24  N   UNL     1     -17.184   9.019   4.242  1.00  0.00    -0.300 N 
ATOM     25  HN  UNL     1     -17.965   8.553   4.705  1.00  0.00     0.187 HD
ATOM     26  HN  UNL     1     -16.520  10.084   2.682  1.00  0.00     0.187 HD
BRANCH  24  27
HETATM   27  C   UNL     1     -15.851   8.984   4.738  1.00  0.00     0.048 A 
HETATM   28  C   UNL     1     -14.710   9.089   3.926  1.00  0.00     0.031 A 
HETATM   29  C   UNL     1     -13.432   9.101   4.494  1.00  0.00     0.002 A 
HETATM   30  C   UNL     1     -13.260   9.037   5.873  1.00  0.00     0.000 A 
HETATM   31  C   UNL     1     -14.385   8.925   6.689  1.00  0.00     0.002 A 
HETATM   32  C   UNL     1     -15.664   8.899   6.122  1.00  0.00     0.031 A 
ENDBRANCH  24  27
ENDBRANCH   1  23
TORSDOF 5
BEGIN_RES ARG D 557
REMARK  4 active torsions:
REMARK  status: ('A' for Active; 'I' for Inactive)
REMARK    1  A    between atoms: CA   and  CB  
REMARK    2  A    between atoms: CB   and  CG  
REMARK    3  A    between atoms: CG   and  CD  
REMARK    4  A    between atoms: CD   and  NE  
REMARK       I    between atoms: NE   and  CZ  
REMARK       I    between atoms: CZ   and  NH1 
REMARK       I    between atoms: CZ   and  NH2 
ROOT
ATOM      1  CA  ARG D 557     -26.217   2.705 -17.014  1.00 35.49     0.159 C 
ENDROOT
BRANCH   1   2
ATOM      2  CB  ARG D 557     -26.789   1.319 -17.183  1.00 35.49     0.034 C 
BRANCH   2   3
ATOM      3  CG  ARG D 557     -25.837   0.202 -17.145  1.00 35.49     0.027 C 
BRANCH   3   4
ATOM      4  CD  ARG D 557     -24.754   0.417 -16.158  1.00 35.49     0.116 C 
BRANCH   4   5
ATOM      5  NE  ARG D 557     -24.894  -0.434 -15.006  1.00 35.49    -0.212 N 
ATOM      6  CZ  ARG D 557     -24.081  -1.410 -14.668  1.00 35.49     0.666 C 
ATOM      7  NH1 ARG D 557     -23.020  -1.729 -15.386  1.00 35.49    -0.235 N 
ATOM      8  NH2 ARG D 557     -24.350  -2.066 -13.577  1.00 35.49    -0.235 N 
ATOM      9  HH  ARG D 557     -22.822  -1.309 -16.107  1.00 35.49     0.174 HD
ATOM     10  HH  ARG D 557     -22.524  -2.373 -15.116  1.00 35.49     0.174 HD
ATOM     11  HH  ARG D 557     -25.037  -1.832 -13.129  1.00 35.49     0.174 HD
ATOM     12  HH  ARG D 557     -23.846  -2.699 -13.325  1.00 35.49     0.174 HD
ATOM     13  HE  ARG D 557     -25.591  -0.346 -14.526  1.00 35.49     0.178 HD
ENDBRANCH   4   5
ENDBRANCH   3   4
ENDBRANCH   2   3
ENDBRANCH   1   2
END_RES ARG D 557
BEGIN_RES GLU D 570
REMARK  3 active torsions:
REMARK  status: ('A' for Active; 'I' for Inactive)
REMARK    5  A    between atoms: CA   and  CB  
REMARK    6  A    between atoms: CB   and  CG  
REMARK    7  A    between atoms: CG   and  CD  
ROOT
ATOM     14  CA  GLU D 570     -18.033  -6.348 -13.375  1.00 32.92     0.160 C 
ENDROOT
BRANCH  14  15
ATOM     15  CB  GLU D 570     -19.500  -6.345 -13.794  1.00 32.92     0.043 C 
BRANCH  15  16
ATOM     16  CG  GLU D 570     -20.450  -5.568 -12.956  1.00 32.92     0.100 C 
BRANCH  16  17
ATOM     17  CD  GLU D 570     -21.738  -5.241 -13.674  1.00 32.92     0.185 C 
ATOM     18  OE1 GLU D 570     -22.275  -6.114 -14.382  1.00 32.92    -0.647 OA
ATOM     19  OE2 GLU D 570     -22.206  -4.093 -13.541  1.00 32.92    -0.647 OA
ENDBRANCH  16  17
ENDBRANCH  15  16
ENDBRANCH  14  15
END_RES GLU D 570
ENDMDL
MODEL 7
REMARK VINA RESULT:      -8.7      1.929      3.088
REMARK  5 active torsions:
REMARK  status: ('A' for Active; 'I' for Inactive)
REMARK    1  A    between atoms: C_4  and  N_7 
REMARK    2  A    between atoms: N_9  and  C_11 
REMARK    3  A    between atoms: C_14  and  N_17 
REMARK    4  A    between atoms: N_19  and  C_21 
REMARK    5  A    between atoms: C_22  and  O_31 
ROOT
HETATM    1  C   UNL     1     -21.758  -4.208  -9.182  1.00  0.00     0.048 A 
HETATM    2  C   UNL     1     -22.461  -4.428  -7.993  1.00  0.00     0.033 A 
HETATM    3  C   UNL     1     -21.899  -5.171  -6.933  1.00  0.00     0.033 A 
HETATM    4  C   UNL     1     -20.619  -5.722  -7.018  1.00  0.00     0.048 A 
HETATM    5  C   UNL     1     -19.913  -5.496  -8.205  1.00  0.00     0.033 A 
HETATM    6  C   UNL     1     -20.477  -4.762  -9.269  1.00  0.00     0.033 A 
ENDROOT
BRANCH   4   7
HETATM    7  N   UNL     1     -20.001  -6.511  -6.015  1.00  0.00    -0.300 N 
HETATM    8  N   UNL     1     -20.447  -7.682  -5.911  1.00  0.00    -0.297 N 
ATOM      9  HN  UNL     1     -21.081  -8.127  -6.574  1.00  0.00     0.187 HD
ATOM     10  HN  UNL     1     -19.252  -6.155  -5.422  1.00  0.00     0.187 HD
BRANCH   8  11
HETATM   11  C   UNL     1     -19.934  -8.300  -4.730  1.00  0.00     0.092 C 
HETATM   12  C   UNL     1     -18.884  -9.235  -4.819  1.00  0.00     0.094 C 
HETATM   13  C   UNL     1     -18.353  -9.864  -3.685  1.00  0.00     0.040 C 
HETATM   14  C   UNL     1     -18.764  -9.442  -2.425  1.00  0.00     0.015 C 
HETATM   15  C   UNL     1     -19.803  -8.510  -2.296  1.00  0.00    -0.024 C 
HETATM   16  C   UNL     1     -20.208  -8.082  -1.032  1.00  0.00     0.012 C 
HETATM   17  C   UNL     1     -20.501  -8.058  -3.447  1.00  0.00     0.005 C 
HETATM   18  C   UNL     1     -21.495  -7.596  -0.847  1.00  0.00     0.001 C 
HETATM   19  C   UNL     1     -22.284  -7.310  -1.952  1.00  0.00     0.001 C 
HETATM   20  C   UNL     1     -21.745  -7.431  -3.233  1.00  0.00     0.014 C 
BRANCH  12  21
HETATM   21  O   UNL     1     -18.345  -9.606  -6.014  1.00  0.00    -0.358 OA
HETATM   22  H   UNL     1     -18.053 -10.526  -5.911  1.00  0.00     0.217 HD
ENDBRANCH  12  21
ENDBRANCH   8  11
ENDBRANCH   4   7
BRANCH   1  23
HETATM   23  N   UNL     1     -22.287  -3.539 -10.315  1.00  0.00    -0.300 N 
HETATM   24  N   UNL     1     -22.819  -4.309 -11.147  1.00  0.00    -0.300 N 
ATOM     25  HN  UNL     1     -22.928  -5.312 -10.989  1.00  0.00     0.187 HD
ATOM     26  HN  UNL     1     -22.238  -2.528 -10.440  1.00  0.00     0.187 HD
BRANCH  24  27
HETATM   27  C   UNL     1     -23.255  -3.655 -12.333  1.00  0.00     0.048 A 
HETATM   28  C   UNL     1     -24.491  -2.997 -12.454  1.00  0.00     0.031 A 
HETATM   29  C   UNL     1     -24.826  -2.329 -13.636  1.00  0.00     0.002 A 
HETATM   30  C   UNL     1     -23.939  -2.276 -14.706  1.00  0.00     0.000 A 
HETATM   31  C   UNL     1     -22.713  -2.931 -14.600  1.00  0.00     0.002 A 
HETATM   32  C   UNL     1     -22.381  -3.612 -13.423  1.00  0.00     0.031 A 
ENDBRANCH  24  27
ENDBRANCH   1  23
TORSDOF 5
BEGIN_RES ARG D 557
REMARK  4 active torsions:
REMARK  status: ('A' for Active; 'I' for Inactive)
REMARK    1  A    between atoms: CA   and  CB  
REMARK    2  A    between atoms: CB   and  CG  
REMARK    3  A    between atoms: CG   and  CD  
REMARK    4  A    between atoms: CD   and  NE  
REMARK       I    between atoms: NE   and  CZ  
REMARK       I    between atoms: CZ   and  NH1 
REMARK       I    between atoms: CZ   and  NH2 
ROOT
ATOM      1  CA  ARG D 557     -26.217   2.705 -17.014  1.00 35.49     0.159 C 
ENDROOT
BRANCH   1   2
ATOM      2  CB  ARG D 557     -26.789   1.319 -17.183  1.00 35.49     0.034 C 
BRANCH   2   3
ATOM      3  CG  ARG D 557     -26.010   0.209 -16.621  1.00 35.49     0.027 C 
BRANCH   3   4
ATOM      4  CD  ARG D 557     -26.829  -0.679 -15.766  1.00 35.49     0.116 C 
BRANCH   4   5
ATOM      5  NE  ARG D 557     -27.597  -1.619 -16.539  1.00 35.49    -0.212 N 
ATOM      6  CZ  ARG D 557     -28.842  -1.459 -16.928  1.00 35.49     0.666 C 
ATOM      7  NH1 ARG D 557     -29.546  -0.384 -16.625  1.00 35.49    -0.235 N 
ATOM      8  NH2 ARG D 557     -29.374  -2.407 -17.643  1.00 35.49    -0.235 N 
ATOM      9  HH  ARG D 557     -29.215   0.253 -16.158  1.00 35.49     0.174 HD
ATOM     10  HH  ARG D 557     -30.353  -0.333 -16.909  1.00 35.49     0.174 HD
ATOM     11  HH  ARG D 557     -28.893  -3.086 -17.830  1.00 35.49     0.174 HD
ATOM     12  HH  ARG D 557     -30.174  -2.337 -17.916  1.00 35.49     0.174 HD
ATOM     13  HE  ARG D 557     -27.244  -2.373 -16.717  1.00 35.49     0.178 HD
ENDBRANCH   4   5
ENDBRANCH   3   4
ENDBRANCH   2   3
ENDBRANCH   1   2
END_RES ARG D 557
BEGIN_RES GLU D 570
REMARK  3 active torsions:
REMARK  status: ('A' for Active; 'I' for Inactive)
REMARK    5  A    between atoms: CA   and  CB  
REMARK    6  A    between atoms: CB   and  CG  
REMARK    7  A    between atoms: CG   and  CD  
ROOT
ATOM     14  CA  GLU D 570     -18.033  -6.348 -13.375  1.00 32.92     0.160 C 
ENDROOT
BRANCH  14  15
ATOM     15  CB  GLU D 570     -19.500  -6.345 -13.794  1.00 32.92     0.043 C 
BRANCH  15  16
ATOM     16  CG  GLU D 570     -19.796  -6.375 -15.250  1.00 32.92     0.100 C 
BRANCH  16  17
ATOM     17  CD  GLU D 570     -20.920  -7.321 -15.603  1.00 32.92     0.185 C 
ATOM     18  OE1 GLU D 570     -20.695  -8.546 -15.628  1.00 32.92    -0.647 OA
ATOM     19  OE2 GLU D 570     -22.034  -6.830 -15.873  1.00 32.92    -0.647 OA
ENDBRANCH  16  17
ENDBRANCH  15  16
ENDBRANCH  14  15
END_RES GLU D 570
ENDMDL
MODEL 8
REMARK VINA RESULT:      -8.6      1.318      2.327
REMARK  5 active torsions:
REMARK  status: ('A' for Active; 'I' for Inactive)
REMARK    1  A    between atoms: C_4  and  N_7 
REMARK    2  A    between atoms: N_9  and  C_11 
REMARK    3  A    between atoms: C_14  and  N_17 
REMARK    4  A    between atoms: N_19  and  C_21 
REMARK    5  A    between atoms: C_22  and  O_31 
ROOT
HETATM    1  C   UNL     1     -21.706  -5.224  -7.569  1.00  0.00     0.048 A 
HETATM    2  C   UNL     1     -22.758  -5.207  -6.649  1.00  0.00     0.033 A 
HETATM    3  C   UNL     1     -22.687  -5.925  -5.436  1.00  0.00     0.033 A 
HETATM    4  C   UNL     1     -21.566  -6.685  -5.096  1.00  0.00     0.048 A 
HETATM    5  C   UNL     1     -20.509  -6.695  -6.013  1.00  0.00     0.033 A 
HETATM    6  C   UNL     1     -20.583  -5.987  -7.231  1.00  0.00     0.033 A 
ENDROOT
BRANCH   4   7
HETATM    7  N   UNL     1     -21.433  -7.461  -3.917  1.00  0.00    -0.300 N 
HETATM    8  N   UNL     1     -20.284  -7.930  -3.716  1.00  0.00    -0.297 N 
ATOM      9  HN  UNL     1     -19.447  -7.668  -4.236  1.00  0.00     0.187 HD
ATOM     10  HN  UNL     1     -22.212  -7.628  -3.281  1.00  0.00     0.187 HD
BRANCH   8  11
HETATM   11  C   UNL     1     -20.320  -8.881  -2.651  1.00  0.00     0.092 C 
HETATM   12  C   UNL     1     -19.780 -10.168  -2.835  1.00  0.00     0.094 C 
HETATM   13  C   UNL     1     -19.796 -11.131  -1.816  1.00  0.00     0.040 C 
HETATM   14  C   UNL     1     -20.213 -10.759  -0.543  1.00  0.00     0.015 C 
HETATM   15  C   UNL     1     -20.752  -9.485  -0.321  1.00  0.00    -0.024 C 
HETATM   16  C   UNL     1     -21.162  -9.111   0.959  1.00  0.00     0.012 C 
HETATM   17  C   UNL     1     -20.957  -8.598  -1.410  1.00  0.00     0.005 C 
HETATM   18  C   UNL     1     -22.124  -8.121   1.114  1.00  0.00     0.001 C 
HETATM   19  C   UNL     1     -22.488  -7.345   0.024  1.00  0.00     0.001 C 
HETATM   20  C   UNL     1     -21.824  -7.509  -1.192  1.00  0.00     0.014 C 
BRANCH  12  21
HETATM   21  O   UNL     1     -19.239 -10.564  -4.021  1.00  0.00    -0.358 OA
HETATM   22  H   UNL     1     -18.680  -9.833  -4.327  1.00  0.00     0.217 HD
ENDBRANCH  12  21
ENDBRANCH   8  11
ENDBRANCH   4   7
BRANCH   1  23
HETATM   23  N   UNL     1     -21.738  -4.592  -8.838  1.00  0.00    -0.300 N 
HETATM   24  N   UNL     1     -22.879  -4.565  -9.354  1.00  0.00    -0.300 N 
ATOM     25  HN  UNL     1     -23.717  -4.898  -8.875  1.00  0.00     0.187 HD
ATOM     26  HN  UNL     1     -20.912  -4.197  -9.287  1.00  0.00     0.187 HD
BRANCH  24  27
HETATM   27  C   UNL     1     -22.898  -4.026 -10.671  1.00  0.00     0.048 A 
HETATM   28  C   UNL     1     -21.847  -4.172 -11.591  1.00  0.00     0.031 A 
HETATM   29  C   UNL     1     -21.962  -3.660 -12.887  1.00  0.00     0.002 A 
HETATM   30  C   UNL     1     -23.125  -3.021 -13.306  1.00  0.00     0.000 A 
HETATM   31  C   UNL     1     -24.173  -2.866 -12.399  1.00  0.00     0.002 A 
HETATM   32  C   UNL     1     -24.054  -3.365 -11.097  1.00  0.00     0.031 A 
ENDBRANCH  24  27
ENDBRANCH   1  23
TORSDOF 5
BEGIN_RES ARG D 557
REMARK  4 active torsions:
REMARK  status: ('A' for Active; 'I' for Inactive)
REMARK    1  A    between atoms: CA   and  CB  
REMARK    2  A    between atoms: CB   and  CG  
REMARK    3  A    between atoms: CG   and  CD  
REMARK    4  A    between atoms: CD   and  NE  
REMARK       I    between atoms: NE   and  CZ  
REMARK       I    between atoms: CZ   and  NH1 
REMARK       I    between atoms: CZ   and  NH2 
ROOT
ATOM      1  CA  ARG D 557     -26.217   2.705 -17.014  1.00 35.49     0.159 C 
ENDROOT
BRANCH   1   2
ATOM      2  CB  ARG D 557     -26.789   1.319 -17.183  1.00 35.49     0.034 C 
BRANCH   2   3
ATOM      3  CG  ARG D 557     -28.223   1.159 -16.914  1.00 35.49     0.027 C 
BRANCH   3   4
ATOM      4  CD  ARG D 557     -28.615  -0.262 -16.770  1.00 35.49     0.116 C 
BRANCH   4   5
ATOM      5  NE  ARG D 557     -27.620  -1.031 -16.071  1.00 35.49    -0.212 N 
ATOM      6  CZ  ARG D 557     -27.471  -2.335 -16.136  1.00 35.49     0.666 C 
ATOM      7  NH1 ARG D 557     -28.258  -3.103 -16.867  1.00 35.49    -0.235 N 
ATOM      8  NH2 ARG D 557     -26.500  -2.864 -15.450  1.00 35.49    -0.235 N 
ATOM      9  HH  ARG D 557     -28.902  -2.776 -17.328  1.00 35.49     0.174 HD
ATOM     10  HH  ARG D 557     -28.111  -3.947 -16.873  1.00 35.49     0.174 HD
ATOM     11  HH  ARG D 557     -26.003  -2.343 -14.992  1.00 35.49     0.174 HD
ATOM     12  HH  ARG D 557     -26.370  -3.701 -15.470  1.00 35.49     0.174 HD
ATOM     13  HE  ARG D 557     -27.116  -0.625 -15.519  1.00 35.49     0.178 HD
ENDBRANCH   4   5
ENDBRANCH   3   4
ENDBRANCH   2   3
ENDBRANCH   1   2
END_RES ARG D 557
BEGIN_RES GLU D 570
REMARK  3 active torsions:
REMARK  status: ('A' for Active; 'I' for Inactive)
REMARK    5  A    between atoms: CA   and  CB  
REMARK    6  A    between atoms: CB   and  CG  
REMARK    7  A    between atoms: CG   and  CD  
ROOT
ATOM     14  CA  GLU D 570     -18.033  -6.348 -13.375  1.00 32.92     0.160 C 
ENDROOT
BRANCH  14  15
ATOM     15  CB  GLU D 570     -19.500  -6.345 -13.794  1.00 32.92     0.043 C 
BRANCH  15  16
ATOM     16  CG  GLU D 570     -20.093  -7.639 -14.221  1.00 32.92     0.100 C 
BRANCH  16  17
ATOM     17  CD  GLU D 570     -20.694  -7.583 -15.606  1.00 32.92     0.185 C 
ATOM     18  OE1 GLU D 570     -20.832  -8.642 -16.248  1.00 32.92    -0.647 OA
ATOM     19  OE2 GLU D 570     -21.015  -6.467 -16.059  1.00 32.92    -0.647 OA
ENDBRANCH  16  17
ENDBRANCH  15  16
ENDBRANCH  14  15
END_RES GLU D 570
ENDMDL
MODEL 9
REMARK VINA RESULT:      -8.4     14.537     16.581
REMARK  5 active torsions:
REMARK  status: ('A' for Active; 'I' for Inactive)
REMARK    1  A    between atoms: C_4  and  N_7 
REMARK    2  A    between atoms: N_9  and  C_11 
REMARK    3  A    between atoms: C_14  and  N_17 
REMARK    4  A    between atoms: N_19  and  C_21 
REMARK    5  A    between atoms: C_22  and  O_31 
ROOT
HETATM    1  C   UNL     1     -18.836  10.285   3.158  1.00  0.00     0.048 A 
HETATM    2  C   UNL     1     -19.187  10.980   1.996  1.00  0.00     0.033 A 
HETATM    3  C   UNL     1     -20.485  10.892   1.451  1.00  0.00     0.033 A 
HETATM    4  C   UNL     1     -21.481  10.111   2.041  1.00  0.00     0.048 A 
HETATM    5  C   UNL     1     -21.133   9.423   3.208  1.00  0.00     0.033 A 
HETATM    6  C   UNL     1     -19.832   9.500   3.749  1.00  0.00     0.033 A 
ENDROOT
BRANCH   4   7
HETATM    7  N   UNL     1     -22.794   9.943   1.534  1.00  0.00    -0.300 N 
HETATM    8  N   UNL     1     -23.297   8.806   1.728  1.00  0.00    -0.297 N 
ATOM      9  HN  UNL     1     -22.900   8.088   2.333  1.00  0.00     0.187 HD
ATOM     10  HN  UNL     1     -23.294  10.688   1.049  1.00  0.00     0.187 HD
BRANCH   8  11
HETATM   11  C   UNL     1     -24.504   8.668   0.977  1.00  0.00     0.092 C 
HETATM   12  C   UNL     1     -25.716   9.170   1.488  1.00  0.00     0.094 C 
HETATM   13  C   UNL     1     -26.922   9.053   0.783  1.00  0.00     0.040 C 
HETATM   14  C   UNL     1     -26.897   8.571  -0.521  1.00  0.00     0.015 C 
HETATM   15  C   UNL     1     -25.708   8.067  -1.065  1.00  0.00    -0.024 C 
HETATM   16  C   UNL     1     -25.684   7.592  -2.376  1.00  0.00     0.012 C 
HETATM   17  C   UNL     1     -24.544   7.965  -0.260  1.00  0.00     0.005 C 
HETATM   18  C   UNL     1     -24.726   6.660  -2.755  1.00  0.00     0.001 C 
HETATM   19  C   UNL     1     -23.659   6.394  -1.910  1.00  0.00     0.001 C 
HETATM   20  C   UNL     1     -23.513   7.127  -0.732  1.00  0.00     0.014 C 
BRANCH  12  21
HETATM   21  O   UNL     1     -25.794   9.769   2.709  1.00  0.00    -0.358 OA
HETATM   22  H   UNL     1     -25.260  10.578   2.653  1.00  0.00     0.217 HD
ENDBRANCH  12  21
ENDBRANCH   8  11
ENDBRANCH   4   7
BRANCH   1  23
HETATM   23  N   UNL     1     -17.534  10.264   3.719  1.00  0.00    -0.300 N 
HETATM   24  N   UNL     1     -17.155   9.119   4.058  1.00  0.00    -0.300 N 
ATOM     25  HN  UNL     1     -17.700   8.275   3.879  1.00  0.00     0.187 HD
ATOM     26  HN  UNL     1     -16.962  11.100   3.835  1.00  0.00     0.187 HD
BRANCH  24  27
HETATM   27  C   UNL     1     -15.894   9.108   4.717  1.00  0.00     0.048 A 
HETATM   28  C   UNL     1     -15.739   9.008   6.110  1.00  0.00     0.031 A 
HETATM   29  C   UNL     1     -14.464   8.948   6.680  1.00  0.00     0.002 A 
HETATM   30  C   UNL     1     -13.322   8.957   5.886  1.00  0.00     0.000 A 
HETATM   31  C   UNL     1     -13.463   9.063   4.502  1.00  0.00     0.002 A 
HETATM   32  C   UNL     1     -14.738   9.137   3.931  1.00  0.00     0.031 A 
ENDBRANCH  24  27
ENDBRANCH   1  23
TORSDOF 5
BEGIN_RES ARG D 557
REMARK  4 active torsions:
REMARK  status: ('A' for Active; 'I' for Inactive)
REMARK    1  A    between atoms: CA   and  CB  
REMARK    2  A    between atoms: CB   and  CG  
REMARK    3  A    between atoms: CG   and  CD  
REMARK    4  A    between atoms: CD   and  NE  
REMARK       I    between atoms: NE   and  CZ  
REMARK       I    between atoms: CZ   and  NH1 
REMARK       I    between atoms: CZ   and  NH2 
ROOT
ATOM      1  CA  ARG D 557     -26.217   2.705 -17.014  1.00 35.49     0.159 C 
ENDROOT
BRANCH   1   2
ATOM      2  CB  ARG D 557     -26.789   1.319 -17.183  1.00 35.49     0.034 C 
BRANCH   2   3
ATOM      3  CG  ARG D 557     -28.233   1.226 -17.433  1.00 35.49     0.027 C 
BRANCH   3   4
ATOM      4  CD  ARG D 557     -28.909   0.301 -16.496  1.00 35.49     0.116 C 
BRANCH   4   5
ATOM      5  NE  ARG D 557     -29.317  -0.920 -17.139  1.00 35.49    -0.212 N 
ATOM      6  CZ  ARG D 557     -28.705  -2.079 -17.045  1.00 35.49     0.666 C 
ATOM      7  NH1 ARG D 557     -27.603  -2.244 -16.337  1.00 35.49    -0.235 N 
ATOM      8  NH2 ARG D 557     -29.228  -3.088 -17.680  1.00 35.49    -0.235 N 
ATOM      9  HH  ARG D 557     -27.242  -1.595 -15.910  1.00 35.49     0.174 HD
ATOM     10  HH  ARG D 557     -27.249  -3.024 -16.311  1.00 35.49     0.174 HD
ATOM     11  HH  ARG D 557     -29.944  -2.953 -18.123  1.00 35.49     0.174 HD
ATOM     12  HH  ARG D 557     -28.864  -3.852 -17.640  1.00 35.49     0.174 HD
ATOM     13  HE  ARG D 557     -29.977  -0.889 -17.674  1.00 35.49     0.178 HD
ENDBRANCH   4   5
ENDBRANCH   3   4
ENDBRANCH   2   3
ENDBRANCH   1   2
END_RES ARG D 557
BEGIN_RES GLU D 570
REMARK  3 active torsions:
REMARK  status: ('A' for Active; 'I' for Inactive)
REMARK    5  A    between atoms: CA   and  CB  
REMARK    6  A    between atoms: CB   and  CG  
REMARK    7  A    between atoms: CG   and  CD  
ROOT
ATOM     14  CA  GLU D 570     -18.033  -6.348 -13.375  1.00 32.92     0.160 C 
ENDROOT
BRANCH  14  15
ATOM     15  CB  GLU D 570     -19.500  -6.345 -13.794  1.00 32.92     0.043 C 
BRANCH  15  16
ATOM     16  CG  GLU D 570     -20.440  -5.523 -12.989  1.00 32.92     0.100 C 
BRANCH  16  17
ATOM     17  CD  GLU D 570     -21.733  -5.227 -13.713  1.00 32.92     0.185 C 
ATOM     18  OE1 GLU D 570     -22.164  -6.051 -14.543  1.00 32.92    -0.647 OA
ATOM     19  OE2 GLU D 570     -22.312  -4.153 -13.460  1.00 32.92    -0.647 OA
ENDBRANCH  16  17
ENDBRANCH  15  16
ENDBRANCH  14  15
END_RES GLU D 570
ENDMDL
