MODEL 1
REMARK VINA RESULT:      -6.2      0.000      0.000
REMARK  10 active torsions:
REMARK  status: ('A' for Active; 'I' for Inactive)
REMARK    1  A    between atoms: C_1  and  C_2 
REMARK    2  A    between atoms: C_1  and  C_8 
REMARK    3  A    between atoms: C_2  and  C_3 
REMARK    4  A    between atoms: C_3  and  C_4 
REMARK    5  A    between atoms: C_4  and  C_5 
REMARK    6  A    between atoms: C_5  and  O_7 
REMARK    7  A    between atoms: C_8  and  C_9 
REMARK    8  A    between atoms: C_9  and  C_10 
REMARK    9  A    between atoms: C_10  and  C_11 
REMARK   10  A    between atoms: C_11  and  O_13 
ROOT
HETATM    1  C   UNL     1     -20.995  -4.317 -11.639  1.00  0.00     0.000 C 
ENDROOT
BRANCH   1   2
HETATM    2  C   UNL     1     -21.070  -3.736 -10.223  1.00  0.00     0.001 C 
BRANCH   2   3
HETATM    3  C   UNL     1     -21.960  -4.560  -9.296  1.00  0.00     0.010 C 
BRANCH   3   4
HETATM    4  C   UNL     1     -23.062  -3.720  -8.646  1.00  0.00     0.110 C 
BRANCH   4   5
HETATM    5  C   UNL     1     -24.374  -3.857  -9.369  1.00  0.00     0.139 C 
HETATM    6  O   UNL     1     -24.742  -4.839  -9.994  1.00  0.00    -0.650 OA
BRANCH   5   7
HETATM    7  O   UNL     1     -25.145  -2.750  -9.244  1.00  0.00    -0.776 OA
HETATM    8  H   UNL     1     -25.237  -2.242 -10.075  1.00  0.00     0.167 HD
ENDBRANCH   5   7
ENDBRANCH   4   5
ENDBRANCH   3   4
ENDBRANCH   2   3
ENDBRANCH   1   2
BRANCH   1   9
HETATM    9  C   UNL     1     -22.302  -4.171 -12.416  1.00  0.00     0.001 C 
BRANCH   9  10
HETATM   10  C   UNL     1     -22.773  -2.718 -12.453  1.00  0.00     0.010 C 
BRANCH  10  11
HETATM   11  C   UNL     1     -24.107  -2.556 -13.165  1.00  0.00     0.110 C 
BRANCH  11  12
HETATM   12  C   UNL     1     -23.939  -1.765 -14.444  1.00  0.00     0.139 C 
HETATM   13  O   UNL     1     -23.079  -1.954 -15.288  1.00  0.00    -0.650 OA
BRANCH  12  14
HETATM   14  O   UNL     1     -24.872  -0.792 -14.567  1.00  0.00    -0.776 OA
HETATM   15  H   UNL     1     -24.598   0.062 -14.188  1.00  0.00     0.167 HD
ENDBRANCH  12  14
ENDBRANCH  11  12
ENDBRANCH  10  11
ENDBRANCH   9  10
ENDBRANCH   1   9
TORSDOF 10
BEGIN_RES ARG D 557
REMARK  4 active torsions:
REMARK  status: ('A' for Active; 'I' for Inactive)
REMARK    1  A    between atoms: CA   and  CB  
REMARK    2  A    between atoms: CB   and  CG  
REMARK    3  A    between atoms: CG   and  CD  
REMARK    4  A    between atoms: CD   and  NE  
REMARK       I    between atoms: NE   and  CZ  
REMARK       I    between atoms: CZ   and  NH1 
REMARK       I    between atoms: CZ   and  NH2 
ROOT
ATOM      1  CA  ARG D 557     -26.217   2.705 -17.014  1.00 35.49     0.159 C 
ENDROOT
BRANCH   1   2
ATOM      2  CB  ARG D 557     -26.789   1.319 -17.183  1.00 35.49     0.034 C 
BRANCH   2   3
ATOM      3  CG  ARG D 557     -28.204   1.141 -16.834  1.00 35.49     0.027 C 
BRANCH   3   4
ATOM      4  CD  ARG D 557     -28.626  -0.277 -16.897  1.00 35.49     0.116 C 
BRANCH   4   5
ATOM      5  NE  ARG D 557     -27.711  -1.147 -16.207  1.00 35.49    -0.212 N 
ATOM      6  CZ  ARG D 557     -27.673  -2.457 -16.307  1.00 35.49     0.666 C 
ATOM      7  NH1 ARG D 557     -28.512  -3.134 -17.069  1.00 35.49    -0.235 N 
ATOM      8  NH2 ARG D 557     -26.760  -3.085 -15.624  1.00 35.49    -0.235 N 
ATOM      9  HH  ARG D 557     -29.119  -2.741 -17.528  1.00 35.49     0.174 HD
ATOM     10  HH  ARG D 557     -28.438  -3.988 -17.097  1.00 35.49     0.174 HD
ATOM     11  HH  ARG D 557     -26.227  -2.621 -15.147  1.00 35.49     0.174 HD
ATOM     12  HH  ARG D 557     -26.702  -3.930 -15.667  1.00 35.49     0.174 HD
ATOM     13  HE  ARG D 557     -27.182  -0.800 -15.639  1.00 35.49     0.178 HD
ENDBRANCH   4   5
ENDBRANCH   3   4
ENDBRANCH   2   3
ENDBRANCH   1   2
END_RES ARG D 557
BEGIN_RES GLU D 570
REMARK  3 active torsions:
REMARK  status: ('A' for Active; 'I' for Inactive)
REMARK    5  A    between atoms: CA   and  CB  
REMARK    6  A    between atoms: CB   and  CG  
REMARK    7  A    between atoms: CG   and  CD  
ROOT
ATOM     14  CA  GLU D 570     -18.033  -6.348 -13.375  1.00 32.92     0.160 C 
ENDROOT
BRANCH  14  15
ATOM     15  CB  GLU D 570     -19.500  -6.345 -13.794  1.00 32.92     0.043 C 
BRANCH  15  16
ATOM     16  CG  GLU D 570     -19.808  -5.994 -15.204  1.00 32.92     0.100 C 
BRANCH  16  17
ATOM     17  CD  GLU D 570     -21.287  -5.815 -15.457  1.00 32.92     0.185 C 
ATOM     18  OE1 GLU D 570     -22.084  -6.662 -15.010  1.00 32.92    -0.647 OA
ATOM     19  OE2 GLU D 570     -21.651  -4.827 -16.125  1.00 32.92    -0.647 OA
ENDBRANCH  16  17
ENDBRANCH  15  16
ENDBRANCH  14  15
END_RES GLU D 570
ENDMDL
MODEL 2
REMARK VINA RESULT:      -6.2      0.568      3.648
REMARK  10 active torsions:
REMARK  status: ('A' for Active; 'I' for Inactive)
REMARK    1  A    between atoms: C_1  and  C_2 
REMARK    2  A    between atoms: C_1  and  C_8 
REMARK    3  A    between atoms: C_2  and  C_3 
REMARK    4  A    between atoms: C_3  and  C_4 
REMARK    5  A    between atoms: C_4  and  C_5 
REMARK    6  A    between atoms: C_5  and  O_7 
REMARK    7  A    between atoms: C_8  and  C_9 
REMARK    8  A    between atoms: C_9  and  C_10 
REMARK    9  A    between atoms: C_10  and  C_11 
REMARK   10  A    between atoms: C_11  and  O_13 
ROOT
HETATM    1  C   UNL     1     -21.607  -3.365 -11.989  1.00  0.00     0.000 C 
ENDROOT
BRANCH   1   2
HETATM    2  C   UNL     1     -22.434  -4.555 -12.489  1.00  0.00     0.001 C 
BRANCH   2   3
HETATM    3  C   UNL     1     -23.719  -4.124 -13.191  1.00  0.00     0.010 C 
BRANCH   3   4
HETATM    4  C   UNL     1     -23.926  -2.608 -13.152  1.00  0.00     0.110 C 
BRANCH   4   5
HETATM    5  C   UNL     1     -24.175  -2.040 -14.522  1.00  0.00     0.139 C 
HETATM    6  O   UNL     1     -25.215  -1.521 -14.898  1.00  0.00    -0.650 OA
BRANCH   5   7
HETATM    7  O   UNL     1     -23.090  -2.148 -15.326  1.00  0.00    -0.776 OA
HETATM    8  H   UNL     1     -23.199  -1.707 -16.191  1.00  0.00     0.167 HD
ENDBRANCH   5   7
ENDBRANCH   4   5
ENDBRANCH   3   4
ENDBRANCH   2   3
ENDBRANCH   1   2
BRANCH   1   9
HETATM    9  C   UNL     1     -21.027  -3.584 -10.594  1.00  0.00     0.001 C 
BRANCH   9  10
HETATM   10  C   UNL     1     -21.925  -4.485  -9.748  1.00  0.00     0.010 C 
BRANCH  10  11
HETATM   11  C   UNL     1     -22.900  -3.695  -8.889  1.00  0.00     0.110 C 
BRANCH  11  12
HETATM   12  C   UNL     1     -24.310  -3.818  -9.426  1.00  0.00     0.139 C 
HETATM   13  O   UNL     1     -24.802  -4.826  -9.903  1.00  0.00    -0.650 OA
BRANCH  12  14
HETATM   14  O   UNL     1     -24.997  -2.657  -9.320  1.00  0.00    -0.776 OA
HETATM   15  H   UNL     1     -24.439  -1.863  -9.401  1.00  0.00     0.167 HD
ENDBRANCH  12  14
ENDBRANCH  11  12
ENDBRANCH  10  11
ENDBRANCH   9  10
ENDBRANCH   1   9
TORSDOF 10
BEGIN_RES ARG D 557
REMARK  4 active torsions:
REMARK  status: ('A' for Active; 'I' for Inactive)
REMARK    1  A    between atoms: CA   and  CB  
REMARK    2  A    between atoms: CB   and  CG  
REMARK    3  A    between atoms: CG   and  CD  
REMARK    4  A    between atoms: CD   and  NE  
REMARK       I    between atoms: NE   and  CZ  
REMARK       I    between atoms: CZ   and  NH1 
REMARK       I    between atoms: CZ   and  NH2 
ROOT
ATOM      1  CA  ARG D 557     -26.217   2.705 -17.014  1.00 35.49     0.159 C 
ENDROOT
BRANCH   1   2
ATOM      2  CB  ARG D 557     -26.789   1.319 -17.183  1.00 35.49     0.034 C 
BRANCH   2   3
ATOM      3  CG  ARG D 557     -28.184   1.125 -16.768  1.00 35.49     0.027 C 
BRANCH   3   4
ATOM      4  CD  ARG D 557     -28.698  -0.217 -17.127  1.00 35.49     0.116 C 
BRANCH   4   5
ATOM      5  NE  ARG D 557     -27.927  -1.272 -16.524  1.00 35.49    -0.212 N 
ATOM      6  CZ  ARG D 557     -28.120  -2.560 -16.698  1.00 35.49     0.666 C 
ATOM      7  NH1 ARG D 557     -29.085  -3.036 -17.463  1.00 35.49    -0.235 N 
ATOM      8  NH2 ARG D 557     -27.311  -3.376 -16.088  1.00 35.49    -0.235 N 
ATOM      9  HH  ARG D 557     -29.628  -2.517 -17.876  1.00 35.49     0.174 HD
ATOM     10  HH  ARG D 557     -29.161  -3.885 -17.542  1.00 35.49     0.174 HD
ATOM     11  HH  ARG D 557     -26.692  -3.041 -15.607  1.00 35.49     0.174 HD
ATOM     12  HH  ARG D 557     -27.401  -4.214 -16.179  1.00 35.49     0.174 HD
ATOM     13  HE  ARG D 557     -27.330  -1.057 -15.958  1.00 35.49     0.178 HD
ENDBRANCH   4   5
ENDBRANCH   3   4
ENDBRANCH   2   3
ENDBRANCH   1   2
END_RES ARG D 557
BEGIN_RES GLU D 570
REMARK  3 active torsions:
REMARK  status: ('A' for Active; 'I' for Inactive)
REMARK    5  A    between atoms: CA   and  CB  
REMARK    6  A    between atoms: CB   and  CG  
REMARK    7  A    between atoms: CG   and  CD  
ROOT
ATOM     14  CA  GLU D 570     -18.033  -6.348 -13.375  1.00 32.92     0.160 C 
ENDROOT
BRANCH  14  15
ATOM     15  CB  GLU D 570     -19.500  -6.345 -13.794  1.00 32.92     0.043 C 
BRANCH  15  16
ATOM     16  CG  GLU D 570     -19.799  -6.171 -15.239  1.00 32.92     0.100 C 
BRANCH  16  17
ATOM     17  CD  GLU D 570     -21.252  -5.855 -15.506  1.00 32.92     0.185 C 
ATOM     18  OE1 GLU D 570     -21.556  -4.729 -15.945  1.00 32.92    -0.647 OA
ATOM     19  OE2 GLU D 570     -22.097  -6.738 -15.258  1.00 32.92    -0.647 OA
ENDBRANCH  16  17
ENDBRANCH  15  16
ENDBRANCH  14  15
END_RES GLU D 570
ENDMDL
MODEL 3
REMARK VINA RESULT:      -6.0      3.240      5.694
REMARK  10 active torsions:
REMARK  status: ('A' for Active; 'I' for Inactive)
REMARK    1  A    between atoms: C_1  and  C_2 
REMARK    2  A    between atoms: C_1  and  C_8 
REMARK    3  A    between atoms: C_2  and  C_3 
REMARK    4  A    between atoms: C_3  and  C_4 
REMARK    5  A    between atoms: C_4  and  C_5 
REMARK    6  A    between atoms: C_5  and  O_7 
REMARK    7  A    between atoms: C_8  and  C_9 
REMARK    8  A    between atoms: C_9  and  C_10 
REMARK    9  A    between atoms: C_10  and  C_11 
REMARK   10  A    between atoms: C_11  and  O_13 
ROOT
HETATM    1  C   UNL     1     -19.839  -4.072  -8.056  1.00  0.00     0.000 C 
ENDROOT
BRANCH   1   2
HETATM    2  C   UNL     1     -20.481  -4.382  -9.412  1.00  0.00     0.001 C 
BRANCH   2   3
HETATM    3  C   UNL     1     -21.999  -4.516  -9.327  1.00  0.00     0.010 C 
BRANCH   3   4
HETATM    4  C   UNL     1     -22.724  -3.558 -10.275  1.00  0.00     0.110 C 
BRANCH   4   5
HETATM    5  C   UNL     1     -24.183  -3.426  -9.932  1.00  0.00     0.139 C 
HETATM    6  O   UNL     1     -25.084  -3.220 -10.730  1.00  0.00    -0.650 OA
BRANCH   5   7
HETATM    7  O   UNL     1     -24.412  -3.577  -8.606  1.00  0.00    -0.776 OA
HETATM    8  H   UNL     1     -23.604  -3.766  -8.088  1.00  0.00     0.167 HD
ENDBRANCH   5   7
ENDBRANCH   4   5
ENDBRANCH   3   4
ENDBRANCH   2   3
ENDBRANCH   1   2
BRANCH   1   9
HETATM    9  C   UNL     1     -20.848  -4.039  -6.909  1.00  0.00     0.001 C 
BRANCH   9  10
HETATM   10  C   UNL     1     -20.342  -4.817  -5.696  1.00  0.00     0.010 C 
BRANCH  10  11
HETATM   11  C   UNL     1     -20.662  -6.302  -5.781  1.00  0.00     0.110 C 
BRANCH  11  12
HETATM   12  C   UNL     1     -21.572  -6.721  -4.647  1.00  0.00     0.139 C 
HETATM   13  O   UNL     1     -22.003  -5.986  -3.774  1.00  0.00    -0.650 OA
BRANCH  12  14
HETATM   14  O   UNL     1     -21.876  -8.039  -4.698  1.00  0.00    -0.776 OA
HETATM   15  H   UNL     1     -21.356  -8.534  -5.357  1.00  0.00     0.167 HD
ENDBRANCH  12  14
ENDBRANCH  11  12
ENDBRANCH  10  11
ENDBRANCH   9  10
ENDBRANCH   1   9
TORSDOF 10
BEGIN_RES ARG D 557
REMARK  4 active torsions:
REMARK  status: ('A' for Active; 'I' for Inactive)
REMARK    1  A    between atoms: CA   and  CB  
REMARK    2  A    between atoms: CB   and  CG  
REMARK    3  A    between atoms: CG   and  CD  
REMARK    4  A    between atoms: CD   and  NE  
REMARK       I    between atoms: NE   and  CZ  
REMARK       I    between atoms: CZ   and  NH1 
REMARK       I    between atoms: CZ   and  NH2 
ROOT
ATOM      1  CA  ARG D 557     -26.217   2.705 -17.014  1.00 35.49     0.159 C 
ENDROOT
BRANCH   1   2
ATOM      2  CB  ARG D 557     -26.789   1.319 -17.183  1.00 35.49     0.034 C 
BRANCH   2   3
ATOM      3  CG  ARG D 557     -25.838   0.202 -17.139  1.00 35.49     0.027 C 
BRANCH   3   4
ATOM      4  CD  ARG D 557     -24.766   0.412 -16.140  1.00 35.49     0.116 C 
BRANCH   4   5
ATOM      5  NE  ARG D 557     -24.915  -0.448 -14.995  1.00 35.49    -0.212 N 
ATOM      6  CZ  ARG D 557     -24.098  -1.418 -14.653  1.00 35.49     0.666 C 
ATOM      7  NH1 ARG D 557     -23.025  -1.724 -15.358  1.00 35.49    -0.235 N 
ATOM      8  NH2 ARG D 557     -24.377  -2.084 -13.569  1.00 35.49    -0.235 N 
ATOM      9  HH  ARG D 557     -22.820  -1.299 -16.073  1.00 35.49     0.174 HD
ATOM     10  HH  ARG D 557     -22.527  -2.366 -15.084  1.00 35.49     0.174 HD
ATOM     11  HH  ARG D 557     -25.073  -1.859 -13.130  1.00 35.49     0.174 HD
ATOM     12  HH  ARG D 557     -23.871  -2.715 -13.314  1.00 35.49     0.174 HD
ATOM     13  HE  ARG D 557     -25.618  -0.368 -14.525  1.00 35.49     0.178 HD
ENDBRANCH   4   5
ENDBRANCH   3   4
ENDBRANCH   2   3
ENDBRANCH   1   2
END_RES ARG D 557
BEGIN_RES GLU D 570
REMARK  3 active torsions:
REMARK  status: ('A' for Active; 'I' for Inactive)
REMARK    5  A    between atoms: CA   and  CB  
REMARK    6  A    between atoms: CB   and  CG  
REMARK    7  A    between atoms: CG   and  CD  
ROOT
ATOM     14  CA  GLU D 570     -18.033  -6.348 -13.375  1.00 32.92     0.160 C 
ENDROOT
BRANCH  14  15
ATOM     15  CB  GLU D 570     -19.500  -6.345 -13.794  1.00 32.92     0.043 C 
BRANCH  15  16
ATOM     16  CG  GLU D 570     -20.440  -5.524 -12.988  1.00 32.92     0.100 C 
BRANCH  16  17
ATOM     17  CD  GLU D 570     -21.737  -5.235 -13.708  1.00 32.92     0.185 C 
ATOM     18  OE1 GLU D 570     -22.235  -4.096 -13.625  1.00 32.92    -0.647 OA
ATOM     19  OE2 GLU D 570     -22.269  -6.163 -14.349  1.00 32.92    -0.647 OA
ENDBRANCH  16  17
ENDBRANCH  15  16
ENDBRANCH  14  15
END_RES GLU D 570
ENDMDL
MODEL 4
REMARK VINA RESULT:      -6.0      3.203      4.258
REMARK  10 active torsions:
REMARK  status: ('A' for Active; 'I' for Inactive)
REMARK    1  A    between atoms: C_1  and  C_2 
REMARK    2  A    between atoms: C_1  and  C_8 
REMARK    3  A    between atoms: C_2  and  C_3 
REMARK    4  A    between atoms: C_3  and  C_4 
REMARK    5  A    between atoms: C_4  and  C_5 
REMARK    6  A    between atoms: C_5  and  O_7 
REMARK    7  A    between atoms: C_8  and  C_9 
REMARK    8  A    between atoms: C_9  and  C_10 
REMARK    9  A    between atoms: C_10  and  C_11 
REMARK   10  A    between atoms: C_11  and  O_13 
ROOT
HETATM    1  C   UNL     1     -20.511  -4.039  -7.377  1.00  0.00     0.000 C 
ENDROOT
BRANCH   1   2
HETATM    2  C   UNL     1     -20.077  -4.810  -6.125  1.00  0.00     0.001 C 
BRANCH   2   3
HETATM    3  C   UNL     1     -20.318  -6.312  -6.248  1.00  0.00     0.010 C 
BRANCH   3   4
HETATM    4  C   UNL     1     -20.730  -6.949  -4.919  1.00  0.00     0.110 C 
BRANCH   4   5
HETATM    5  C   UNL     1     -22.013  -6.367  -4.391  1.00  0.00     0.139 C 
HETATM    6  O   UNL     1     -23.040  -6.213  -5.034  1.00  0.00    -0.650 OA
BRANCH   5   7
HETATM    7  O   UNL     1     -21.923  -6.033  -3.082  1.00  0.00    -0.776 OA
HETATM    8  H   UNL     1     -22.306  -5.157  -2.875  1.00  0.00     0.167 HD
ENDBRANCH   5   7
ENDBRANCH   4   5
ENDBRANCH   3   4
ENDBRANCH   2   3
ENDBRANCH   1   2
BRANCH   1   9
HETATM    9  C   UNL     1     -21.994  -4.207  -7.700  1.00  0.00     0.001 C 
BRANCH   9  10
HETATM   10  C   UNL     1     -22.326  -3.682  -9.096  1.00  0.00     0.010 C 
BRANCH  10  11
HETATM   11  C   UNL     1     -23.495  -4.419  -9.733  1.00  0.00     0.110 C 
BRANCH  11  12
HETATM   12  C   UNL     1     -24.590  -3.451 -10.124  1.00  0.00     0.139 C 
HETATM   13  O   UNL     1     -24.998  -3.263 -11.258  1.00  0.00    -0.650 OA
BRANCH  12  14
HETATM   14  O   UNL     1     -25.092  -2.792  -9.055  1.00  0.00    -0.776 OA
HETATM   15  H   UNL     1     -24.688  -1.918  -8.909  1.00  0.00     0.167 HD
ENDBRANCH  12  14
ENDBRANCH  11  12
ENDBRANCH  10  11
ENDBRANCH   9  10
ENDBRANCH   1   9
TORSDOF 10
BEGIN_RES ARG D 557
REMARK  4 active torsions:
REMARK  status: ('A' for Active; 'I' for Inactive)
REMARK    1  A    between atoms: CA   and  CB  
REMARK    2  A    between atoms: CB   and  CG  
REMARK    3  A    between atoms: CG   and  CD  
REMARK    4  A    between atoms: CD   and  NE  
REMARK       I    between atoms: NE   and  CZ  
REMARK       I    between atoms: CZ   and  NH1 
REMARK       I    between atoms: CZ   and  NH2 
ROOT
ATOM      1  CA  ARG D 557     -26.217   2.705 -17.014  1.00 35.49     0.159 C 
ENDROOT
BRANCH   1   2
ATOM      2  CB  ARG D 557     -26.789   1.319 -17.183  1.00 35.49     0.034 C 
BRANCH   2   3
ATOM      3  CG  ARG D 557     -25.858   0.196 -17.020  1.00 35.49     0.027 C 
BRANCH   3   4
ATOM      4  CD  ARG D 557     -26.215  -0.671 -15.874  1.00 35.49     0.116 C 
BRANCH   4   5
ATOM      5  NE  ARG D 557     -25.100  -0.887 -14.990  1.00 35.49    -0.212 N 
ATOM      6  CZ  ARG D 557     -24.838  -1.999 -14.340  1.00 35.49     0.666 C 
ATOM      7  NH1 ARG D 557     -25.609  -3.067 -14.424  1.00 35.49    -0.235 N 
ATOM      8  NH2 ARG D 557     -23.770  -2.023 -13.597  1.00 35.49    -0.235 N 
ATOM      9  HH  ARG D 557     -26.316  -3.074 -14.909  1.00 35.49     0.174 HD
ATOM     10  HH  ARG D 557     -25.387  -3.765 -13.980  1.00 35.49     0.174 HD
ATOM     11  HH  ARG D 557     -23.287  -1.321 -13.567  1.00 35.49     0.174 HD
ATOM     12  HH  ARG D 557     -23.567  -2.724 -13.165  1.00 35.49     0.174 HD
ATOM     13  HE  ARG D 557     -24.591  -0.226 -14.820  1.00 35.49     0.178 HD
ENDBRANCH   4   5
ENDBRANCH   3   4
ENDBRANCH   2   3
ENDBRANCH   1   2
END_RES ARG D 557
BEGIN_RES GLU D 570
REMARK  3 active torsions:
REMARK  status: ('A' for Active; 'I' for Inactive)
REMARK    5  A    between atoms: CA   and  CB  
REMARK    6  A    between atoms: CB   and  CG  
REMARK    7  A    between atoms: CG   and  CD  
ROOT
ATOM     14  CA  GLU D 570     -18.033  -6.348 -13.375  1.00 32.92     0.160 C 
ENDROOT
BRANCH  14  15
ATOM     15  CB  GLU D 570     -19.500  -6.345 -13.794  1.00 32.92     0.043 C 
BRANCH  15  16
ATOM     16  CG  GLU D 570     -20.447  -5.553 -12.967  1.00 32.92     0.100 C 
BRANCH  16  17
ATOM     17  CD  GLU D 570     -21.674  -5.116 -13.732  1.00 32.92     0.185 C 
ATOM     18  OE1 GLU D 570     -22.729  -4.892 -13.107  1.00 32.92    -0.647 OA
ATOM     19  OE2 GLU D 570     -21.585  -5.013 -14.971  1.00 32.92    -0.647 OA
ENDBRANCH  16  17
ENDBRANCH  15  16
ENDBRANCH  14  15
END_RES GLU D 570
ENDMDL
MODEL 5
REMARK VINA RESULT:      -6.0      6.851      9.326
REMARK  10 active torsions:
REMARK  status: ('A' for Active; 'I' for Inactive)
REMARK    1  A    between atoms: C_1  and  C_2 
REMARK    2  A    between atoms: C_1  and  C_8 
REMARK    3  A    between atoms: C_2  and  C_3 
REMARK    4  A    between atoms: C_3  and  C_4 
REMARK    5  A    between atoms: C_4  and  C_5 
REMARK    6  A    between atoms: C_5  and  O_7 
REMARK    7  A    between atoms: C_8  and  C_9 
REMARK    8  A    between atoms: C_9  and  C_10 
REMARK    9  A    between atoms: C_10  and  C_11 
REMARK   10  A    between atoms: C_11  and  O_13 
ROOT
HETATM    1  C   UNL     1     -35.142  -1.565 -11.123  1.00  0.00     0.000 C 
ENDROOT
BRANCH   1   2
HETATM    2  C   UNL     1     -33.961  -2.249 -10.426  1.00  0.00     0.001 C 
BRANCH   2   3
HETATM    3  C   UNL     1     -33.116  -3.084 -11.383  1.00  0.00     0.010 C 
BRANCH   3   4
HETATM    4  C   UNL     1     -33.727  -4.460 -11.655  1.00  0.00     0.110 C 
BRANCH   4   5
HETATM    5  C   UNL     1     -34.350  -4.539 -13.021  1.00  0.00     0.139 C 
HETATM    6  O   UNL     1     -34.182  -3.736 -13.926  1.00  0.00    -0.650 OA
BRANCH   5   7
HETATM    7  O   UNL     1     -35.134  -5.634 -13.164  1.00  0.00    -0.776 OA
HETATM    8  H   UNL     1     -35.113  -6.015 -14.065  1.00  0.00     0.167 HD
ENDBRANCH   5   7
ENDBRANCH   4   5
ENDBRANCH   3   4
ENDBRANCH   2   3
ENDBRANCH   1   2
BRANCH   1   9
HETATM    9  C   UNL     1     -34.724  -0.745 -12.342  1.00  0.00     0.001 C 
BRANCH   9  10
HETATM   10  C   UNL     1     -35.839  -0.682 -13.384  1.00  0.00     0.010 C 
BRANCH  10  11
HETATM   11  C   UNL     1     -35.429   0.087 -14.631  1.00  0.00     0.110 C 
BRANCH  11  12
HETATM   12  C   UNL     1     -35.696  -0.729 -15.877  1.00  0.00     0.139 C 
HETATM   13  O   UNL     1     -36.373  -0.374 -16.827  1.00  0.00    -0.650 OA
BRANCH  12  14
HETATM   14  O   UNL     1     -35.085  -1.936 -15.834  1.00  0.00    -0.776 OA
HETATM   15  H   UNL     1     -35.461  -2.586 -16.455  1.00  0.00     0.167 HD
ENDBRANCH  12  14
ENDBRANCH  11  12
ENDBRANCH  10  11
ENDBRANCH   9  10
ENDBRANCH   1   9
TORSDOF 10
BEGIN_RES ARG D 557
REMARK  4 active torsions:
REMARK  status: ('A' for Active; 'I' for Inactive)
REMARK    1  A    between atoms: CA   and  CB  
REMARK    2  A    between atoms: CB   and  CG  
REMARK    3  A    between atoms: CG   and  CD  
REMARK    4  A    between atoms: CD   and  NE  
REMARK       I    between atoms: NE   and  CZ  
REMARK       I    between atoms: CZ   and  NH1 
REMARK       I    between atoms: CZ   and  NH2 
ROOT
ATOM      1  CA  ARG D 557     -26.217   2.705 -17.014  1.00 35.49     0.159 C 
ENDROOT
BRANCH   1   2
ATOM      2  CB  ARG D 557     -26.789   1.319 -17.183  1.00 35.49     0.034 C 
BRANCH   2   3
ATOM      3  CG  ARG D 557     -25.834   0.204 -17.172  1.00 35.49     0.027 C 
BRANCH   3   4
ATOM      4  CD  ARG D 557     -24.745   0.404 -16.189  1.00 35.49     0.116 C 
BRANCH   4   5
ATOM      5  NE  ARG D 557     -24.897  -0.438 -15.032  1.00 35.49    -0.212 N 
ATOM      6  CZ  ARG D 557     -24.083  -1.405 -14.673  1.00 35.49     0.666 C 
ATOM      7  NH1 ARG D 557     -23.009  -1.723 -15.371  1.00 35.49    -0.235 N 
ATOM      8  NH2 ARG D 557     -24.366  -2.053 -13.580  1.00 35.49    -0.235 N 
ATOM      9  HH  ARG D 557     -22.802  -1.309 -16.092  1.00 35.49     0.174 HD
ATOM     10  HH  ARG D 557     -22.513  -2.362 -15.086  1.00 35.49     0.174 HD
ATOM     11  HH  ARG D 557     -25.062  -1.820 -13.145  1.00 35.49     0.174 HD
ATOM     12  HH  ARG D 557     -23.862  -2.680 -13.314  1.00 35.49     0.174 HD
ATOM     13  HE  ARG D 557     -25.602  -0.350 -14.564  1.00 35.49     0.178 HD
ENDBRANCH   4   5
ENDBRANCH   3   4
ENDBRANCH   2   3
ENDBRANCH   1   2
END_RES ARG D 557
BEGIN_RES GLU D 570
REMARK  3 active torsions:
REMARK  status: ('A' for Active; 'I' for Inactive)
REMARK    5  A    between atoms: CA   and  CB  
REMARK    6  A    between atoms: CB   and  CG  
REMARK    7  A    between atoms: CG   and  CD  
ROOT
ATOM     14  CA  GLU D 570     -18.033  -6.348 -13.375  1.00 32.92     0.160 C 
ENDROOT
BRANCH  14  15
ATOM     15  CB  GLU D 570     -19.500  -6.345 -13.794  1.00 32.92     0.043 C 
BRANCH  15  16
ATOM     16  CG  GLU D 570     -20.441  -5.525 -12.988  1.00 32.92     0.100 C 
BRANCH  16  17
ATOM     17  CD  GLU D 570     -21.746  -5.255 -13.699  1.00 32.92     0.185 C 
ATOM     18  OE1 GLU D 570     -22.315  -4.160 -13.525  1.00 32.92    -0.647 OA
ATOM     19  OE2 GLU D 570     -22.213  -6.154 -14.425  1.00 32.92    -0.647 OA
ENDBRANCH  16  17
ENDBRANCH  15  16
ENDBRANCH  14  15
END_RES GLU D 570
ENDMDL
MODEL 6
REMARK VINA RESULT:      -5.7      7.266     10.006
REMARK  10 active torsions:
REMARK  status: ('A' for Active; 'I' for Inactive)
REMARK    1  A    between atoms: C_1  and  C_2 
REMARK    2  A    between atoms: C_1  and  C_8 
REMARK    3  A    between atoms: C_2  and  C_3 
REMARK    4  A    between atoms: C_3  and  C_4 
REMARK    5  A    between atoms: C_4  and  C_5 
REMARK    6  A    between atoms: C_5  and  O_7 
REMARK    7  A    between atoms: C_8  and  C_9 
REMARK    8  A    between atoms: C_9  and  C_10 
REMARK    9  A    between atoms: C_10  and  C_11 
REMARK   10  A    between atoms: C_11  and  O_13 
ROOT
HETATM    1  C   UNL     1     -35.081  -2.048 -10.862  1.00  0.00     0.000 C 
ENDROOT
BRANCH   1   2
HETATM    2  C   UNL     1     -35.478  -0.812 -11.676  1.00  0.00     0.001 C 
BRANCH   2   3
HETATM    3  C   UNL     1     -35.193  -0.973 -13.167  1.00  0.00     0.010 C 
BRANCH   3   4
HETATM    4  C   UNL     1     -35.697   0.214 -13.990  1.00  0.00     0.110 C 
BRANCH   4   5
HETATM    5  C   UNL     1     -37.007  -0.086 -14.666  1.00  0.00     0.139 C 
HETATM    6  O   UNL     1     -37.929  -0.722 -14.179  1.00  0.00    -0.650 OA
BRANCH   5   7
HETATM    7  O   UNL     1     -37.076   0.449 -15.909  1.00  0.00    -0.776 OA
HETATM    8  H   UNL     1     -36.295   0.988 -16.146  1.00  0.00     0.167 HD
ENDBRANCH   5   7
ENDBRANCH   4   5
ENDBRANCH   3   4
ENDBRANCH   2   3
ENDBRANCH   1   2
BRANCH   1   9
HETATM    9  C   UNL     1     -33.569  -2.248 -10.776  1.00  0.00     0.001 C 
BRANCH   9  10
HETATM   10  C   UNL     1     -33.144  -3.579 -11.394  1.00  0.00     0.010 C 
BRANCH  10  11
HETATM   11  C   UNL     1     -33.799  -4.773 -10.715  1.00  0.00     0.110 C 
BRANCH  11  12
HETATM   12  C   UNL     1     -34.579  -5.598 -11.716  1.00  0.00     0.139 C 
HETATM   13  O   UNL     1     -35.104  -5.172 -12.731  1.00  0.00    -0.650 OA
BRANCH  12  14
HETATM   14  O   UNL     1     -34.636  -6.903 -11.364  1.00  0.00    -0.776 OA
HETATM   15  H   UNL     1     -33.765  -7.292 -11.164  1.00  0.00     0.167 HD
ENDBRANCH  12  14
ENDBRANCH  11  12
ENDBRANCH  10  11
ENDBRANCH   9  10
ENDBRANCH   1   9
TORSDOF 10
BEGIN_RES ARG D 557
REMARK  4 active torsions:
REMARK  status: ('A' for Active; 'I' for Inactive)
REMARK    1  A    between atoms: CA   and  CB  
REMARK    2  A    between atoms: CB   and  CG  
REMARK    3  A    between atoms: CG   and  CD  
REMARK    4  A    between atoms: CD   and  NE  
REMARK       I    between atoms: NE   and  CZ  
REMARK       I    between atoms: CZ   and  NH1 
REMARK       I    between atoms: CZ   and  NH2 
ROOT
ATOM      1  CA  ARG D 557     -26.217   2.705 -17.014  1.00 35.49     0.159 C 
ENDROOT
BRANCH   1   2
ATOM      2  CB  ARG D 557     -26.789   1.319 -17.183  1.00 35.49     0.034 C 
BRANCH   2   3
ATOM      3  CG  ARG D 557     -25.861   0.195 -17.005  1.00 35.49     0.027 C 
BRANCH   3   4
ATOM      4  CD  ARG D 557     -26.276  -0.710 -15.909  1.00 35.49     0.116 C 
BRANCH   4   5
ATOM      5  NE  ARG D 557     -25.227  -0.906 -14.942  1.00 35.49    -0.212 N 
ATOM      6  CZ  ARG D 557     -24.922  -2.045 -14.361  1.00 35.49     0.666 C 
ATOM      7  NH1 ARG D 557     -25.580  -3.163 -14.603  1.00 35.49    -0.235 N 
ATOM      8  NH2 ARG D 557     -23.925  -2.043 -13.524  1.00 35.49    -0.235 N 
ATOM      9  HH  ARG D 557     -26.238  -3.188 -15.151  1.00 35.49     0.174 HD
ATOM     10  HH  ARG D 557     -25.334  -3.876 -14.196  1.00 35.49     0.174 HD
ATOM     11  HH  ARG D 557     -23.514  -1.307 -13.393  1.00 35.49     0.174 HD
ATOM     12  HH  ARG D 557     -23.696  -2.759 -13.132  1.00 35.49     0.174 HD
ATOM     13  HE  ARG D 557     -24.799  -0.223 -14.673  1.00 35.49     0.178 HD
ENDBRANCH   4   5
ENDBRANCH   3   4
ENDBRANCH   2   3
ENDBRANCH   1   2
END_RES ARG D 557
BEGIN_RES GLU D 570
REMARK  3 active torsions:
REMARK  status: ('A' for Active; 'I' for Inactive)
REMARK    5  A    between atoms: CA   and  CB  
REMARK    6  A    between atoms: CB   and  CG  
REMARK    7  A    between atoms: CG   and  CD  
ROOT
ATOM     14  CA  GLU D 570     -18.033  -6.348 -13.375  1.00 32.92     0.160 C 
ENDROOT
BRANCH  14  15
ATOM     15  CB  GLU D 570     -19.500  -6.345 -13.794  1.00 32.92     0.043 C 
BRANCH  15  16
ATOM     16  CG  GLU D 570     -20.449  -5.566 -12.958  1.00 32.92     0.100 C 
BRANCH  16  17
ATOM     17  CD  GLU D 570     -21.678  -5.124 -13.717  1.00 32.92     0.185 C 
ATOM     18  OE1 GLU D 570     -22.695  -4.788 -13.081  1.00 32.92    -0.647 OA
ATOM     19  OE2 GLU D 570     -21.629  -5.131 -14.963  1.00 32.92    -0.647 OA
ENDBRANCH  16  17
ENDBRANCH  15  16
ENDBRANCH  14  15
END_RES GLU D 570
ENDMDL
MODEL 7
REMARK VINA RESULT:      -5.6      2.688      5.079
REMARK  10 active torsions:
REMARK  status: ('A' for Active; 'I' for Inactive)
REMARK    1  A    between atoms: C_1  and  C_2 
REMARK    2  A    between atoms: C_1  and  C_8 
REMARK    3  A    between atoms: C_2  and  C_3 
REMARK    4  A    between atoms: C_3  and  C_4 
REMARK    5  A    between atoms: C_4  and  C_5 
REMARK    6  A    between atoms: C_5  and  O_7 
REMARK    7  A    between atoms: C_8  and  C_9 
REMARK    8  A    between atoms: C_9  and  C_10 
REMARK    9  A    between atoms: C_10  and  C_11 
REMARK   10  A    between atoms: C_11  and  O_13 
ROOT
HETATM    1  C   UNL     1     -20.646  -4.516  -8.484  1.00  0.00     0.000 C 
ENDROOT
BRANCH   1   2
HETATM    2  C   UNL     1     -21.861  -3.757  -7.942  1.00  0.00     0.001 C 
BRANCH   2   3
HETATM    3  C   UNL     1     -23.166  -4.186  -8.607  1.00  0.00     0.010 C 
BRANCH   3   4
HETATM    4  C   UNL     1     -23.170  -3.921 -10.114  1.00  0.00     0.110 C 
BRANCH   4   5
HETATM    5  C   UNL     1     -24.467  -3.313 -10.574  1.00  0.00     0.139 C 
HETATM    6  O   UNL     1     -25.476  -3.197  -9.897  1.00  0.00    -0.650 OA
BRANCH   5   7
HETATM    7  O   UNL     1     -24.401  -2.877 -11.855  1.00  0.00    -0.776 OA
HETATM    8  H   UNL     1     -25.029  -2.154 -12.054  1.00  0.00     0.167 HD
ENDBRANCH   5   7
ENDBRANCH   4   5
ENDBRANCH   3   4
ENDBRANCH   2   3
ENDBRANCH   1   2
BRANCH   1   9
HETATM    9  C   UNL     1     -19.741  -5.063  -7.382  1.00  0.00     0.001 C 
BRANCH   9  10
HETATM   10  C   UNL     1     -20.205  -4.608  -5.999  1.00  0.00     0.010 C 
BRANCH  10  11
HETATM   11  C   UNL     1     -20.411  -5.772  -5.041  1.00  0.00     0.110 C 
BRANCH  11  12
HETATM   12  C   UNL     1     -21.551  -6.653  -5.505  1.00  0.00     0.139 C 
HETATM   13  O   UNL     1     -21.434  -7.747  -6.032  1.00  0.00    -0.650 OA
BRANCH  12  14
HETATM   14  O   UNL     1     -22.758  -6.089  -5.268  1.00  0.00    -0.776 OA
HETATM   15  H   UNL     1     -23.463  -6.414  -5.857  1.00  0.00     0.167 HD
ENDBRANCH  12  14
ENDBRANCH  11  12
ENDBRANCH  10  11
ENDBRANCH   9  10
ENDBRANCH   1   9
TORSDOF 10
BEGIN_RES ARG D 557
REMARK  4 active torsions:
REMARK  status: ('A' for Active; 'I' for Inactive)
REMARK    1  A    between atoms: CA   and  CB  
REMARK    2  A    between atoms: CB   and  CG  
REMARK    3  A    between atoms: CG   and  CD  
REMARK    4  A    between atoms: CD   and  NE  
REMARK       I    between atoms: NE   and  CZ  
REMARK       I    between atoms: CZ   and  NH1 
REMARK       I    between atoms: CZ   and  NH2 
ROOT
ATOM      1  CA  ARG D 557     -26.217   2.705 -17.014  1.00 35.49     0.159 C 
ENDROOT
BRANCH   1   2
ATOM      2  CB  ARG D 557     -26.789   1.319 -17.183  1.00 35.49     0.034 C 
BRANCH   2   3
ATOM      3  CG  ARG D 557     -28.232   1.226 -17.434  1.00 35.49     0.027 C 
BRANCH   3   4
ATOM      4  CD  ARG D 557     -28.910   0.300 -16.498  1.00 35.49     0.116 C 
BRANCH   4   5
ATOM      5  NE  ARG D 557     -29.302  -0.928 -17.139  1.00 35.49    -0.212 N 
ATOM      6  CZ  ARG D 557     -28.677  -2.080 -17.040  1.00 35.49     0.666 C 
ATOM      7  NH1 ARG D 557     -27.577  -2.231 -16.326  1.00 35.49    -0.235 N 
ATOM      8  NH2 ARG D 557     -29.187  -3.096 -17.673  1.00 35.49    -0.235 N 
ATOM      9  HH  ARG D 557     -27.225  -1.576 -15.899  1.00 35.49     0.174 HD
ATOM     10  HH  ARG D 557     -27.214  -3.006 -16.296  1.00 35.49     0.174 HD
ATOM     11  HH  ARG D 557     -29.903  -2.971 -18.120  1.00 35.49     0.174 HD
ATOM     12  HH  ARG D 557     -28.814  -3.856 -17.630  1.00 35.49     0.174 HD
ATOM     13  HE  ARG D 557     -29.960  -0.905 -17.677  1.00 35.49     0.178 HD
ENDBRANCH   4   5
ENDBRANCH   3   4
ENDBRANCH   2   3
ENDBRANCH   1   2
END_RES ARG D 557
BEGIN_RES GLU D 570
REMARK  3 active torsions:
REMARK  status: ('A' for Active; 'I' for Inactive)
REMARK    5  A    between atoms: CA   and  CB  
REMARK    6  A    between atoms: CB   and  CG  
REMARK    7  A    between atoms: CG   and  CD  
ROOT
ATOM     14  CA  GLU D 570     -18.033  -6.348 -13.375  1.00 32.92     0.160 C 
ENDROOT
BRANCH  14  15
ATOM     15  CB  GLU D 570     -19.500  -6.345 -13.794  1.00 32.92     0.043 C 
BRANCH  15  16
ATOM     16  CG  GLU D 570     -20.440  -5.524 -12.988  1.00 32.92     0.100 C 
BRANCH  16  17
ATOM     17  CD  GLU D 570     -21.748  -5.259 -13.697  1.00 32.92     0.185 C 
ATOM     18  OE1 GLU D 570     -22.222  -6.139 -14.442  1.00 32.92    -0.647 OA
ATOM     19  OE2 GLU D 570     -22.296  -4.154 -13.519  1.00 32.92    -0.647 OA
ENDBRANCH  16  17
ENDBRANCH  15  16
ENDBRANCH  14  15
END_RES GLU D 570
ENDMDL
MODEL 8
REMARK VINA RESULT:      -5.5      7.255      9.142
REMARK  10 active torsions:
REMARK  status: ('A' for Active; 'I' for Inactive)
REMARK    1  A    between atoms: C_1  and  C_2 
REMARK    2  A    between atoms: C_1  and  C_8 
REMARK    3  A    between atoms: C_2  and  C_3 
REMARK    4  A    between atoms: C_3  and  C_4 
REMARK    5  A    between atoms: C_4  and  C_5 
REMARK    6  A    between atoms: C_5  and  O_7 
REMARK    7  A    between atoms: C_8  and  C_9 
REMARK    8  A    between atoms: C_9  and  C_10 
REMARK    9  A    between atoms: C_10  and  C_11 
REMARK   10  A    between atoms: C_11  and  O_13 
ROOT
HETATM    1  C   UNL     1     -33.049  -2.675 -11.255  1.00  0.00     0.000 C 
ENDROOT
BRANCH   1   2
HETATM    2  C   UNL     1     -33.051  -4.175 -11.566  1.00  0.00     0.001 C 
BRANCH   2   3
HETATM    3  C   UNL     1     -33.868  -4.982 -10.561  1.00  0.00     0.010 C 
BRANCH   3   4
HETATM    4  C   UNL     1     -34.634  -6.132 -11.219  1.00  0.00     0.110 C 
BRANCH   4   5
HETATM    5  C   UNL     1     -34.716  -7.338 -10.324  1.00  0.00     0.139 C 
HETATM    6  O   UNL     1     -34.688  -7.319  -9.103  1.00  0.00    -0.650 OA
BRANCH   5   7
HETATM    7  O   UNL     1     -34.844  -8.489 -11.026  1.00  0.00    -0.776 OA
HETATM    8  H   UNL     1     -35.087  -9.259 -10.474  1.00  0.00     0.167 HD
ENDBRANCH   5   7
ENDBRANCH   4   5
ENDBRANCH   3   4
ENDBRANCH   2   3
ENDBRANCH   1   2
BRANCH   1   9
HETATM    9  C   UNL     1     -34.151  -2.264 -10.280  1.00  0.00     0.001 C 
BRANCH   9  10
HETATM   10  C   UNL     1     -35.391  -1.761 -11.016  1.00  0.00     0.010 C 
BRANCH  10  11
HETATM   11  C   UNL     1     -35.057  -0.730 -12.085  1.00  0.00     0.110 C 
BRANCH  11  12
HETATM   12  C   UNL     1     -35.665  -1.120 -13.415  1.00  0.00     0.139 C 
HETATM   13  O   UNL     1     -35.069  -1.643 -14.341  1.00  0.00    -0.650 OA
BRANCH  12  14
HETATM   14  O   UNL     1     -36.984  -0.824 -13.478  1.00  0.00    -0.776 OA
HETATM   15  H   UNL     1     -37.488  -1.411 -14.070  1.00  0.00     0.167 HD
ENDBRANCH  12  14
ENDBRANCH  11  12
ENDBRANCH  10  11
ENDBRANCH   9  10
ENDBRANCH   1   9
TORSDOF 10
BEGIN_RES ARG D 557
REMARK  4 active torsions:
REMARK  status: ('A' for Active; 'I' for Inactive)
REMARK    1  A    between atoms: CA   and  CB  
REMARK    2  A    between atoms: CB   and  CG  
REMARK    3  A    between atoms: CG   and  CD  
REMARK    4  A    between atoms: CD   and  NE  
REMARK       I    between atoms: NE   and  CZ  
REMARK       I    between atoms: CZ   and  NH1 
REMARK       I    between atoms: CZ   and  NH2 
ROOT
ATOM      1  CA  ARG D 557     -26.217   2.705 -17.014  1.00 35.49     0.159 C 
ENDROOT
BRANCH   1   2
ATOM      2  CB  ARG D 557     -26.789   1.319 -17.183  1.00 35.49     0.034 C 
BRANCH   2   3
ATOM      3  CG  ARG D 557     -25.844   0.199 -17.093  1.00 35.49     0.027 C 
BRANCH   3   4
ATOM      4  CD  ARG D 557     -24.756   0.455 -16.123  1.00 35.49     0.116 C 
BRANCH   4   5
ATOM      5  NE  ARG D 557     -24.835  -0.413 -14.978  1.00 35.49    -0.212 N 
ATOM      6  CZ  ARG D 557     -23.990  -1.377 -14.685  1.00 35.49     0.666 C 
ATOM      7  NH1 ARG D 557     -22.952  -1.666 -15.448  1.00 35.49    -0.235 N 
ATOM      8  NH2 ARG D 557     -24.204  -2.052 -13.593  1.00 35.49    -0.235 N 
ATOM      9  HH  ARG D 557     -22.790  -1.233 -16.169  1.00 35.49     0.174 HD
ATOM     10  HH  ARG D 557     -22.433  -2.303 -15.205  1.00 35.49     0.174 HD
ATOM     11  HH  ARG D 557     -24.878  -1.838 -13.116  1.00 35.49     0.174 HD
ATOM     12  HH  ARG D 557     -23.678  -2.678 -13.369  1.00 35.49     0.174 HD
ATOM     13  HE  ARG D 557     -25.514  -0.345 -14.470  1.00 35.49     0.178 HD
ENDBRANCH   4   5
ENDBRANCH   3   4
ENDBRANCH   2   3
ENDBRANCH   1   2
END_RES ARG D 557
BEGIN_RES GLU D 570
REMARK  3 active torsions:
REMARK  status: ('A' for Active; 'I' for Inactive)
REMARK    5  A    between atoms: CA   and  CB  
REMARK    6  A    between atoms: CB   and  CG  
REMARK    7  A    between atoms: CG   and  CD  
ROOT
ATOM     14  CA  GLU D 570     -18.033  -6.348 -13.375  1.00 32.92     0.160 C 
ENDROOT
BRANCH  14  15
ATOM     15  CB  GLU D 570     -19.500  -6.345 -13.794  1.00 32.92     0.043 C 
BRANCH  15  16
ATOM     16  CG  GLU D 570     -19.978  -7.482 -14.623  1.00 32.92     0.100 C 
BRANCH  16  17
ATOM     17  CD  GLU D 570     -20.760  -7.038 -15.837  1.00 32.92     0.185 C 
ATOM     18  OE1 GLU D 570     -20.348  -6.068 -16.501  1.00 32.92    -0.647 OA
ATOM     19  OE2 GLU D 570     -21.805  -7.658 -16.117  1.00 32.92    -0.647 OA
ENDBRANCH  16  17
ENDBRANCH  15  16
ENDBRANCH  14  15
END_RES GLU D 570
ENDMDL
MODEL 9
REMARK VINA RESULT:      -5.5      1.973      4.675
REMARK  10 active torsions:
REMARK  status: ('A' for Active; 'I' for Inactive)
REMARK    1  A    between atoms: C_1  and  C_2 
REMARK    2  A    between atoms: C_1  and  C_8 
REMARK    3  A    between atoms: C_2  and  C_3 
REMARK    4  A    between atoms: C_3  and  C_4 
REMARK    5  A    between atoms: C_4  and  C_5 
REMARK    6  A    between atoms: C_5  and  O_7 
REMARK    7  A    between atoms: C_8  and  C_9 
REMARK    8  A    between atoms: C_9  and  C_10 
REMARK    9  A    between atoms: C_10  and  C_11 
REMARK   10  A    between atoms: C_11  and  O_13 
ROOT
HETATM    1  C   UNL     1     -20.761  -3.766 -11.377  1.00  0.00     0.000 C 
ENDROOT
BRANCH   1   2
HETATM    2  C   UNL     1     -22.054  -2.980 -11.622  1.00  0.00     0.001 C 
BRANCH   2   3
HETATM    3  C   UNL     1     -22.893  -3.568 -12.752  1.00  0.00     0.010 C 
BRANCH   3   4
HETATM    4  C   UNL     1     -24.136  -2.727 -13.056  1.00  0.00     0.110 C 
BRANCH   4   5
HETATM    5  C   UNL     1     -24.009  -1.988 -14.360  1.00  0.00     0.139 C 
HETATM    6  O   UNL     1     -23.115  -2.140 -15.178  1.00  0.00    -0.650 OA
BRANCH   5   7
HETATM    7  O   UNL     1     -25.027  -1.115 -14.554  1.00  0.00    -0.776 OA
HETATM    8  H   UNL     1     -25.869  -1.547 -14.801  1.00  0.00     0.167 HD
ENDBRANCH   5   7
ENDBRANCH   4   5
ENDBRANCH   3   4
ENDBRANCH   2   3
ENDBRANCH   1   2
BRANCH   1   9
HETATM    9  C   UNL     1     -20.535  -4.104  -9.905  1.00  0.00     0.001 C 
BRANCH   9  10
HETATM   10  C   UNL     1     -21.845  -4.464  -9.206  1.00  0.00     0.010 C 
BRANCH  10  11
HETATM   11  C   UNL     1     -21.831  -4.115  -7.725  1.00  0.00     0.110 C 
BRANCH  11  12
HETATM   12  C   UNL     1     -21.064  -5.155  -6.937  1.00  0.00     0.139 C 
HETATM   13  O   UNL     1     -20.951  -6.331  -7.236  1.00  0.00    -0.650 OA
BRANCH  12  14
HETATM   14  O   UNL     1     -20.493  -4.632  -5.827  1.00  0.00    -0.776 OA
HETATM   15  H   UNL     1     -19.595  -4.970  -5.654  1.00  0.00     0.167 HD
ENDBRANCH  12  14
ENDBRANCH  11  12
ENDBRANCH  10  11
ENDBRANCH   9  10
ENDBRANCH   1   9
TORSDOF 10
BEGIN_RES ARG D 557
REMARK  4 active torsions:
REMARK  status: ('A' for Active; 'I' for Inactive)
REMARK    1  A    between atoms: CA   and  CB  
REMARK    2  A    between atoms: CB   and  CG  
REMARK    3  A    between atoms: CG   and  CD  
REMARK    4  A    between atoms: CD   and  NE  
REMARK       I    between atoms: NE   and  CZ  
REMARK       I    between atoms: CZ   and  NH1 
REMARK       I    between atoms: CZ   and  NH2 
ROOT
ATOM      1  CA  ARG D 557     -26.217   2.705 -17.014  1.00 35.49     0.159 C 
ENDROOT
BRANCH   1   2
ATOM      2  CB  ARG D 557     -26.789   1.319 -17.183  1.00 35.49     0.034 C 
BRANCH   2   3
ATOM      3  CG  ARG D 557     -28.230   1.227 -17.447  1.00 35.49     0.027 C 
BRANCH   3   4
ATOM      4  CD  ARG D 557     -28.918   0.311 -16.509  1.00 35.49     0.116 C 
BRANCH   4   5
ATOM      5  NE  ARG D 557     -29.255  -0.945 -17.126  1.00 35.49    -0.212 N 
ATOM      6  CZ  ARG D 557     -28.586  -2.069 -16.995  1.00 35.49     0.666 C 
ATOM      7  NH1 ARG D 557     -27.487  -2.160 -16.268  1.00 35.49    -0.235 N 
ATOM      8  NH2 ARG D 557     -29.048  -3.118 -17.610  1.00 35.49    -0.235 N 
ATOM      9  HH  ARG D 557     -27.166  -1.482 -15.852  1.00 35.49     0.174 HD
ATOM     10  HH  ARG D 557     -27.095  -2.919 -16.217  1.00 35.49     0.174 HD
ATOM     11  HH  ARG D 557     -29.763  -3.032 -18.067  1.00 35.49     0.174 HD
ATOM     12  HH  ARG D 557     -28.646  -3.862 -17.546  1.00 35.49     0.174 HD
ATOM     13  HE  ARG D 557     -29.907  -0.961 -17.671  1.00 35.49     0.178 HD
ENDBRANCH   4   5
ENDBRANCH   3   4
ENDBRANCH   2   3
ENDBRANCH   1   2
END_RES ARG D 557
BEGIN_RES GLU D 570
REMARK  3 active torsions:
REMARK  status: ('A' for Active; 'I' for Inactive)
REMARK    5  A    between atoms: CA   and  CB  
REMARK    6  A    between atoms: CB   and  CG  
REMARK    7  A    between atoms: CG   and  CD  
ROOT
ATOM     14  CA  GLU D 570     -18.033  -6.348 -13.375  1.00 32.92     0.160 C 
ENDROOT
BRANCH  14  15
ATOM     15  CB  GLU D 570     -19.500  -6.345 -13.794  1.00 32.92     0.043 C 
BRANCH  15  16
ATOM     16  CG  GLU D 570     -19.796  -6.374 -15.250  1.00 32.92     0.100 C 
BRANCH  16  17
ATOM     17  CD  GLU D 570     -20.876  -7.367 -15.612  1.00 32.92     0.185 C 
ATOM     18  OE1 GLU D 570     -20.595  -8.580 -15.649  1.00 32.92    -0.647 OA
ATOM     19  OE2 GLU D 570     -22.011  -6.925 -15.878  1.00 32.92    -0.647 OA
ENDBRANCH  16  17
ENDBRANCH  15  16
ENDBRANCH  14  15
END_RES GLU D 570
ENDMDL
