MODEL 1
REMARK VINA RESULT:      -6.5      0.000      0.000
REMARK  6 active torsions:
REMARK  status: ('A' for Active; 'I' for Inactive)
REMARK    1  A    between atoms: C_1  and  O_12 
REMARK    2  A    between atoms: C_2  and  O_11 
REMARK    3  A    between atoms: C_3  and  O_10 
REMARK    4  A    between atoms: C_4  and  O_9 
REMARK    5  A    between atoms: C_5  and  O_8 
REMARK    6  A    between atoms: C_6  and  O_7 
ROOT
HETATM    1  C   UNL     1     -24.361  -3.325 -10.433  1.00  0.00     0.180 C 
HETATM    2  C   UNL     1     -24.561  -3.369 -11.956  1.00  0.00     0.180 C 
HETATM    3  C   UNL     1     -23.812  -4.562 -12.580  1.00  0.00     0.180 C 
HETATM    4  C   UNL     1     -22.312  -4.523 -12.234  1.00  0.00     0.180 C 
HETATM    5  C   UNL     1     -22.098  -4.479 -10.709  1.00  0.00     0.180 C 
HETATM    6  C   UNL     1     -22.864  -3.306 -10.060  1.00  0.00     0.180 C 
ENDROOT
BRANCH   1   7
HETATM    7  O   UNL     1     -25.025  -4.404  -9.763  1.00  0.00    -0.390 OA
HETATM    8  H   UNL     1     -24.981  -5.226 -10.281  1.00  0.00     0.210 HD
ENDBRANCH   1   7
BRANCH   2   9
HETATM    9  O   UNL     1     -24.042  -2.161 -12.544  1.00  0.00    -0.390 OA
HETATM   10  H   UNL     1     -24.474  -1.411 -12.091  1.00  0.00     0.210 HD
ENDBRANCH   2   9
BRANCH   6  11
HETATM   11  O   UNL     1     -22.745  -3.348  -8.633  1.00  0.00    -0.390 OA
HETATM   12  H   UNL     1     -21.795  -3.279  -8.422  1.00  0.00     0.210 HD
ENDBRANCH   6  11
BRANCH   3  13
HETATM   13  O   UNL     1     -23.992  -4.546 -13.999  1.00  0.00    -0.390 OA
HETATM   14  H   UNL     1     -23.623  -5.385 -14.336  1.00  0.00     0.210 HD
ENDBRANCH   3  13
BRANCH   5  15
HETATM   15  O   UNL     1     -20.694  -4.358 -10.448  1.00  0.00    -0.390 OA
HETATM   16  H   UNL     1     -20.475  -3.414 -10.573  1.00  0.00     0.210 HD
ENDBRANCH   5  15
BRANCH   4  17
HETATM   17  O   UNL     1     -21.664  -3.377 -12.827  1.00  0.00    -0.390 OA
HETATM   18  H   UNL     1     -21.051  -2.997 -12.163  1.00  0.00     0.210 HD
ENDBRANCH   4  17
TORSDOF 6
BEGIN_RES ARG D 557
REMARK  4 active torsions:
REMARK  status: ('A' for Active; 'I' for Inactive)
REMARK    1  A    between atoms: CA   and  CB  
REMARK    2  A    between atoms: CB   and  CG  
REMARK    3  A    between atoms: CG   and  CD  
REMARK    4  A    between atoms: CD   and  NE  
REMARK       I    between atoms: NE   and  CZ  
REMARK       I    between atoms: CZ   and  NH1 
REMARK       I    between atoms: CZ   and  NH2 
ROOT
ATOM      1  CA  ARG D 557     -26.217   2.705 -17.014  1.00 35.49     0.159 C 
ENDROOT
BRANCH   1   2
ATOM      2  CB  ARG D 557     -26.789   1.319 -17.183  1.00 35.49     0.034 C 
BRANCH   2   3
ATOM      3  CG  ARG D 557     -28.202   1.140 -16.828  1.00 35.49     0.027 C 
BRANCH   3   4
ATOM      4  CD  ARG D 557     -28.526  -0.267 -16.496  1.00 35.49     0.116 C 
BRANCH   4   5
ATOM      5  NE  ARG D 557     -27.456  -0.917 -15.788  1.00 35.49    -0.212 N 
ATOM      6  CZ  ARG D 557     -27.162  -2.197 -15.848  1.00 35.49     0.666 C 
ATOM      7  NH1 ARG D 557     -27.854  -3.050 -16.581  1.00 35.49    -0.235 N 
ATOM      8  NH2 ARG D 557     -26.141  -2.611 -15.155  1.00 35.49    -0.235 N 
ATOM      9  HH  ARG D 557     -28.527  -2.799 -17.046  1.00 35.49     0.174 HD
ATOM     10  HH  ARG D 557     -27.614  -3.873 -16.583  1.00 35.49     0.174 HD
ATOM     11  HH  ARG D 557     -25.708  -2.037 -14.697  1.00 35.49     0.174 HD
ATOM     12  HH  ARG D 557     -25.919  -3.429 -15.171  1.00 35.49     0.174 HD
ATOM     13  HE  ARG D 557     -27.003  -0.456 -15.236  1.00 35.49     0.178 HD
ENDBRANCH   4   5
ENDBRANCH   3   4
ENDBRANCH   2   3
ENDBRANCH   1   2
END_RES ARG D 557
BEGIN_RES GLU D 570
REMARK  3 active torsions:
REMARK  status: ('A' for Active; 'I' for Inactive)
REMARK    5  A    between atoms: CA   and  CB  
REMARK    6  A    between atoms: CB   and  CG  
REMARK    7  A    between atoms: CG   and  CD  
ROOT
ATOM     14  CA  GLU D 570     -18.033  -6.348 -13.375  1.00 32.92     0.160 C 
ENDROOT
BRANCH  14  15
ATOM     15  CB  GLU D 570     -19.500  -6.345 -13.794  1.00 32.92     0.043 C 
BRANCH  15  16
ATOM     16  CG  GLU D 570     -19.806  -6.022 -15.211  1.00 32.92     0.100 C 
BRANCH  16  17
ATOM     17  CD  GLU D 570     -21.269  -5.723 -15.445  1.00 32.92     0.185 C 
ATOM     18  OE1 GLU D 570     -21.609  -4.565 -15.752  1.00 32.92    -0.647 OA
ATOM     19  OE2 GLU D 570     -22.086  -6.655 -15.303  1.00 32.92    -0.647 OA
ENDBRANCH  16  17
ENDBRANCH  15  16
ENDBRANCH  14  15
END_RES GLU D 570
ENDMDL
MODEL 2
REMARK VINA RESULT:      -6.3      1.480      2.680
REMARK  6 active torsions:
REMARK  status: ('A' for Active; 'I' for Inactive)
REMARK    1  A    between atoms: C_1  and  O_12 
REMARK    2  A    between atoms: C_2  and  O_11 
REMARK    3  A    between atoms: C_3  and  O_10 
REMARK    4  A    between atoms: C_4  and  O_9 
REMARK    5  A    between atoms: C_5  and  O_8 
REMARK    6  A    between atoms: C_6  and  O_7 
ROOT
HETATM    1  C   UNL     1     -22.250  -4.428 -12.819  1.00  0.00     0.180 C 
HETATM    2  C   UNL     1     -22.727  -3.885 -14.174  1.00  0.00     0.180 C 
HETATM    3  C   UNL     1     -23.401  -2.508 -14.015  1.00  0.00     0.180 C 
HETATM    4  C   UNL     1     -24.571  -2.570 -13.016  1.00  0.00     0.180 C 
HETATM    5  C   UNL     1     -24.105  -3.114 -11.652  1.00  0.00     0.180 C 
HETATM    6  C   UNL     1     -23.402  -4.480 -11.794  1.00  0.00     0.180 C 
ENDROOT
BRANCH   1   7
HETATM    7  O   UNL     1     -21.148  -3.681 -12.288  1.00  0.00    -0.390 OA
HETATM    8  H   UNL     1     -20.997  -2.862 -12.791  1.00  0.00     0.210 HD
ENDBRANCH   1   7
BRANCH   2   9
HETATM    9  O   UNL     1     -23.695  -4.789 -14.741  1.00  0.00    -0.390 OA
HETATM   10  H   UNL     1     -23.279  -5.673 -14.771  1.00  0.00     0.210 HD
ENDBRANCH   2   9
BRANCH   6  11
HETATM   11  O   UNL     1     -22.877  -4.916 -10.534  1.00  0.00    -0.390 OA
HETATM   12  H   UNL     1     -23.635  -5.201  -9.991  1.00  0.00     0.210 HD
ENDBRANCH   6  11
BRANCH   3  13
HETATM   13  O   UNL     1     -23.864  -2.055 -15.290  1.00  0.00    -0.390 OA
HETATM   14  H   UNL     1     -23.075  -1.757 -15.783  1.00  0.00     0.210 HD
ENDBRANCH   3  13
BRANCH   5  15
HETATM   15  O   UNL     1     -25.246  -3.230 -10.793  1.00  0.00    -0.390 OA
HETATM   16  H   UNL     1     -25.724  -4.031 -11.083  1.00  0.00     0.210 HD
ENDBRANCH   5  15
BRANCH   4  17
HETATM   17  O   UNL     1     -25.640  -3.407 -13.509  1.00  0.00    -0.390 OA
HETATM   18  H   UNL     1     -25.325  -4.335 -13.505  1.00  0.00     0.210 HD
ENDBRANCH   4  17
TORSDOF 6
BEGIN_RES ARG D 557
REMARK  4 active torsions:
REMARK  status: ('A' for Active; 'I' for Inactive)
REMARK    1  A    between atoms: CA   and  CB  
REMARK    2  A    between atoms: CB   and  CG  
REMARK    3  A    between atoms: CG   and  CD  
REMARK    4  A    between atoms: CD   and  NE  
REMARK       I    between atoms: NE   and  CZ  
REMARK       I    between atoms: CZ   and  NH1 
REMARK       I    between atoms: CZ   and  NH2 
ROOT
ATOM      1  CA  ARG D 557     -26.217   2.705 -17.014  1.00 35.49     0.159 C 
ENDROOT
BRANCH   1   2
ATOM      2  CB  ARG D 557     -26.789   1.319 -17.183  1.00 35.49     0.034 C 
BRANCH   2   3
ATOM      3  CG  ARG D 557     -28.237   1.224 -17.402  1.00 35.49     0.027 C 
BRANCH   3   4
ATOM      4  CD  ARG D 557     -28.868   0.182 -16.560  1.00 35.49     0.116 C 
BRANCH   4   5
ATOM      5  NE  ARG D 557     -27.918  -0.800 -16.109  1.00 35.49    -0.212 N 
ATOM      6  CZ  ARG D 557     -27.892  -2.064 -16.468  1.00 35.49     0.666 C 
ATOM      7  NH1 ARG D 557     -28.776  -2.584 -17.298  1.00 35.49    -0.235 N 
ATOM      8  NH2 ARG D 557     -26.943  -2.808 -15.976  1.00 35.49    -0.235 N 
ATOM      9  HH  ARG D 557     -29.407  -2.113 -17.635  1.00 35.49     0.174 HD
ATOM     10  HH  ARG D 557     -28.707  -3.415 -17.498  1.00 35.49     0.174 HD
ATOM     11  HH  ARG D 557     -26.382  -2.443 -15.448  1.00 35.49     0.174 HD
ATOM     12  HH  ARG D 557     -26.891  -3.627 -16.187  1.00 35.49     0.174 HD
ATOM     13  HE  ARG D 557     -27.355  -0.568 -15.515  1.00 35.49     0.178 HD
ENDBRANCH   4   5
ENDBRANCH   3   4
ENDBRANCH   2   3
ENDBRANCH   1   2
END_RES ARG D 557
BEGIN_RES GLU D 570
REMARK  3 active torsions:
REMARK  status: ('A' for Active; 'I' for Inactive)
REMARK    5  A    between atoms: CA   and  CB  
REMARK    6  A    between atoms: CB   and  CG  
REMARK    7  A    between atoms: CG   and  CD  
ROOT
ATOM     14  CA  GLU D 570     -18.033  -6.348 -13.375  1.00 32.92     0.160 C 
ENDROOT
BRANCH  14  15
ATOM     15  CB  GLU D 570     -19.500  -6.345 -13.794  1.00 32.92     0.043 C 
BRANCH  15  16
ATOM     16  CG  GLU D 570     -19.796  -6.284 -15.249  1.00 32.92     0.100 C 
BRANCH  16  17
ATOM     17  CD  GLU D 570     -20.867  -7.262 -15.673  1.00 32.92     0.185 C 
ATOM     18  OE1 GLU D 570     -20.624  -8.483 -15.628  1.00 32.92    -0.647 OA
ATOM     19  OE2 GLU D 570     -21.955  -6.801 -16.071  1.00 32.92    -0.647 OA
ENDBRANCH  16  17
ENDBRANCH  15  16
ENDBRANCH  14  15
END_RES GLU D 570
ENDMDL
MODEL 3
REMARK VINA RESULT:      -6.2      0.840      2.239
REMARK  6 active torsions:
REMARK  status: ('A' for Active; 'I' for Inactive)
REMARK    1  A    between atoms: C_1  and  O_12 
REMARK    2  A    between atoms: C_2  and  O_11 
REMARK    3  A    between atoms: C_3  and  O_10 
REMARK    4  A    between atoms: C_4  and  O_9 
REMARK    5  A    between atoms: C_5  and  O_8 
REMARK    6  A    between atoms: C_6  and  O_7 
ROOT
HETATM    1  C   UNL     1     -21.643  -4.086 -11.460  1.00  0.00     0.180 C 
HETATM    2  C   UNL     1     -22.981  -4.016 -12.214  1.00  0.00     0.180 C 
HETATM    3  C   UNL     1     -23.952  -3.033 -11.532  1.00  0.00     0.180 C 
HETATM    4  C   UNL     1     -24.183  -3.409 -10.057  1.00  0.00     0.180 C 
HETATM    5  C   UNL     1     -22.849  -3.483  -9.290  1.00  0.00     0.180 C 
HETATM    6  C   UNL     1     -21.851  -4.442  -9.974  1.00  0.00     0.180 C 
ENDROOT
BRANCH   1   7
HETATM    7  O   UNL     1     -20.885  -2.876 -11.579  1.00  0.00    -0.390 OA
HETATM    8  H   UNL     1     -20.017  -2.956 -11.148  1.00  0.00     0.210 HD
ENDBRANCH   1   7
BRANCH   2   9
HETATM    9  O   UNL     1     -23.597  -5.317 -12.221  1.00  0.00    -0.390 OA
HETATM   10  H   UNL     1     -22.880  -5.976 -12.304  1.00  0.00     0.210 HD
ENDBRANCH   2   9
BRANCH   6  11
HETATM   11  O   UNL     1     -20.581  -4.412  -9.312  1.00  0.00    -0.390 OA
HETATM   12  H   UNL     1     -20.482  -5.261  -8.843  1.00  0.00     0.210 HD
ENDBRANCH   6  11
BRANCH   3  13
HETATM   13  O   UNL     1     -25.194  -3.025 -12.240  1.00  0.00    -0.390 OA
HETATM   14  H   UNL     1     -25.899  -3.103 -11.568  1.00  0.00     0.210 HD
ENDBRANCH   3  13
BRANCH   5  15
HETATM   15  O   UNL     1     -23.116  -3.918  -7.951  1.00  0.00    -0.390 OA
HETATM   16  H   UNL     1     -23.268  -3.107  -7.426  1.00  0.00     0.210 HD
ENDBRANCH   5  15
BRANCH   4  17
HETATM   17  O   UNL     1     -24.859  -4.681  -9.937  1.00  0.00    -0.390 OA
HETATM   18  H   UNL     1     -25.090  -4.813  -8.994  1.00  0.00     0.210 HD
ENDBRANCH   4  17
TORSDOF 6
BEGIN_RES ARG D 557
REMARK  4 active torsions:
REMARK  status: ('A' for Active; 'I' for Inactive)
REMARK    1  A    between atoms: CA   and  CB  
REMARK    2  A    between atoms: CB   and  CG  
REMARK    3  A    between atoms: CG   and  CD  
REMARK    4  A    between atoms: CD   and  NE  
REMARK       I    between atoms: NE   and  CZ  
REMARK       I    between atoms: CZ   and  NH1 
REMARK       I    between atoms: CZ   and  NH2 
ROOT
ATOM      1  CA  ARG D 557     -26.217   2.705 -17.014  1.00 35.49     0.159 C 
ENDROOT
BRANCH   1   2
ATOM      2  CB  ARG D 557     -26.789   1.319 -17.183  1.00 35.49     0.034 C 
BRANCH   2   3
ATOM      3  CG  ARG D 557     -28.222   1.158 -16.909  1.00 35.49     0.027 C 
BRANCH   3   4
ATOM      4  CD  ARG D 557     -28.577  -0.238 -16.562  1.00 35.49     0.116 C 
BRANCH   4   5
ATOM      5  NE  ARG D 557     -27.522  -0.903 -15.843  1.00 35.49    -0.212 N 
ATOM      6  CZ  ARG D 557     -27.243  -2.186 -15.902  1.00 35.49     0.666 C 
ATOM      7  NH1 ARG D 557     -27.937  -3.029 -16.643  1.00 35.49    -0.235 N 
ATOM      8  NH2 ARG D 557     -26.235  -2.613 -15.198  1.00 35.49    -0.235 N 
ATOM      9  HH  ARG D 557     -28.603  -2.769 -17.116  1.00 35.49     0.174 HD
ATOM     10  HH  ARG D 557     -27.707  -3.855 -16.644  1.00 35.49     0.174 HD
ATOM     11  HH  ARG D 557     -25.800  -2.045 -14.735  1.00 35.49     0.174 HD
ATOM     12  HH  ARG D 557     -26.022  -3.434 -15.213  1.00 35.49     0.174 HD
ATOM     13  HE  ARG D 557     -27.070  -0.447 -15.286  1.00 35.49     0.178 HD
ENDBRANCH   4   5
ENDBRANCH   3   4
ENDBRANCH   2   3
ENDBRANCH   1   2
END_RES ARG D 557
BEGIN_RES GLU D 570
REMARK  3 active torsions:
REMARK  status: ('A' for Active; 'I' for Inactive)
REMARK    5  A    between atoms: CA   and  CB  
REMARK    6  A    between atoms: CB   and  CG  
REMARK    7  A    between atoms: CG   and  CD  
ROOT
ATOM     14  CA  GLU D 570     -18.033  -6.348 -13.375  1.00 32.92     0.160 C 
ENDROOT
BRANCH  14  15
ATOM     15  CB  GLU D 570     -19.500  -6.345 -13.794  1.00 32.92     0.043 C 
BRANCH  15  16
ATOM     16  CG  GLU D 570     -19.812  -5.948 -15.191  1.00 32.92     0.100 C 
BRANCH  16  17
ATOM     17  CD  GLU D 570     -21.274  -5.627 -15.400  1.00 32.92     0.185 C 
ATOM     18  OE1 GLU D 570     -21.586  -4.719 -16.195  1.00 32.92    -0.647 OA
ATOM     19  OE2 GLU D 570     -22.114  -6.278 -14.750  1.00 32.92    -0.647 OA
ENDBRANCH  16  17
ENDBRANCH  15  16
ENDBRANCH  14  15
END_RES GLU D 570
ENDMDL
MODEL 4
REMARK VINA RESULT:      -6.2      1.868      3.330
REMARK  6 active torsions:
REMARK  status: ('A' for Active; 'I' for Inactive)
REMARK    1  A    between atoms: C_1  and  O_12 
REMARK    2  A    between atoms: C_2  and  O_11 
REMARK    3  A    between atoms: C_3  and  O_10 
REMARK    4  A    between atoms: C_4  and  O_9 
REMARK    5  A    between atoms: C_5  and  O_8 
REMARK    6  A    between atoms: C_6  and  O_7 
ROOT
HETATM    1  C   UNL     1     -24.436  -2.527 -14.066  1.00  0.00     0.180 C 
HETATM    2  C   UNL     1     -23.496  -2.337 -12.865  1.00  0.00     0.180 C 
HETATM    3  C   UNL     1     -22.289  -3.291 -12.949  1.00  0.00     0.180 C 
HETATM    4  C   UNL     1     -22.741  -4.759 -13.053  1.00  0.00     0.180 C 
HETATM    5  C   UNL     1     -23.685  -4.962 -14.253  1.00  0.00     0.180 C 
HETATM    6  C   UNL     1     -24.888  -3.996 -14.202  1.00  0.00     0.180 C 
ENDROOT
BRANCH   1   7
HETATM    7  O   UNL     1     -23.854  -2.071 -15.294  1.00  0.00    -0.390 OA
HETATM    8  H   UNL     1     -24.430  -2.263 -16.054  1.00  0.00     0.210 HD
ENDBRANCH   1   7
BRANCH   2   9
HETATM    9  O   UNL     1     -24.207  -2.628 -11.647  1.00  0.00    -0.390 OA
HETATM   10  H   UNL     1     -24.377  -1.774 -11.202  1.00  0.00     0.210 HD
ENDBRANCH   2   9
BRANCH   6  11
HETATM   11  O   UNL     1     -25.693  -4.122 -15.381  1.00  0.00    -0.390 OA
HETATM   12  H   UNL     1     -26.526  -4.553 -15.115  1.00  0.00     0.210 HD
ENDBRANCH   6  11
BRANCH   3  13
HETATM   13  O   UNL     1     -21.459  -3.110 -11.798  1.00  0.00    -0.390 OA
HETATM   14  H   UNL     1     -22.037  -2.763 -11.091  1.00  0.00     0.210 HD
ENDBRANCH   3  13
BRANCH   5  15
HETATM   15  O   UNL     1     -24.141  -6.321 -14.250  1.00  0.00    -0.390 OA
HETATM   16  H   UNL     1     -24.788  -6.390 -13.521  1.00  0.00     0.210 HD
ENDBRANCH   5  15
BRANCH   4  17
HETATM   17  O   UNL     1     -23.419  -5.187 -11.851  1.00  0.00    -0.390 OA
HETATM   18  H   UNL     1     -22.773  -5.667 -11.293  1.00  0.00     0.210 HD
ENDBRANCH   4  17
TORSDOF 6
BEGIN_RES ARG D 557
REMARK  4 active torsions:
REMARK  status: ('A' for Active; 'I' for Inactive)
REMARK    1  A    between atoms: CA   and  CB  
REMARK    2  A    between atoms: CB   and  CG  
REMARK    3  A    between atoms: CG   and  CD  
REMARK    4  A    between atoms: CD   and  NE  
REMARK       I    between atoms: NE   and  CZ  
REMARK       I    between atoms: CZ   and  NH1 
REMARK       I    between atoms: CZ   and  NH2 
ROOT
ATOM      1  CA  ARG D 557     -26.217   2.705 -17.014  1.00 35.49     0.159 C 
ENDROOT
BRANCH   1   2
ATOM      2  CB  ARG D 557     -26.789   1.319 -17.183  1.00 35.49     0.034 C 
BRANCH   2   3
ATOM      3  CG  ARG D 557     -28.226   1.228 -17.468  1.00 35.49     0.027 C 
BRANCH   3   4
ATOM      4  CD  ARG D 557     -28.932   0.327 -16.527  1.00 35.49     0.116 C 
BRANCH   4   5
ATOM      5  NE  ARG D 557     -29.294  -0.923 -17.142  1.00 35.49    -0.212 N 
ATOM      6  CZ  ARG D 557     -28.641  -2.057 -17.020  1.00 35.49     0.666 C 
ATOM      7  NH1 ARG D 557     -27.537  -2.166 -16.305  1.00 35.49    -0.235 N 
ATOM      8  NH2 ARG D 557     -29.127  -3.098 -17.631  1.00 35.49    -0.235 N 
ATOM      9  HH  ARG D 557     -27.200  -1.494 -15.892  1.00 35.49     0.174 HD
ATOM     10  HH  ARG D 557     -27.155  -2.931 -16.259  1.00 35.49     0.174 HD
ATOM     11  HH  ARG D 557     -29.846  -2.999 -18.079  1.00 35.49     0.174 HD
ATOM     12  HH  ARG D 557     -28.736  -3.848 -17.572  1.00 35.49     0.174 HD
ATOM     13  HE  ARG D 557     -29.953  -0.927 -17.679  1.00 35.49     0.178 HD
ENDBRANCH   4   5
ENDBRANCH   3   4
ENDBRANCH   2   3
ENDBRANCH   1   2
END_RES ARG D 557
BEGIN_RES GLU D 570
REMARK  3 active torsions:
REMARK  status: ('A' for Active; 'I' for Inactive)
REMARK    5  A    between atoms: CA   and  CB  
REMARK    6  A    between atoms: CB   and  CG  
REMARK    7  A    between atoms: CG   and  CD  
ROOT
ATOM     14  CA  GLU D 570     -18.033  -6.348 -13.375  1.00 32.92     0.160 C 
ENDROOT
BRANCH  14  15
ATOM     15  CB  GLU D 570     -19.500  -6.345 -13.794  1.00 32.92     0.043 C 
BRANCH  15  16
ATOM     16  CG  GLU D 570     -19.796  -6.308 -15.249  1.00 32.92     0.100 C 
BRANCH  16  17
ATOM     17  CD  GLU D 570     -20.808  -7.347 -15.672  1.00 32.92     0.185 C 
ATOM     18  OE1 GLU D 570     -21.852  -6.979 -16.244  1.00 32.92    -0.647 OA
ATOM     19  OE2 GLU D 570     -20.562  -8.542 -15.413  1.00 32.92    -0.647 OA
ENDBRANCH  16  17
ENDBRANCH  15  16
ENDBRANCH  14  15
END_RES GLU D 570
ENDMDL
MODEL 5
REMARK VINA RESULT:      -6.0      4.094      6.223
REMARK  6 active torsions:
REMARK  status: ('A' for Active; 'I' for Inactive)
REMARK    1  A    between atoms: C_1  and  O_12 
REMARK    2  A    between atoms: C_2  and  O_11 
REMARK    3  A    between atoms: C_3  and  O_10 
REMARK    4  A    between atoms: C_4  and  O_9 
REMARK    5  A    between atoms: C_5  and  O_8 
REMARK    6  A    between atoms: C_6  and  O_7 
ROOT
HETATM    1  C   UNL     1     -29.426  -7.117 -16.412  1.00  0.00     0.180 C 
HETATM    2  C   UNL     1     -30.047  -5.947 -17.192  1.00  0.00     0.180 C 
HETATM    3  C   UNL     1     -29.024  -5.322 -18.162  1.00  0.00     0.180 C 
HETATM    4  C   UNL     1     -27.756  -4.863 -17.419  1.00  0.00     0.180 C 
HETATM    5  C   UNL     1     -27.125  -6.028 -16.632  1.00  0.00     0.180 C 
HETATM    6  C   UNL     1     -28.141  -6.686 -15.675  1.00  0.00     0.180 C 
ENDROOT
BRANCH   1   7
HETATM    7  O   UNL     1     -29.162  -8.251 -17.247  1.00  0.00    -0.390 OA
HETATM    8  H   UNL     1     -28.802  -7.982 -18.110  1.00  0.00     0.210 HD
ENDBRANCH   1   7
BRANCH   2   9
HETATM    9  O   UNL     1     -30.466  -4.923 -16.270  1.00  0.00    -0.390 OA
HETATM   10  H   UNL     1     -30.669  -4.126 -16.797  1.00  0.00     0.210 HD
ENDBRANCH   2   9
BRANCH   6  11
HETATM   11  O   UNL     1     -27.570  -7.835 -15.037  1.00  0.00    -0.390 OA
HETATM   12  H   UNL     1     -28.150  -8.592 -15.238  1.00  0.00     0.210 HD
ENDBRANCH   6  11
BRANCH   3  13
HETATM   13  O   UNL     1     -29.628  -4.216 -18.839  1.00  0.00    -0.390 OA
HETATM   14  H   UNL     1     -30.005  -3.639 -18.148  1.00  0.00     0.210 HD
ENDBRANCH   3  13
BRANCH   5  15
HETATM   15  O   UNL     1     -26.003  -5.526 -15.896  1.00  0.00    -0.390 OA
HETATM   16  H   UNL     1     -26.090  -5.883 -14.990  1.00  0.00     0.210 HD
ENDBRANCH   5  15
BRANCH   4  17
HETATM   17  O   UNL     1     -28.045  -3.786 -16.501  1.00  0.00    -0.390 OA
HETATM   18  H   UNL     1     -29.017  -3.738 -16.384  1.00  0.00     0.210 HD
ENDBRANCH   4  17
TORSDOF 6
BEGIN_RES ARG D 557
REMARK  4 active torsions:
REMARK  status: ('A' for Active; 'I' for Inactive)
REMARK    1  A    between atoms: CA   and  CB  
REMARK    2  A    between atoms: CB   and  CG  
REMARK    3  A    between atoms: CG   and  CD  
REMARK    4  A    between atoms: CD   and  NE  
REMARK       I    between atoms: NE   and  CZ  
REMARK       I    between atoms: CZ   and  NH1 
REMARK       I    between atoms: CZ   and  NH2 
ROOT
ATOM      1  CA  ARG D 557     -26.217   2.705 -17.014  1.00 35.49     0.159 C 
ENDROOT
BRANCH   1   2
ATOM      2  CB  ARG D 557     -26.789   1.319 -17.183  1.00 35.49     0.034 C 
BRANCH   2   3
ATOM      3  CG  ARG D 557     -25.866   0.195 -16.985  1.00 35.49     0.027 C 
BRANCH   3   4
ATOM      4  CD  ARG D 557     -26.293  -0.699 -15.885  1.00 35.49     0.116 C 
BRANCH   4   5
ATOM      5  NE  ARG D 557     -25.228  -0.957 -14.951  1.00 35.49    -0.212 N 
ATOM      6  CZ  ARG D 557     -25.031  -2.082 -14.302  1.00 35.49     0.666 C 
ATOM      7  NH1 ARG D 557     -25.828  -3.126 -14.435  1.00 35.49    -0.235 N 
ATOM      8  NH2 ARG D 557     -24.000  -2.146 -13.511  1.00 35.49    -0.235 N 
ATOM      9  HH  ARG D 557     -26.511  -3.107 -14.952  1.00 35.49     0.174 HD
ATOM     10  HH  ARG D 557     -25.648  -3.835 -13.988  1.00 35.49     0.174 HD
ATOM     11  HH  ARG D 557     -23.498  -1.459 -13.450  1.00 35.49     0.174 HD
ATOM     12  HH  ARG D 557     -23.838  -2.857 -13.078  1.00 35.49     0.174 HD
ATOM     13  HE  ARG D 557     -24.709  -0.314 -14.751  1.00 35.49     0.178 HD
ENDBRANCH   4   5
ENDBRANCH   3   4
ENDBRANCH   2   3
ENDBRANCH   1   2
END_RES ARG D 557
BEGIN_RES GLU D 570
REMARK  3 active torsions:
REMARK  status: ('A' for Active; 'I' for Inactive)
REMARK    5  A    between atoms: CA   and  CB  
REMARK    6  A    between atoms: CB   and  CG  
REMARK    7  A    between atoms: CG   and  CD  
ROOT
ATOM     14  CA  GLU D 570     -18.033  -6.348 -13.375  1.00 32.92     0.160 C 
ENDROOT
BRANCH  14  15
ATOM     15  CB  GLU D 570     -19.500  -6.345 -13.794  1.00 32.92     0.043 C 
BRANCH  15  16
ATOM     16  CG  GLU D 570     -20.444  -5.540 -12.977  1.00 32.92     0.100 C 
BRANCH  16  17
ATOM     17  CD  GLU D 570     -21.687  -5.139 -13.736  1.00 32.92     0.185 C 
ATOM     18  OE1 GLU D 570     -21.620  -4.988 -14.971  1.00 32.92    -0.647 OA
ATOM     19  OE2 GLU D 570     -22.736  -4.958 -13.086  1.00 32.92    -0.647 OA
ENDBRANCH  16  17
ENDBRANCH  15  16
ENDBRANCH  14  15
END_RES GLU D 570
ENDMDL
MODEL 6
REMARK VINA RESULT:      -5.9      1.298      2.766
REMARK  6 active torsions:
REMARK  status: ('A' for Active; 'I' for Inactive)
REMARK    1  A    between atoms: C_1  and  O_12 
REMARK    2  A    between atoms: C_2  and  O_11 
REMARK    3  A    between atoms: C_3  and  O_10 
REMARK    4  A    between atoms: C_4  and  O_9 
REMARK    5  A    between atoms: C_5  and  O_8 
REMARK    6  A    between atoms: C_6  and  O_7 
ROOT
HETATM    1  C   UNL     1     -21.477  -3.791  -9.714  1.00  0.00     0.180 C 
HETATM    2  C   UNL     1     -22.903  -4.026  -9.190  1.00  0.00     0.180 C 
HETATM    3  C   UNL     1     -23.732  -4.852 -10.193  1.00  0.00     0.180 C 
HETATM    4  C   UNL     1     -23.770  -4.179 -11.577  1.00  0.00     0.180 C 
HETATM    5  C   UNL     1     -22.347  -3.936 -12.112  1.00  0.00     0.180 C 
HETATM    6  C   UNL     1     -21.490  -3.134 -11.110  1.00  0.00     0.180 C 
ENDROOT
BRANCH   1   7
HETATM    7  O   UNL     1     -20.698  -4.993  -9.739  1.00  0.00    -0.390 OA
HETATM    8  H   UNL     1     -20.146  -5.076  -8.942  1.00  0.00     0.210 HD
ENDBRANCH   1   7
BRANCH   2   9
HETATM    9  O   UNL     1     -23.562  -2.760  -9.006  1.00  0.00    -0.390 OA
HETATM   10  H   UNL     1     -22.868  -2.096  -8.825  1.00  0.00     0.210 HD
ENDBRANCH   2   9
BRANCH   6  11
HETATM   11  O   UNL     1     -20.140  -3.015 -11.575  1.00  0.00    -0.390 OA
HETATM   12  H   UNL     1     -19.559  -3.118 -10.798  1.00  0.00     0.210 HD
ENDBRANCH   6  11
BRANCH   3  13
HETATM   13  O   UNL     1     -25.060  -5.018  -9.687  1.00  0.00    -0.390 OA
HETATM   14  H   UNL     1     -24.973  -5.212  -8.734  1.00  0.00     0.210 HD
ENDBRANCH   3  13
BRANCH   5  15
HETATM   15  O   UNL     1     -22.441  -3.233 -13.357  1.00  0.00    -0.390 OA
HETATM   16  H   UNL     1     -22.911  -3.831 -13.972  1.00  0.00     0.210 HD
ENDBRANCH   5  15
BRANCH   4  17
HETATM   17  O   UNL     1     -24.470  -2.915 -11.528  1.00  0.00    -0.390 OA
HETATM   18  H   UNL     1     -24.211  -2.395 -12.317  1.00  0.00     0.210 HD
ENDBRANCH   4  17
TORSDOF 6
BEGIN_RES ARG D 557
REMARK  4 active torsions:
REMARK  status: ('A' for Active; 'I' for Inactive)
REMARK    1  A    between atoms: CA   and  CB  
REMARK    2  A    between atoms: CB   and  CG  
REMARK    3  A    between atoms: CG   and  CD  
REMARK    4  A    between atoms: CD   and  NE  
REMARK       I    between atoms: NE   and  CZ  
REMARK       I    between atoms: CZ   and  NH1 
REMARK       I    between atoms: CZ   and  NH2 
ROOT
ATOM      1  CA  ARG D 557     -26.217   2.705 -17.014  1.00 35.49     0.159 C 
ENDROOT
BRANCH   1   2
ATOM      2  CB  ARG D 557     -26.789   1.319 -17.183  1.00 35.49     0.034 C 
BRANCH   2   3
ATOM      3  CG  ARG D 557     -26.082   0.225 -16.505  1.00 35.49     0.027 C 
BRANCH   3   4
ATOM      4  CD  ARG D 557     -27.011  -0.747 -15.885  1.00 35.49     0.116 C 
BRANCH   4   5
ATOM      5  NE  ARG D 557     -26.396  -2.034 -15.688  1.00 35.49    -0.212 N 
ATOM      6  CZ  ARG D 557     -25.451  -2.308 -14.817  1.00 35.49     0.666 C 
ATOM      7  NH1 ARG D 557     -24.940  -1.394 -14.013  1.00 35.49    -0.235 N 
ATOM      8  NH2 ARG D 557     -25.025  -3.537 -14.761  1.00 35.49    -0.235 N 
ATOM      9  HH  ARG D 557     -25.207  -0.580 -14.032  1.00 35.49     0.174 HD
ATOM     10  HH  ARG D 557     -24.328  -1.632 -13.463  1.00 35.49     0.174 HD
ATOM     11  HH  ARG D 557     -25.379  -4.108 -15.287  1.00 35.49     0.174 HD
ATOM     12  HH  ARG D 557     -24.419  -3.753 -14.209  1.00 35.49     0.174 HD
ATOM     13  HE  ARG D 557     -26.614  -2.665 -16.214  1.00 35.49     0.178 HD
ENDBRANCH   4   5
ENDBRANCH   3   4
ENDBRANCH   2   3
ENDBRANCH   1   2
END_RES ARG D 557
BEGIN_RES GLU D 570
REMARK  3 active torsions:
REMARK  status: ('A' for Active; 'I' for Inactive)
REMARK    5  A    between atoms: CA   and  CB  
REMARK    6  A    between atoms: CB   and  CG  
REMARK    7  A    between atoms: CG   and  CD  
ROOT
ATOM     14  CA  GLU D 570     -18.033  -6.348 -13.375  1.00 32.92     0.160 C 
ENDROOT
BRANCH  14  15
ATOM     15  CB  GLU D 570     -19.500  -6.345 -13.794  1.00 32.92     0.043 C 
BRANCH  15  16
ATOM     16  CG  GLU D 570     -19.812  -5.954 -15.193  1.00 32.92     0.100 C 
BRANCH  16  17
ATOM     17  CD  GLU D 570     -21.288  -5.733 -15.429  1.00 32.92     0.185 C 
ATOM     18  OE1 GLU D 570     -22.085  -6.659 -15.183  1.00 32.92    -0.647 OA
ATOM     19  OE2 GLU D 570     -21.649  -4.628 -15.880  1.00 32.92    -0.647 OA
ENDBRANCH  16  17
ENDBRANCH  15  16
ENDBRANCH  14  15
END_RES GLU D 570
ENDMDL
MODEL 7
REMARK VINA RESULT:      -5.8      1.526      3.257
REMARK  6 active torsions:
REMARK  status: ('A' for Active; 'I' for Inactive)
REMARK    1  A    between atoms: C_1  and  O_12 
REMARK    2  A    between atoms: C_2  and  O_11 
REMARK    3  A    between atoms: C_3  and  O_10 
REMARK    4  A    between atoms: C_4  and  O_9 
REMARK    5  A    between atoms: C_5  and  O_8 
REMARK    6  A    between atoms: C_6  and  O_7 
ROOT
HETATM    1  C   UNL     1     -22.990  -5.212 -13.454  1.00  0.00     0.180 C 
HETATM    2  C   UNL     1     -23.418  -4.700 -12.070  1.00  0.00     0.180 C 
HETATM    3  C   UNL     1     -24.562  -3.674 -12.187  1.00  0.00     0.180 C 
HETATM    4  C   UNL     1     -24.169  -2.498 -13.099  1.00  0.00     0.180 C 
HETATM    5  C   UNL     1     -23.738  -2.999 -14.491  1.00  0.00     0.180 C 
HETATM    6  C   UNL     1     -22.610  -4.049 -14.394  1.00  0.00     0.180 C 
ENDROOT
BRANCH   1   7
HETATM    7  O   UNL     1     -23.991  -6.036 -14.066  1.00  0.00    -0.390 OA
HETATM    8  H   UNL     1     -23.604  -6.846 -14.442  1.00  0.00     0.210 HD
ENDBRANCH   1   7
BRANCH   2   9
HETATM    9  O   UNL     1     -22.302  -4.049 -11.433  1.00  0.00    -0.390 OA
HETATM   10  H   UNL     1     -22.283  -3.127 -11.757  1.00  0.00     0.210 HD
ENDBRANCH   2   9
BRANCH   6  11
HETATM   11  O   UNL     1     -22.301  -4.584 -15.687  1.00  0.00    -0.390 OA
HETATM   12  H   UNL     1     -21.342  -4.761 -15.701  1.00  0.00     0.210 HD
ENDBRANCH   6  11
BRANCH   3  13
HETATM   13  O   UNL     1     -24.905  -3.196 -10.883  1.00  0.00    -0.390 OA
HETATM   14  H   UNL     1     -25.650  -3.745 -10.572  1.00  0.00     0.210 HD
ENDBRANCH   3  13
BRANCH   5  15
HETATM   15  O   UNL     1     -23.303  -1.875 -15.265  1.00  0.00    -0.390 OA
HETATM   16  H   UNL     1     -22.704  -2.231 -15.951  1.00  0.00     0.210 HD
ENDBRANCH   5  15
BRANCH   4  17
HETATM   17  O   UNL     1     -23.090  -1.727 -12.528  1.00  0.00    -0.390 OA
HETATM   18  H   UNL     1     -22.658  -1.227 -13.252  1.00  0.00     0.210 HD
ENDBRANCH   4  17
TORSDOF 6
BEGIN_RES ARG D 557
REMARK  4 active torsions:
REMARK  status: ('A' for Active; 'I' for Inactive)
REMARK    1  A    between atoms: CA   and  CB  
REMARK    2  A    between atoms: CB   and  CG  
REMARK    3  A    between atoms: CG   and  CD  
REMARK    4  A    between atoms: CD   and  NE  
REMARK       I    between atoms: NE   and  CZ  
REMARK       I    between atoms: CZ   and  NH1 
REMARK       I    between atoms: CZ   and  NH2 
ROOT
ATOM      1  CA  ARG D 557     -26.217   2.705 -17.014  1.00 35.49     0.159 C 
ENDROOT
BRANCH   1   2
ATOM      2  CB  ARG D 557     -26.789   1.319 -17.183  1.00 35.49     0.034 C 
BRANCH   2   3
ATOM      3  CG  ARG D 557     -28.223   1.158 -16.912  1.00 35.49     0.027 C 
BRANCH   3   4
ATOM      4  CD  ARG D 557     -28.707  -0.206 -17.224  1.00 35.49     0.116 C 
BRANCH   4   5
ATOM      5  NE  ARG D 557     -27.929  -1.221 -16.564  1.00 35.49    -0.212 N 
ATOM      6  CZ  ARG D 557     -28.084  -2.519 -16.703  1.00 35.49     0.666 C 
ATOM      7  NH1 ARG D 557     -29.013  -3.043 -17.480  1.00 35.49    -0.235 N 
ATOM      8  NH2 ARG D 557     -27.273  -3.294 -16.042  1.00 35.49    -0.235 N 
ATOM      9  HH  ARG D 557     -29.556  -2.552 -17.926  1.00 35.49     0.174 HD
ATOM     10  HH  ARG D 557     -29.065  -3.897 -17.534  1.00 35.49     0.174 HD
ATOM     11  HH  ARG D 557     -26.678  -2.928 -15.554  1.00 35.49     0.174 HD
ATOM     12  HH  ARG D 557     -27.340  -4.137 -16.110  1.00 35.49     0.174 HD
ATOM     13  HE  ARG D 557     -27.355  -0.973 -15.988  1.00 35.49     0.178 HD
ENDBRANCH   4   5
ENDBRANCH   3   4
ENDBRANCH   2   3
ENDBRANCH   1   2
END_RES ARG D 557
BEGIN_RES GLU D 570
REMARK  3 active torsions:
REMARK  status: ('A' for Active; 'I' for Inactive)
REMARK    5  A    between atoms: CA   and  CB  
REMARK    6  A    between atoms: CB   and  CG  
REMARK    7  A    between atoms: CG   and  CD  
ROOT
ATOM     14  CA  GLU D 570     -18.033  -6.348 -13.375  1.00 32.92     0.160 C 
ENDROOT
BRANCH  14  15
ATOM     15  CB  GLU D 570     -19.500  -6.345 -13.794  1.00 32.92     0.043 C 
BRANCH  15  16
ATOM     16  CG  GLU D 570     -19.799  -6.488 -15.242  1.00 32.92     0.100 C 
BRANCH  16  17
ATOM     17  CD  GLU D 570     -20.762  -7.613 -15.538  1.00 32.92     0.185 C 
ATOM     18  OE1 GLU D 570     -20.411  -8.786 -15.308  1.00 32.92    -0.647 OA
ATOM     19  OE2 GLU D 570     -21.874  -7.320 -16.019  1.00 32.92    -0.647 OA
ENDBRANCH  16  17
ENDBRANCH  15  16
ENDBRANCH  14  15
END_RES GLU D 570
ENDMDL
MODEL 8
REMARK VINA RESULT:      -5.7      3.601      5.539
REMARK  6 active torsions:
REMARK  status: ('A' for Active; 'I' for Inactive)
REMARK    1  A    between atoms: C_1  and  O_12 
REMARK    2  A    between atoms: C_2  and  O_11 
REMARK    3  A    between atoms: C_3  and  O_10 
REMARK    4  A    between atoms: C_4  and  O_9 
REMARK    5  A    between atoms: C_5  and  O_8 
REMARK    6  A    between atoms: C_6  and  O_7 
ROOT
HETATM    1  C   UNL     1     -27.039  -4.100 -15.801  1.00  0.00     0.180 C 
HETATM    2  C   UNL     1     -28.456  -4.347 -16.341  1.00  0.00     0.180 C 
HETATM    3  C   UNL     1     -29.079  -5.607 -15.710  1.00  0.00     0.180 C 
HETATM    4  C   UNL     1     -28.191  -6.844 -15.940  1.00  0.00     0.180 C 
HETATM    5  C   UNL     1     -26.767  -6.609 -15.403  1.00  0.00     0.180 C 
HETATM    6  C   UNL     1     -26.135  -5.335 -16.002  1.00  0.00     0.180 C 
ENDROOT
BRANCH   1   7
HETATM    7  O   UNL     1     -27.039  -3.705 -14.424  1.00  0.00    -0.390 OA
HETATM    8  H   UNL     1     -26.858  -4.459 -13.837  1.00  0.00     0.210 HD
ENDBRANCH   1   7
BRANCH   2   9
HETATM    9  O   UNL     1     -28.399  -4.545 -17.767  1.00  0.00    -0.390 OA
HETATM   10  H   UNL     1     -29.278  -4.869 -18.047  1.00  0.00     0.210 HD
ENDBRANCH   2   9
BRANCH   6  11
HETATM   11  O   UNL     1     -24.858  -5.071 -15.407  1.00  0.00    -0.390 OA
HETATM   12  H   UNL     1     -24.596  -4.172 -15.678  1.00  0.00     0.210 HD
ENDBRANCH   6  11
BRANCH   3  13
HETATM   13  O   UNL     1     -30.379  -5.823 -16.265  1.00  0.00    -0.390 OA
HETATM   14  H   UNL     1     -30.470  -6.786 -16.396  1.00  0.00     0.210 HD
ENDBRANCH   3  13
BRANCH   5  15
HETATM   15  O   UNL     1     -25.965  -7.755 -15.718  1.00  0.00    -0.390 OA
HETATM   16  H   UNL     1     -26.502  -8.304 -16.323  1.00  0.00     0.210 HD
ENDBRANCH   5  15
BRANCH   4  17
HETATM   17  O   UNL     1     -28.109  -7.181 -17.342  1.00  0.00    -0.390 OA
HETATM   18  H   UNL     1     -28.710  -7.937 -17.508  1.00  0.00     0.210 HD
ENDBRANCH   4  17
TORSDOF 6
BEGIN_RES ARG D 557
REMARK  4 active torsions:
REMARK  status: ('A' for Active; 'I' for Inactive)
REMARK    1  A    between atoms: CA   and  CB  
REMARK    2  A    between atoms: CB   and  CG  
REMARK    3  A    between atoms: CG   and  CD  
REMARK    4  A    between atoms: CD   and  NE  
REMARK       I    between atoms: NE   and  CZ  
REMARK       I    between atoms: CZ   and  NH1 
REMARK       I    between atoms: CZ   and  NH2 
ROOT
ATOM      1  CA  ARG D 557     -26.217   2.705 -17.014  1.00 35.49     0.159 C 
ENDROOT
BRANCH   1   2
ATOM      2  CB  ARG D 557     -26.789   1.319 -17.183  1.00 35.49     0.034 C 
BRANCH   2   3
ATOM      3  CG  ARG D 557     -25.834   0.204 -17.168  1.00 35.49     0.027 C 
BRANCH   3   4
ATOM      4  CD  ARG D 557     -24.817   0.347 -16.102  1.00 35.49     0.116 C 
BRANCH   4   5
ATOM      5  NE  ARG D 557     -25.035  -0.573 -15.016  1.00 35.49    -0.212 N 
ATOM      6  CZ  ARG D 557     -24.223  -1.541 -14.656  1.00 35.49     0.666 C 
ATOM      7  NH1 ARG D 557     -23.088  -1.787 -15.285  1.00 35.49    -0.235 N 
ATOM      8  NH2 ARG D 557     -24.571  -2.266 -13.633  1.00 35.49    -0.235 N 
ATOM      9  HH  ARG D 557     -22.838  -1.321 -15.959  1.00 35.49     0.174 HD
ATOM     10  HH  ARG D 557     -22.598  -2.430 -15.003  1.00 35.49     0.174 HD
ATOM     11  HH  ARG D 557     -25.305  -2.080 -13.241  1.00 35.49     0.174 HD
ATOM     12  HH  ARG D 557     -24.071  -2.898 -13.368  1.00 35.49     0.174 HD
ATOM     13  HE  ARG D 557     -25.776  -0.533 -14.602  1.00 35.49     0.178 HD
ENDBRANCH   4   5
ENDBRANCH   3   4
ENDBRANCH   2   3
ENDBRANCH   1   2
END_RES ARG D 557
BEGIN_RES GLU D 570
REMARK  3 active torsions:
REMARK  status: ('A' for Active; 'I' for Inactive)
REMARK    5  A    between atoms: CA   and  CB  
REMARK    6  A    between atoms: CB   and  CG  
REMARK    7  A    between atoms: CG   and  CD  
ROOT
ATOM     14  CA  GLU D 570     -18.033  -6.348 -13.375  1.00 32.92     0.160 C 
ENDROOT
BRANCH  14  15
ATOM     15  CB  GLU D 570     -19.500  -6.345 -13.794  1.00 32.92     0.043 C 
BRANCH  15  16
ATOM     16  CG  GLU D 570     -20.422  -5.446 -13.052  1.00 32.92     0.100 C 
BRANCH  16  17
ATOM     17  CD  GLU D 570     -21.723  -5.205 -13.781  1.00 32.92     0.185 C 
ATOM     18  OE1 GLU D 570     -21.987  -5.887 -14.790  1.00 32.92    -0.647 OA
ATOM     19  OE2 GLU D 570     -22.479  -4.313 -13.349  1.00 32.92    -0.647 OA
ENDBRANCH  16  17
ENDBRANCH  15  16
ENDBRANCH  14  15
END_RES GLU D 570
ENDMDL
MODEL 9
REMARK VINA RESULT:      -5.7      4.024      6.375
REMARK  6 active torsions:
REMARK  status: ('A' for Active; 'I' for Inactive)
REMARK    1  A    between atoms: C_1  and  O_12 
REMARK    2  A    between atoms: C_2  and  O_11 
REMARK    3  A    between atoms: C_3  and  O_10 
REMARK    4  A    between atoms: C_4  and  O_9 
REMARK    5  A    between atoms: C_5  and  O_8 
REMARK    6  A    between atoms: C_6  and  O_7 
ROOT
HETATM    1  C   UNL     1     -26.909  -6.178 -15.990  1.00  0.00     0.180 C 
HETATM    2  C   UNL     1     -28.256  -5.535 -15.627  1.00  0.00     0.180 C 
HETATM    3  C   UNL     1     -29.395  -6.104 -16.496  1.00  0.00     0.180 C 
HETATM    4  C   UNL     1     -29.097  -5.922 -17.996  1.00  0.00     0.180 C 
HETATM    5  C   UNL     1     -27.748  -6.562 -18.373  1.00  0.00     0.180 C 
HETATM    6  C   UNL     1     -26.598  -6.026 -17.494  1.00  0.00     0.180 C 
ENDROOT
BRANCH   1   7
HETATM    7  O   UNL     1     -26.840  -7.557 -15.606  1.00  0.00    -0.390 OA
HETATM    8  H   UNL     1     -26.270  -7.682 -14.828  1.00  0.00     0.210 HD
ENDBRANCH   1   7
BRANCH   2   9
HETATM    9  O   UNL     1     -28.189  -4.115 -15.857  1.00  0.00    -0.390 OA
HETATM   10  H   UNL     1     -28.440  -3.962 -16.789  1.00  0.00     0.210 HD
ENDBRANCH   2   9
BRANCH   6  11
HETATM   11  O   UNL     1     -25.374  -6.714 -17.782  1.00  0.00    -0.390 OA
HETATM   12  H   UNL     1     -24.793  -6.603 -17.006  1.00  0.00     0.210 HD
ENDBRANCH   6  11
BRANCH   3  13
HETATM   13  O   UNL     1     -30.623  -5.454 -16.154  1.00  0.00    -0.390 OA
HETATM   14  H   UNL     1     -30.473  -4.496 -16.270  1.00  0.00     0.210 HD
ENDBRANCH   3  13
BRANCH   5  15
HETATM   15  O   UNL     1     -27.484  -6.289 -19.755  1.00  0.00    -0.390 OA
HETATM   16  H   UNL     1     -27.909  -5.431 -19.949  1.00  0.00     0.210 HD
ENDBRANCH   5  15
BRANCH   4  17
HETATM   17  O   UNL     1     -29.067  -4.525 -18.361  1.00  0.00    -0.390 OA
HETATM   18  H   UNL     1     -29.530  -4.425 -19.219  1.00  0.00     0.210 HD
ENDBRANCH   4  17
TORSDOF 6
BEGIN_RES ARG D 557
REMARK  4 active torsions:
REMARK  status: ('A' for Active; 'I' for Inactive)
REMARK    1  A    between atoms: CA   and  CB  
REMARK    2  A    between atoms: CB   and  CG  
REMARK    3  A    between atoms: CG   and  CD  
REMARK    4  A    between atoms: CD   and  NE  
REMARK       I    between atoms: NE   and  CZ  
REMARK       I    between atoms: CZ   and  NH1 
REMARK       I    between atoms: CZ   and  NH2 
ROOT
ATOM      1  CA  ARG D 557     -26.217   2.705 -17.014  1.00 35.49     0.159 C 
ENDROOT
BRANCH   1   2
ATOM      2  CB  ARG D 557     -26.789   1.319 -17.183  1.00 35.49     0.034 C 
BRANCH   2   3
ATOM      3  CG  ARG D 557     -25.863   0.195 -17.000  1.00 35.49     0.027 C 
BRANCH   3   4
ATOM      4  CD  ARG D 557     -26.269  -0.696 -15.890  1.00 35.49     0.116 C 
BRANCH   4   5
ATOM      5  NE  ARG D 557     -25.205  -0.903 -14.943  1.00 35.49    -0.212 N 
ATOM      6  CZ  ARG D 557     -24.919  -2.038 -14.345  1.00 35.49     0.666 C 
ATOM      7  NH1 ARG D 557     -25.613  -3.142 -14.549  1.00 35.49    -0.235 N 
ATOM      8  NH2 ARG D 557     -23.903  -2.048 -13.531  1.00 35.49    -0.235 N 
ATOM      9  HH  ARG D 557     -26.284  -3.159 -15.082  1.00 35.49     0.174 HD
ATOM     10  HH  ARG D 557     -25.379  -3.853 -14.133  1.00 35.49     0.174 HD
ATOM     11  HH  ARG D 557     -23.469  -1.322 -13.424  1.00 35.49     0.174 HD
ATOM     12  HH  ARG D 557     -23.686  -2.763 -13.130  1.00 35.49     0.174 HD
ATOM     13  HE  ARG D 557     -24.752  -0.227 -14.698  1.00 35.49     0.178 HD
ENDBRANCH   4   5
ENDBRANCH   3   4
ENDBRANCH   2   3
ENDBRANCH   1   2
END_RES ARG D 557
BEGIN_RES GLU D 570
REMARK  3 active torsions:
REMARK  status: ('A' for Active; 'I' for Inactive)
REMARK    5  A    between atoms: CA   and  CB  
REMARK    6  A    between atoms: CB   and  CG  
REMARK    7  A    between atoms: CG   and  CD  
ROOT
ATOM     14  CA  GLU D 570     -18.033  -6.348 -13.375  1.00 32.92     0.160 C 
ENDROOT
BRANCH  14  15
ATOM     15  CB  GLU D 570     -19.500  -6.345 -13.794  1.00 32.92     0.043 C 
BRANCH  15  16
ATOM     16  CG  GLU D 570     -20.449  -5.567 -12.957  1.00 32.92     0.100 C 
BRANCH  16  17
ATOM     17  CD  GLU D 570     -21.676  -5.121 -13.718  1.00 32.92     0.185 C 
ATOM     18  OE1 GLU D 570     -21.621  -5.034 -14.959  1.00 32.92    -0.647 OA
ATOM     19  OE2 GLU D 570     -22.699  -4.839 -13.063  1.00 32.92    -0.647 OA
ENDBRANCH  16  17
ENDBRANCH  15  16
ENDBRANCH  14  15
END_RES GLU D 570
ENDMDL
