MODEL 1
REMARK VINA RESULT:      -5.4      0.000      0.000
REMARK  5 active torsions:
REMARK  status: ('A' for Active; 'I' for Inactive)
REMARK    1  A    between atoms: CG_2  and  CB_4 
REMARK    2  A    between atoms: CB_4  and  CA_5 
REMARK    3  A    between atoms: CA_5  and  C_6 
REMARK    4  A    between atoms: CA_5  and  N_9 
REMARK    5  A    between atoms: C_6  and  OXT_8 
ROOT
ATOM      1  CA  LEU A   1     -23.021  -4.123 -10.382  1.00  0.00     0.314 C 
ENDROOT
BRANCH   1   2
ATOM      2  CB  LEU A   1     -22.379  -4.779  -9.145  1.00  0.00     0.050 C 
BRANCH   2   3
ATOM      3  CG  LEU A   1     -21.138  -4.048  -8.587  1.00  0.00    -0.020 C 
ATOM      4  CD1 LEU A   1     -21.337  -3.556  -7.154  1.00  0.00     0.009 C 
ATOM      5  CD2 LEU A   1     -19.914  -4.970  -8.634  1.00  0.00     0.009 C 
ENDBRANCH   2   3
ENDBRANCH   1   2
BRANCH   1   6
ATOM      6  C   LEU A   1     -24.384  -3.477 -10.072  1.00  0.00     0.173 C 
ATOM      7  O   LEU A   1     -25.218  -3.161 -10.907  1.00  0.00    -0.648 OA
BRANCH   6   8
ATOM      8  OXT LEU A   1     -24.628  -3.385  -8.740  1.00  0.00    -0.775 OA
ATOM      9  HXT LEU A   1     -25.567  -3.510  -8.506  1.00  0.00     0.167 HD
ENDBRANCH   6   8
ENDBRANCH   1   6
BRANCH   1  10
ATOM     10  N   LEU A   1     -22.116  -3.084 -10.920  1.00  0.00     0.093 N 
ATOM     11  H1  LEU A   1     -21.673  -3.454 -11.767  1.00  0.00     0.314 HD
ATOM     12  H2  LEU A   1     -21.345  -2.916 -10.274  1.00  0.00     0.314 HD
ENDBRANCH   1  10
TORSDOF 5
BEGIN_RES ARG D 557
REMARK  4 active torsions:
REMARK  status: ('A' for Active; 'I' for Inactive)
REMARK    1  A    between atoms: CA   and  CB  
REMARK    2  A    between atoms: CB   and  CG  
REMARK    3  A    between atoms: CG   and  CD  
REMARK    4  A    between atoms: CD   and  NE  
REMARK       I    between atoms: NE   and  CZ  
REMARK       I    between atoms: CZ   and  NH1 
REMARK       I    between atoms: CZ   and  NH2 
ROOT
ATOM      1  CA  ARG D 557     -26.217   2.705 -17.014  1.00 35.49     0.159 C 
ENDROOT
BRANCH   1   2
ATOM      2  CB  ARG D 557     -26.789   1.319 -17.183  1.00 35.49     0.034 C 
BRANCH   2   3
ATOM      3  CG  ARG D 557     -25.836   0.203 -17.155  1.00 35.49     0.027 C 
BRANCH   3   4
ATOM      4  CD  ARG D 557     -24.745   0.417 -16.176  1.00 35.49     0.116 C 
BRANCH   4   5
ATOM      5  NE  ARG D 557     -24.882  -0.428 -15.019  1.00 35.49    -0.212 N 
ATOM      6  CZ  ARG D 557     -24.064  -1.396 -14.673  1.00 35.49     0.666 C 
ATOM      7  NH1 ARG D 557     -23.000  -1.714 -15.387  1.00 35.49    -0.235 N 
ATOM      8  NH2 ARG D 557     -24.331  -2.046 -13.578  1.00 35.49    -0.235 N 
ATOM      9  HH  ARG D 557     -22.804  -1.298 -16.110  1.00 35.49     0.174 HD
ATOM     10  HH  ARG D 557     -22.501  -2.353 -15.111  1.00 35.49     0.174 HD
ATOM     11  HH  ARG D 557     -25.021  -1.814 -13.133  1.00 35.49     0.174 HD
ATOM     12  HH  ARG D 557     -23.824  -2.675 -13.320  1.00 35.49     0.174 HD
ATOM     13  HE  ARG D 557     -25.580  -0.340 -14.541  1.00 35.49     0.178 HD
ENDBRANCH   4   5
ENDBRANCH   3   4
ENDBRANCH   2   3
ENDBRANCH   1   2
END_RES ARG D 557
BEGIN_RES GLU D 570
REMARK  3 active torsions:
REMARK  status: ('A' for Active; 'I' for Inactive)
REMARK    5  A    between atoms: CA   and  CB  
REMARK    6  A    between atoms: CB   and  CG  
REMARK    7  A    between atoms: CG   and  CD  
ROOT
ATOM     14  CA  GLU D 570     -18.033  -6.348 -13.375  1.00 32.92     0.160 C 
ENDROOT
BRANCH  14  15
ATOM     15  CB  GLU D 570     -19.500  -6.345 -13.794  1.00 32.92     0.043 C 
BRANCH  15  16
ATOM     16  CG  GLU D 570     -20.430  -5.479 -13.025  1.00 32.92     0.100 C 
BRANCH  16  17
ATOM     17  CD  GLU D 570     -21.742  -5.243 -13.737  1.00 32.92     0.185 C 
ATOM     18  OE1 GLU D 570     -22.278  -6.189 -14.346  1.00 32.92    -0.647 OA
ATOM     19  OE2 GLU D 570     -22.230  -4.096 -13.699  1.00 32.92    -0.647 OA
ENDBRANCH  16  17
ENDBRANCH  15  16
ENDBRANCH  14  15
END_RES GLU D 570
ENDMDL
MODEL 2
REMARK VINA RESULT:      -5.2      1.323      1.817
REMARK  5 active torsions:
REMARK  status: ('A' for Active; 'I' for Inactive)
REMARK    1  A    between atoms: CG_2  and  CB_4 
REMARK    2  A    between atoms: CB_4  and  CA_5 
REMARK    3  A    between atoms: CA_5  and  C_6 
REMARK    4  A    between atoms: CA_5  and  N_9 
REMARK    5  A    between atoms: C_6  and  OXT_8 
ROOT
ATOM      1  CA  LEU A   1     -23.404  -3.700  -9.253  1.00  0.00     0.314 C 
ENDROOT
BRANCH   1   2
ATOM      2  CB  LEU A   1     -22.422  -4.769  -9.769  1.00  0.00     0.050 C 
BRANCH   2   3
ATOM      3  CG  LEU A   1     -20.954  -4.305  -9.888  1.00  0.00    -0.020 C 
ATOM      4  CD1 LEU A   1     -20.806  -3.012 -10.690  1.00  0.00     0.009 C 
ATOM      5  CD2 LEU A   1     -20.347  -4.102  -8.495  1.00  0.00     0.009 C 
ENDBRANCH   2   3
ENDBRANCH   1   2
BRANCH   1   6
ATOM      6  C   LEU A   1     -24.631  -3.531 -10.168  1.00  0.00     0.173 C 
ATOM      7  O   LEU A   1     -25.702  -3.050  -9.827  1.00  0.00    -0.648 OA
BRANCH   6   8
ATOM      8  OXT LEU A   1     -24.375  -3.877 -11.456  1.00  0.00    -0.775 OA
ATOM      9  HXT LEU A   1     -25.179  -3.968 -12.003  1.00  0.00     0.167 HD
ENDBRANCH   6   8
ENDBRANCH   1   6
BRANCH   1  10
ATOM     10  N   LEU A   1     -23.871  -4.064  -7.898  1.00  0.00     0.093 N 
ATOM     11  H1  LEU A   1     -23.129  -4.601  -7.439  1.00  0.00     0.314 HD
ATOM     12  H2  LEU A   1     -24.661  -4.707  -7.956  1.00  0.00     0.314 HD
ENDBRANCH   1  10
TORSDOF 5
BEGIN_RES ARG D 557
REMARK  4 active torsions:
REMARK  status: ('A' for Active; 'I' for Inactive)
REMARK    1  A    between atoms: CA   and  CB  
REMARK    2  A    between atoms: CB   and  CG  
REMARK    3  A    between atoms: CG   and  CD  
REMARK    4  A    between atoms: CD   and  NE  
REMARK       I    between atoms: NE   and  CZ  
REMARK       I    between atoms: CZ   and  NH1 
REMARK       I    between atoms: CZ   and  NH2 
ROOT
ATOM      1  CA  ARG D 557     -26.217   2.705 -17.014  1.00 35.49     0.159 C 
ENDROOT
BRANCH   1   2
ATOM      2  CB  ARG D 557     -26.789   1.319 -17.183  1.00 35.49     0.034 C 
BRANCH   2   3
ATOM      3  CG  ARG D 557     -25.855   0.196 -17.036  1.00 35.49     0.027 C 
BRANCH   3   4
ATOM      4  CD  ARG D 557     -26.209  -0.688 -15.902  1.00 35.49     0.116 C 
BRANCH   4   5
ATOM      5  NE  ARG D 557     -25.142  -0.791 -14.942  1.00 35.49    -0.212 N 
ATOM      6  CZ  ARG D 557     -24.765  -1.890 -14.328  1.00 35.49     0.666 C 
ATOM      7  NH1 ARG D 557     -25.357  -3.053 -14.527  1.00 35.49    -0.235 N 
ATOM      8  NH2 ARG D 557     -23.762  -1.802 -13.502  1.00 35.49    -0.235 N 
ATOM      9  HH  ARG D 557     -26.017  -3.134 -15.067  1.00 35.49     0.174 HD
ATOM     10  HH  ARG D 557     -25.066  -3.736 -14.100  1.00 35.49     0.174 HD
ATOM     11  HH  ARG D 557     -23.394  -1.040 -13.399  1.00 35.49     0.174 HD
ATOM     12  HH  ARG D 557     -23.488  -2.490 -13.090  1.00 35.49     0.174 HD
ATOM     13  HE  ARG D 557     -24.753  -0.075 -14.699  1.00 35.49     0.178 HD
ENDBRANCH   4   5
ENDBRANCH   3   4
ENDBRANCH   2   3
ENDBRANCH   1   2
END_RES ARG D 557
BEGIN_RES GLU D 570
REMARK  3 active torsions:
REMARK  status: ('A' for Active; 'I' for Inactive)
REMARK    5  A    between atoms: CA   and  CB  
REMARK    6  A    between atoms: CB   and  CG  
REMARK    7  A    between atoms: CG   and  CD  
ROOT
ATOM     14  CA  GLU D 570     -18.033  -6.348 -13.375  1.00 32.92     0.160 C 
ENDROOT
BRANCH  14  15
ATOM     15  CB  GLU D 570     -19.500  -6.345 -13.794  1.00 32.92     0.043 C 
BRANCH  15  16
ATOM     16  CG  GLU D 570     -20.433  -5.493 -13.012  1.00 32.92     0.100 C 
BRANCH  16  17
ATOM     17  CD  GLU D 570     -21.773  -5.313 -13.688  1.00 32.92     0.185 C 
ATOM     18  OE1 GLU D 570     -22.421  -4.270 -13.478  1.00 32.92    -0.647 OA
ATOM     19  OE2 GLU D 570     -22.185  -6.232 -14.423  1.00 32.92    -0.647 OA
ENDBRANCH  16  17
ENDBRANCH  15  16
ENDBRANCH  14  15
END_RES GLU D 570
ENDMDL
MODEL 3
REMARK VINA RESULT:      -5.0      3.491      6.390
REMARK  5 active torsions:
REMARK  status: ('A' for Active; 'I' for Inactive)
REMARK    1  A    between atoms: CG_2  and  CB_4 
REMARK    2  A    between atoms: CB_4  and  CA_5 
REMARK    3  A    between atoms: CA_5  and  C_6 
REMARK    4  A    between atoms: CA_5  and  N_9 
REMARK    5  A    between atoms: C_6  and  OXT_8 
ROOT
ATOM      1  CA  LEU A   1     -26.542  -6.238 -16.261  1.00  0.00     0.314 C 
ENDROOT
BRANCH   1   2
ATOM      2  CB  LEU A   1     -27.330  -4.914 -16.265  1.00  0.00     0.050 C 
BRANCH   2   3
ATOM      3  CG  LEU A   1     -28.588  -4.905 -17.160  1.00  0.00    -0.020 C 
ATOM      4  CD1 LEU A   1     -29.126  -3.496 -17.410  1.00  0.00     0.009 C 
ATOM      5  CD2 LEU A   1     -28.286  -5.572 -18.507  1.00  0.00     0.009 C 
ENDBRANCH   2   3
ENDBRANCH   1   2
BRANCH   1   6
ATOM      6  C   LEU A   1     -25.253  -6.159 -15.423  1.00  0.00     0.173 C 
ATOM      7  O   LEU A   1     -24.608  -7.121 -15.033  1.00  0.00    -0.648 OA
BRANCH   6   8
ATOM      8  OXT LEU A   1     -24.826  -4.883 -15.240  1.00  0.00    -0.775 OA
ATOM      9  HXT LEU A   1     -24.641  -4.410 -16.074  1.00  0.00     0.167 HD
ENDBRANCH   6   8
ENDBRANCH   1   6
BRANCH   1  10
ATOM     10  N   LEU A   1     -27.392  -7.321 -15.721  1.00  0.00     0.093 N 
ATOM     11  H1  LEU A   1     -28.082  -7.571 -16.436  1.00  0.00     0.314 HD
ATOM     12  H2  LEU A   1     -27.944  -6.980 -14.934  1.00  0.00     0.314 HD
ENDBRANCH   1  10
TORSDOF 5
BEGIN_RES ARG D 557
REMARK  4 active torsions:
REMARK  status: ('A' for Active; 'I' for Inactive)
REMARK    1  A    between atoms: CA   and  CB  
REMARK    2  A    between atoms: CB   and  CG  
REMARK    3  A    between atoms: CG   and  CD  
REMARK    4  A    between atoms: CD   and  NE  
REMARK       I    between atoms: NE   and  CZ  
REMARK       I    between atoms: CZ   and  NH1 
REMARK       I    between atoms: CZ   and  NH2 
ROOT
ATOM      1  CA  ARG D 557     -26.217   2.705 -17.014  1.00 35.49     0.159 C 
ENDROOT
BRANCH   1   2
ATOM      2  CB  ARG D 557     -26.789   1.319 -17.183  1.00 35.49     0.034 C 
BRANCH   2   3
ATOM      3  CG  ARG D 557     -25.841   0.200 -17.113  1.00 35.49     0.027 C 
BRANCH   3   4
ATOM      4  CD  ARG D 557     -24.788   0.416 -16.094  1.00 35.49     0.116 C 
BRANCH   4   5
ATOM      5  NE  ARG D 557     -24.906  -0.500 -14.990  1.00 35.49    -0.212 N 
ATOM      6  CZ  ARG D 557     -24.058  -1.459 -14.693  1.00 35.49     0.666 C 
ATOM      7  NH1 ARG D 557     -22.977  -1.697 -15.413  1.00 35.49    -0.235 N 
ATOM      8  NH2 ARG D 557     -24.313  -2.181 -13.641  1.00 35.49    -0.235 N 
ATOM      9  HH  ARG D 557     -22.789  -1.233 -16.108  1.00 35.49     0.174 HD
ATOM     10  HH  ARG D 557     -22.458  -2.334 -15.169  1.00 35.49     0.174 HD
ATOM     11  HH  ARG D 557     -25.014  -1.999 -13.191  1.00 35.49     0.174 HD
ATOM     12  HH  ARG D 557     -23.786  -2.806 -13.415  1.00 35.49     0.174 HD
ATOM     13  HE  ARG D 557     -25.611  -0.465 -14.516  1.00 35.49     0.178 HD
ENDBRANCH   4   5
ENDBRANCH   3   4
ENDBRANCH   2   3
ENDBRANCH   1   2
END_RES ARG D 557
BEGIN_RES GLU D 570
REMARK  3 active torsions:
REMARK  status: ('A' for Active; 'I' for Inactive)
REMARK    5  A    between atoms: CA   and  CB  
REMARK    6  A    between atoms: CB   and  CG  
REMARK    7  A    between atoms: CG   and  CD  
ROOT
ATOM     14  CA  GLU D 570     -18.033  -6.348 -13.375  1.00 32.92     0.160 C 
ENDROOT
BRANCH  14  15
ATOM     15  CB  GLU D 570     -19.500  -6.345 -13.794  1.00 32.92     0.043 C 
BRANCH  15  16
ATOM     16  CG  GLU D 570     -20.442  -5.531 -12.983  1.00 32.92     0.100 C 
BRANCH  16  17
ATOM     17  CD  GLU D 570     -21.696  -5.154 -13.737  1.00 32.92     0.185 C 
ATOM     18  OE1 GLU D 570     -21.713  -5.268 -14.978  1.00 32.92    -0.647 OA
ATOM     19  OE2 GLU D 570     -22.666  -4.726 -13.082  1.00 32.92    -0.647 OA
ENDBRANCH  16  17
ENDBRANCH  15  16
ENDBRANCH  14  15
END_RES GLU D 570
ENDMDL
MODEL 4
REMARK VINA RESULT:      -5.0      1.310      1.629
REMARK  5 active torsions:
REMARK  status: ('A' for Active; 'I' for Inactive)
REMARK    1  A    between atoms: CG_2  and  CB_4 
REMARK    2  A    between atoms: CB_4  and  CA_5 
REMARK    3  A    between atoms: CA_5  and  C_6 
REMARK    4  A    between atoms: CA_5  and  N_9 
REMARK    5  A    between atoms: C_6  and  OXT_8 
ROOT
ATOM      1  CA  LEU A   1     -22.686  -3.894  -8.819  1.00  0.00     0.314 C 
ENDROOT
BRANCH   1   2
ATOM      2  CB  LEU A   1     -21.510  -4.803  -8.414  1.00  0.00     0.050 C 
BRANCH   2   3
ATOM      3  CG  LEU A   1     -20.596  -4.235  -7.306  1.00  0.00    -0.020 C 
ATOM      4  CD1 LEU A   1     -20.797  -4.931  -5.960  1.00  0.00     0.009 C 
ATOM      5  CD2 LEU A   1     -19.125  -4.357  -7.718  1.00  0.00     0.009 C 
ENDBRANCH   2   3
ENDBRANCH   1   2
BRANCH   1   6
ATOM      6  C   LEU A   1     -23.181  -4.166 -10.251  1.00  0.00     0.173 C 
ATOM      7  O   LEU A   1     -23.742  -5.188 -10.619  1.00  0.00    -0.648 OA
BRANCH   6   8
ATOM      8  OXT LEU A   1     -23.029  -3.094 -11.069  1.00  0.00    -0.775 OA
ATOM      9  HXT LEU A   1     -23.817  -2.902 -11.613  1.00  0.00     0.167 HD
ENDBRANCH   6   8
ENDBRANCH   1   6
BRANCH   1  10
ATOM     10  N   LEU A   1     -23.814  -4.091  -7.882  1.00  0.00     0.093 N 
ATOM     11  H1  LEU A   1     -23.484  -4.669  -7.103  1.00  0.00     0.314 HD
ATOM     12  H2  LEU A   1     -24.549  -4.643  -8.324  1.00  0.00     0.314 HD
ENDBRANCH   1  10
TORSDOF 5
BEGIN_RES ARG D 557
REMARK  4 active torsions:
REMARK  status: ('A' for Active; 'I' for Inactive)
REMARK    1  A    between atoms: CA   and  CB  
REMARK    2  A    between atoms: CB   and  CG  
REMARK    3  A    between atoms: CG   and  CD  
REMARK    4  A    between atoms: CD   and  NE  
REMARK       I    between atoms: NE   and  CZ  
REMARK       I    between atoms: CZ   and  NH1 
REMARK       I    between atoms: CZ   and  NH2 
ROOT
ATOM      1  CA  ARG D 557     -26.217   2.705 -17.014  1.00 35.49     0.159 C 
ENDROOT
BRANCH   1   2
ATOM      2  CB  ARG D 557     -26.789   1.319 -17.183  1.00 35.49     0.034 C 
BRANCH   2   3
ATOM      3  CG  ARG D 557     -25.835   0.204 -17.163  1.00 35.49     0.027 C 
BRANCH   3   4
ATOM      4  CD  ARG D 557     -24.745   0.411 -16.182  1.00 35.49     0.116 C 
BRANCH   4   5
ATOM      5  NE  ARG D 557     -24.889  -0.432 -15.025  1.00 35.49    -0.212 N 
ATOM      6  CZ  ARG D 557     -24.074  -1.402 -14.674  1.00 35.49     0.666 C 
ATOM      7  NH1 ARG D 557     -23.007  -1.722 -15.382  1.00 35.49    -0.235 N 
ATOM      8  NH2 ARG D 557     -24.349  -2.050 -13.580  1.00 35.49    -0.235 N 
ATOM      9  HH  ARG D 557     -22.806  -1.307 -16.105  1.00 35.49     0.174 HD
ATOM     10  HH  ARG D 557     -22.510  -2.362 -15.103  1.00 35.49     0.174 HD
ATOM     11  HH  ARG D 557     -25.040  -1.817 -13.139  1.00 35.49     0.174 HD
ATOM     12  HH  ARG D 557     -23.844  -2.680 -13.319  1.00 35.49     0.174 HD
ATOM     13  HE  ARG D 557     -25.590  -0.343 -14.550  1.00 35.49     0.178 HD
ENDBRANCH   4   5
ENDBRANCH   3   4
ENDBRANCH   2   3
ENDBRANCH   1   2
END_RES ARG D 557
BEGIN_RES GLU D 570
REMARK  3 active torsions:
REMARK  status: ('A' for Active; 'I' for Inactive)
REMARK    5  A    between atoms: CA   and  CB  
REMARK    6  A    between atoms: CB   and  CG  
REMARK    7  A    between atoms: CG   and  CD  
ROOT
ATOM     14  CA  GLU D 570     -18.033  -6.348 -13.375  1.00 32.92     0.160 C 
ENDROOT
BRANCH  14  15
ATOM     15  CB  GLU D 570     -19.500  -6.345 -13.794  1.00 32.92     0.043 C 
BRANCH  15  16
ATOM     16  CG  GLU D 570     -20.444  -5.539 -12.977  1.00 32.92     0.100 C 
BRANCH  16  17
ATOM     17  CD  GLU D 570     -21.737  -5.237 -13.698  1.00 32.92     0.185 C 
ATOM     18  OE1 GLU D 570     -22.209  -4.085 -13.636  1.00 32.92    -0.647 OA
ATOM     19  OE2 GLU D 570     -22.292  -6.166 -14.317  1.00 32.92    -0.647 OA
ENDBRANCH  16  17
ENDBRANCH  15  16
ENDBRANCH  14  15
END_RES GLU D 570
ENDMDL
MODEL 5
REMARK VINA RESULT:      -4.9      1.872      2.251
REMARK  5 active torsions:
REMARK  status: ('A' for Active; 'I' for Inactive)
REMARK    1  A    between atoms: CG_2  and  CB_4 
REMARK    2  A    between atoms: CB_4  and  CA_5 
REMARK    3  A    between atoms: CA_5  and  C_6 
REMARK    4  A    between atoms: CA_5  and  N_9 
REMARK    5  A    between atoms: C_6  and  OXT_8 
ROOT
ATOM      1  CA  LEU A   1     -23.472  -3.635  -9.221  1.00  0.00     0.314 C 
ENDROOT
BRANCH   1   2
ATOM      2  CB  LEU A   1     -22.397  -4.583  -9.786  1.00  0.00     0.050 C 
BRANCH   2   3
ATOM      3  CG  LEU A   1     -20.954  -4.035  -9.742  1.00  0.00    -0.020 C 
ATOM      4  CD1 LEU A   1     -20.064  -4.793  -8.758  1.00  0.00     0.009 C 
ATOM      5  CD2 LEU A   1     -20.321  -4.093 -11.137  1.00  0.00     0.009 C 
ENDBRANCH   2   3
ENDBRANCH   1   2
BRANCH   1   6
ATOM      6  C   LEU A   1     -24.708  -3.528 -10.134  1.00  0.00     0.173 C 
ATOM      7  O   LEU A   1     -25.795  -3.083  -9.797  1.00  0.00    -0.648 OA
BRANCH   6   8
ATOM      8  OXT LEU A   1     -24.442  -3.884 -11.417  1.00  0.00    -0.775 OA
ATOM      9  HXT LEU A   1     -23.541  -3.648 -11.709  1.00  0.00     0.167 HD
ENDBRANCH   6   8
ENDBRANCH   1   6
BRANCH   1  10
ATOM     10  N   LEU A   1     -23.907  -4.112  -7.890  1.00  0.00     0.093 N 
ATOM     11  H1  LEU A   1     -24.445  -3.363  -7.444  1.00  0.00     0.314 HD
ATOM     12  H2  LEU A   1     -23.100  -4.251  -7.283  1.00  0.00     0.314 HD
ENDBRANCH   1  10
TORSDOF 5
BEGIN_RES ARG D 557
REMARK  4 active torsions:
REMARK  status: ('A' for Active; 'I' for Inactive)
REMARK    1  A    between atoms: CA   and  CB  
REMARK    2  A    between atoms: CB   and  CG  
REMARK    3  A    between atoms: CG   and  CD  
REMARK    4  A    between atoms: CD   and  NE  
REMARK       I    between atoms: NE   and  CZ  
REMARK       I    between atoms: CZ   and  NH1 
REMARK       I    between atoms: CZ   and  NH2 
ROOT
ATOM      1  CA  ARG D 557     -26.217   2.705 -17.014  1.00 35.49     0.159 C 
ENDROOT
BRANCH   1   2
ATOM      2  CB  ARG D 557     -26.789   1.319 -17.183  1.00 35.49     0.034 C 
BRANCH   2   3
ATOM      3  CG  ARG D 557     -25.858   0.196 -17.021  1.00 35.49     0.027 C 
BRANCH   3   4
ATOM      4  CD  ARG D 557     -26.215  -0.672 -15.875  1.00 35.49     0.116 C 
BRANCH   4   5
ATOM      5  NE  ARG D 557     -25.106  -0.870 -14.979  1.00 35.49    -0.212 N 
ATOM      6  CZ  ARG D 557     -24.867  -1.957 -14.280  1.00 35.49     0.666 C 
ATOM      7  NH1 ARG D 557     -25.658  -3.013 -14.321  1.00 35.49    -0.235 N 
ATOM      8  NH2 ARG D 557     -23.801  -1.969 -13.534  1.00 35.49    -0.235 N 
ATOM      9  HH  ARG D 557     -26.364  -3.028 -14.806  1.00 35.49     0.174 HD
ATOM     10  HH  ARG D 557     -25.451  -3.696 -13.845  1.00 35.49     0.174 HD
ATOM     11  HH  ARG D 557     -23.305  -1.276 -13.533  1.00 35.49     0.174 HD
ATOM     12  HH  ARG D 557     -23.612  -2.655 -13.072  1.00 35.49     0.174 HD
ATOM     13  HE  ARG D 557     -24.585  -0.212 -14.836  1.00 35.49     0.178 HD
ENDBRANCH   4   5
ENDBRANCH   3   4
ENDBRANCH   2   3
ENDBRANCH   1   2
END_RES ARG D 557
BEGIN_RES GLU D 570
REMARK  3 active torsions:
REMARK  status: ('A' for Active; 'I' for Inactive)
REMARK    5  A    between atoms: CA   and  CB  
REMARK    6  A    between atoms: CB   and  CG  
REMARK    7  A    between atoms: CG   and  CD  
ROOT
ATOM     14  CA  GLU D 570     -18.033  -6.348 -13.375  1.00 32.92     0.160 C 
ENDROOT
BRANCH  14  15
ATOM     15  CB  GLU D 570     -19.500  -6.345 -13.794  1.00 32.92     0.043 C 
BRANCH  15  16
ATOM     16  CG  GLU D 570     -20.099  -7.643 -14.200  1.00 32.92     0.100 C 
BRANCH  16  17
ATOM     17  CD  GLU D 570     -20.647  -7.625 -15.608  1.00 32.92     0.185 C 
ATOM     18  OE1 GLU D 570     -21.032  -8.693 -16.121  1.00 32.92    -0.647 OA
ATOM     19  OE2 GLU D 570     -20.675  -6.533 -16.210  1.00 32.92    -0.647 OA
ENDBRANCH  16  17
ENDBRANCH  15  16
ENDBRANCH  14  15
END_RES GLU D 570
ENDMDL
MODEL 6
REMARK VINA RESULT:      -4.8      4.305      7.059
REMARK  5 active torsions:
REMARK  status: ('A' for Active; 'I' for Inactive)
REMARK    1  A    between atoms: CG_2  and  CB_4 
REMARK    2  A    between atoms: CB_4  and  CA_5 
REMARK    3  A    between atoms: CA_5  and  C_6 
REMARK    4  A    between atoms: CA_5  and  N_9 
REMARK    5  A    between atoms: C_6  and  OXT_8 
ROOT
ATOM      1  CA  LEU A   1     -27.152  -5.877 -16.654  1.00  0.00     0.314 C 
ENDROOT
BRANCH   1   2
ATOM      2  CB  LEU A   1     -28.450  -5.080 -16.423  1.00  0.00     0.050 C 
BRANCH   2   3
ATOM      3  CG  LEU A   1     -29.532  -5.264 -17.511  1.00  0.00    -0.020 C 
ATOM      4  CD1 LEU A   1     -30.585  -6.302 -17.127  1.00  0.00     0.009 C 
ATOM      5  CD2 LEU A   1     -30.227  -3.928 -17.799  1.00  0.00     0.009 C 
ENDBRANCH   2   3
ENDBRANCH   1   2
BRANCH   1   6
ATOM      6  C   LEU A   1     -26.998  -7.057 -15.677  1.00  0.00     0.173 C 
ATOM      7  O   LEU A   1     -27.905  -7.557 -15.030  1.00  0.00    -0.648 OA
BRANCH   6   8
ATOM      8  OXT LEU A   1     -25.743  -7.576 -15.679  1.00  0.00    -0.775 OA
ATOM      9  HXT LEU A   1     -25.262  -7.436 -14.841  1.00  0.00     0.167 HD
ENDBRANCH   6   8
ENDBRANCH   1   6
BRANCH   1  10
ATOM     10  N   LEU A   1     -27.129  -6.401 -18.037  1.00  0.00     0.093 N 
ATOM     11  H1  LEU A   1     -26.157  -6.619 -18.279  1.00  0.00     0.314 HD
ATOM     12  H2  LEU A   1     -27.404  -5.674 -18.697  1.00  0.00     0.314 HD
ENDBRANCH   1  10
TORSDOF 5
BEGIN_RES ARG D 557
REMARK  4 active torsions:
REMARK  status: ('A' for Active; 'I' for Inactive)
REMARK    1  A    between atoms: CA   and  CB  
REMARK    2  A    between atoms: CB   and  CG  
REMARK    3  A    between atoms: CG   and  CD  
REMARK    4  A    between atoms: CD   and  NE  
REMARK       I    between atoms: NE   and  CZ  
REMARK       I    between atoms: CZ   and  NH1 
REMARK       I    between atoms: CZ   and  NH2 
ROOT
ATOM      1  CA  ARG D 557     -26.217   2.705 -17.014  1.00 35.49     0.159 C 
ENDROOT
BRANCH   1   2
ATOM      2  CB  ARG D 557     -26.789   1.319 -17.183  1.00 35.49     0.034 C 
BRANCH   2   3
ATOM      3  CG  ARG D 557     -25.857   0.196 -17.024  1.00 35.49     0.027 C 
BRANCH   3   4
ATOM      4  CD  ARG D 557     -26.246  -0.708 -15.918  1.00 35.49     0.116 C 
BRANCH   4   5
ATOM      5  NE  ARG D 557     -25.211  -0.828 -14.925  1.00 35.49    -0.212 N 
ATOM      6  CZ  ARG D 557     -24.817  -1.945 -14.358  1.00 35.49     0.666 C 
ATOM      7  NH1 ARG D 557     -25.360  -3.115 -14.641  1.00 35.49    -0.235 N 
ATOM      8  NH2 ARG D 557     -23.848  -1.870 -13.492  1.00 35.49    -0.235 N 
ATOM      9  HH  ARG D 557     -25.998  -3.188 -15.208  1.00 35.49     0.174 HD
ATOM     10  HH  ARG D 557     -25.060  -3.811 -14.241  1.00 35.49     0.174 HD
ATOM     11  HH  ARG D 557     -23.511  -1.102 -13.335  1.00 35.49     0.174 HD
ATOM     12  HH  ARG D 557     -23.563  -2.570 -13.108  1.00 35.49     0.174 HD
ATOM     13  HE  ARG D 557     -24.856  -0.113 -14.631  1.00 35.49     0.178 HD
ENDBRANCH   4   5
ENDBRANCH   3   4
ENDBRANCH   2   3
ENDBRANCH   1   2
END_RES ARG D 557
BEGIN_RES GLU D 570
REMARK  3 active torsions:
REMARK  status: ('A' for Active; 'I' for Inactive)
REMARK    5  A    between atoms: CA   and  CB  
REMARK    6  A    between atoms: CB   and  CG  
REMARK    7  A    between atoms: CG   and  CD  
ROOT
ATOM     14  CA  GLU D 570     -18.033  -6.348 -13.375  1.00 32.92     0.160 C 
ENDROOT
BRANCH  14  15
ATOM     15  CB  GLU D 570     -19.500  -6.345 -13.794  1.00 32.92     0.043 C 
BRANCH  15  16
ATOM     16  CG  GLU D 570     -20.436  -5.505 -13.003  1.00 32.92     0.100 C 
BRANCH  16  17
ATOM     17  CD  GLU D 570     -21.779  -5.328 -13.673  1.00 32.92     0.185 C 
ATOM     18  OE1 GLU D 570     -22.196  -6.219 -14.438  1.00 32.92    -0.647 OA
ATOM     19  OE2 GLU D 570     -22.412  -4.279 -13.444  1.00 32.92    -0.647 OA
ENDBRANCH  16  17
ENDBRANCH  15  16
ENDBRANCH  14  15
END_RES GLU D 570
ENDMDL
MODEL 7
REMARK VINA RESULT:      -4.7      2.878      3.254
REMARK  5 active torsions:
REMARK  status: ('A' for Active; 'I' for Inactive)
REMARK    1  A    between atoms: CG_2  and  CB_4 
REMARK    2  A    between atoms: CB_4  and  CA_5 
REMARK    3  A    between atoms: CA_5  and  C_6 
REMARK    4  A    between atoms: CA_5  and  N_9 
REMARK    5  A    between atoms: C_6  and  OXT_8 
ROOT
ATOM      1  CA  LEU A   1     -23.482  -3.550  -9.235  1.00  0.00     0.314 C 
ENDROOT
BRANCH   1   2
ATOM      2  CB  LEU A   1     -22.437  -4.527  -9.805  1.00  0.00     0.050 C 
BRANCH   2   3
ATOM      3  CG  LEU A   1     -20.980  -4.014  -9.780  1.00  0.00    -0.020 C 
ATOM      4  CD1 LEU A   1     -20.071  -4.861  -8.891  1.00  0.00     0.009 C 
ATOM      5  CD2 LEU A   1     -20.404  -3.982 -11.200  1.00  0.00     0.009 C 
ENDBRANCH   2   3
ENDBRANCH   1   2
BRANCH   1   6
ATOM      6  C   LEU A   1     -24.625  -3.259 -10.226  1.00  0.00     0.173 C 
ATOM      7  O   LEU A   1     -24.484  -3.059 -11.423  1.00  0.00    -0.648 OA
BRANCH   6   8
ATOM      8  OXT LEU A   1     -25.851  -3.352  -9.651  1.00  0.00    -0.775 OA
ATOM      9  HXT LEU A   1     -25.884  -2.996  -8.742  1.00  0.00     0.167 HD
ENDBRANCH   6   8
ENDBRANCH   1   6
BRANCH   1  10
ATOM     10  N   LEU A   1     -24.062  -4.108  -7.994  1.00  0.00     0.093 N 
ATOM     11  H1  LEU A   1     -23.579  -4.987  -7.784  1.00  0.00     0.314 HD
ATOM     12  H2  LEU A   1     -25.035  -4.374  -8.146  1.00  0.00     0.314 HD
ENDBRANCH   1  10
TORSDOF 5
BEGIN_RES ARG D 557
REMARK  4 active torsions:
REMARK  status: ('A' for Active; 'I' for Inactive)
REMARK    1  A    between atoms: CA   and  CB  
REMARK    2  A    between atoms: CB   and  CG  
REMARK    3  A    between atoms: CG   and  CD  
REMARK    4  A    between atoms: CD   and  NE  
REMARK       I    between atoms: NE   and  CZ  
REMARK       I    between atoms: CZ   and  NH1 
REMARK       I    between atoms: CZ   and  NH2 
ROOT
ATOM      1  CA  ARG D 557     -26.217   2.705 -17.014  1.00 35.49     0.159 C 
ENDROOT
BRANCH   1   2
ATOM      2  CB  ARG D 557     -26.789   1.319 -17.183  1.00 35.49     0.034 C 
BRANCH   2   3
ATOM      3  CG  ARG D 557     -28.231   1.226 -17.441  1.00 35.49     0.027 C 
BRANCH   3   4
ATOM      4  CD  ARG D 557     -28.914   0.304 -16.506  1.00 35.49     0.116 C 
BRANCH   4   5
ATOM      5  NE  ARG D 557     -28.133  -0.876 -16.241  1.00 35.49    -0.212 N 
ATOM      6  CZ  ARG D 557     -28.374  -2.079 -16.714  1.00 35.49     0.666 C 
ATOM      7  NH1 ARG D 557     -29.404  -2.339 -17.498  1.00 35.49    -0.235 N 
ATOM      8  NH2 ARG D 557     -27.548  -3.029 -16.387  1.00 35.49    -0.235 N 
ATOM      9  HH  ARG D 557     -29.960  -1.728 -17.727  1.00 35.49     0.174 HD
ATOM     10  HH  ARG D 557     -29.510  -3.142 -17.778  1.00 35.49     0.174 HD
ATOM     11  HH  ARG D 557     -26.887  -2.830 -15.885  1.00 35.49     0.174 HD
ATOM     12  HH  ARG D 557     -27.668  -3.817 -16.676  1.00 35.49     0.174 HD
ATOM     13  HE  ARG D 557     -27.492  -0.814 -15.687  1.00 35.49     0.178 HD
ENDBRANCH   4   5
ENDBRANCH   3   4
ENDBRANCH   2   3
ENDBRANCH   1   2
END_RES ARG D 557
BEGIN_RES GLU D 570
REMARK  3 active torsions:
REMARK  status: ('A' for Active; 'I' for Inactive)
REMARK    5  A    between atoms: CA   and  CB  
REMARK    6  A    between atoms: CB   and  CG  
REMARK    7  A    between atoms: CG   and  CD  
ROOT
ATOM     14  CA  GLU D 570     -18.033  -6.348 -13.375  1.00 32.92     0.160 C 
ENDROOT
BRANCH  14  15
ATOM     15  CB  GLU D 570     -19.500  -6.345 -13.794  1.00 32.92     0.043 C 
BRANCH  15  16
ATOM     16  CG  GLU D 570     -20.091  -7.638 -14.226  1.00 32.92     0.100 C 
BRANCH  16  17
ATOM     17  CD  GLU D 570     -20.663  -7.586 -15.624  1.00 32.92     0.185 C 
ATOM     18  OE1 GLU D 570     -21.159  -8.619 -16.113  1.00 32.92    -0.647 OA
ATOM     19  OE2 GLU D 570     -20.599  -6.505 -16.242  1.00 32.92    -0.647 OA
ENDBRANCH  16  17
ENDBRANCH  15  16
ENDBRANCH  14  15
END_RES GLU D 570
ENDMDL
MODEL 8
REMARK VINA RESULT:      -4.6      2.909      3.878
REMARK  5 active torsions:
REMARK  status: ('A' for Active; 'I' for Inactive)
REMARK    1  A    between atoms: CG_2  and  CB_4 
REMARK    2  A    between atoms: CB_4  and  CA_5 
REMARK    3  A    between atoms: CA_5  and  C_6 
REMARK    4  A    between atoms: CA_5  and  N_9 
REMARK    5  A    between atoms: C_6  and  OXT_8 
ROOT
ATOM      1  CA  LEU A   1     -23.125  -3.723 -13.341  1.00  0.00     0.314 C 
ENDROOT
BRANCH   1   2
ATOM      2  CB  LEU A   1     -22.454  -3.082 -12.111  1.00  0.00     0.050 C 
BRANCH   2   3
ATOM      3  CG  LEU A   1     -21.959  -4.081 -11.043  1.00  0.00    -0.020 C 
ATOM      4  CD1 LEU A   1     -20.435  -4.131 -10.943  1.00  0.00     0.009 C 
ATOM      5  CD2 LEU A   1     -22.538  -3.720  -9.670  1.00  0.00     0.009 C 
ENDBRANCH   2   3
ENDBRANCH   1   2
BRANCH   1   6
ATOM      6  C   LEU A   1     -24.504  -3.111 -13.651  1.00  0.00     0.173 C 
ATOM      7  O   LEU A   1     -24.952  -2.921 -14.772  1.00  0.00    -0.648 OA
BRANCH   6   8
ATOM      8  OXT LEU A   1     -25.242  -2.892 -12.534  1.00  0.00    -0.775 OA
ATOM      9  HXT LEU A   1     -24.819  -2.282 -11.900  1.00  0.00     0.167 HD
ENDBRANCH   6   8
ENDBRANCH   1   6
BRANCH   1  10
ATOM     10  N   LEU A   1     -22.256  -3.558 -14.526  1.00  0.00     0.093 N 
ATOM     11  H1  LEU A   1     -22.845  -3.279 -15.317  1.00  0.00     0.314 HD
ATOM     12  H2  LEU A   1     -21.857  -4.455 -14.801  1.00  0.00     0.314 HD
ENDBRANCH   1  10
TORSDOF 5
BEGIN_RES ARG D 557
REMARK  4 active torsions:
REMARK  status: ('A' for Active; 'I' for Inactive)
REMARK    1  A    between atoms: CA   and  CB  
REMARK    2  A    between atoms: CB   and  CG  
REMARK    3  A    between atoms: CG   and  CD  
REMARK    4  A    between atoms: CD   and  NE  
REMARK       I    between atoms: NE   and  CZ  
REMARK       I    between atoms: CZ   and  NH1 
REMARK       I    between atoms: CZ   and  NH2 
ROOT
ATOM      1  CA  ARG D 557     -26.217   2.705 -17.014  1.00 35.49     0.159 C 
ENDROOT
BRANCH   1   2
ATOM      2  CB  ARG D 557     -26.789   1.319 -17.183  1.00 35.49     0.034 C 
BRANCH   2   3
ATOM      3  CG  ARG D 557     -28.236   1.225 -17.408  1.00 35.49     0.027 C 
BRANCH   3   4
ATOM      4  CD  ARG D 557     -28.893   0.283 -16.473  1.00 35.49     0.116 C 
BRANCH   4   5
ATOM      5  NE  ARG D 557     -29.273  -0.946 -17.118  1.00 35.49    -0.212 N 
ATOM      6  CZ  ARG D 557     -28.636  -2.092 -17.024  1.00 35.49     0.666 C 
ATOM      7  NH1 ARG D 557     -27.533  -2.233 -16.313  1.00 35.49    -0.235 N 
ATOM      8  NH2 ARG D 557     -29.136  -3.110 -17.661  1.00 35.49    -0.235 N 
ATOM      9  HH  ARG D 557     -27.187  -1.577 -15.884  1.00 35.49     0.174 HD
ATOM     10  HH  ARG D 557     -27.162  -3.005 -16.287  1.00 35.49     0.174 HD
ATOM     11  HH  ARG D 557     -29.854  -2.991 -18.106  1.00 35.49     0.174 HD
ATOM     12  HH  ARG D 557     -28.755  -3.867 -17.621  1.00 35.49     0.174 HD
ATOM     13  HE  ARG D 557     -29.932  -0.928 -17.654  1.00 35.49     0.178 HD
ENDBRANCH   4   5
ENDBRANCH   3   4
ENDBRANCH   2   3
ENDBRANCH   1   2
END_RES ARG D 557
BEGIN_RES GLU D 570
REMARK  3 active torsions:
REMARK  status: ('A' for Active; 'I' for Inactive)
REMARK    5  A    between atoms: CA   and  CB  
REMARK    6  A    between atoms: CB   and  CG  
REMARK    7  A    between atoms: CG   and  CD  
ROOT
ATOM     14  CA  GLU D 570     -18.033  -6.348 -13.375  1.00 32.92     0.160 C 
ENDROOT
BRANCH  14  15
ATOM     15  CB  GLU D 570     -19.500  -6.345 -13.794  1.00 32.92     0.043 C 
BRANCH  15  16
ATOM     16  CG  GLU D 570     -20.073  -7.623 -14.289  1.00 32.92     0.100 C 
BRANCH  16  17
ATOM     17  CD  GLU D 570     -21.151  -7.422 -15.328  1.00 32.92     0.185 C 
ATOM     18  OE1 GLU D 570     -21.998  -6.524 -15.156  1.00 32.92    -0.647 OA
ATOM     19  OE2 GLU D 570     -21.160  -8.182 -16.317  1.00 32.92    -0.647 OA
ENDBRANCH  16  17
ENDBRANCH  15  16
ENDBRANCH  14  15
END_RES GLU D 570
ENDMDL
MODEL 9
REMARK VINA RESULT:      -4.6      2.383      3.022
REMARK  5 active torsions:
REMARK  status: ('A' for Active; 'I' for Inactive)
REMARK    1  A    between atoms: CG_2  and  CB_4 
REMARK    2  A    between atoms: CB_4  and  CA_5 
REMARK    3  A    between atoms: CA_5  and  C_6 
REMARK    4  A    between atoms: CA_5  and  N_9 
REMARK    5  A    between atoms: C_6  and  OXT_8 
ROOT
ATOM      1  CA  LEU A   1     -22.962  -3.765 -10.323  1.00  0.00     0.314 C 
ENDROOT
BRANCH   1   2
ATOM      2  CB  LEU A   1     -22.658  -3.650  -8.818  1.00  0.00     0.050 C 
BRANCH   2   3
ATOM      3  CG  LEU A   1     -21.600  -4.643  -8.288  1.00  0.00    -0.020 C 
ATOM      4  CD1 LEU A   1     -20.177  -4.095  -8.379  1.00  0.00     0.009 C 
ATOM      5  CD2 LEU A   1     -21.902  -5.013  -6.831  1.00  0.00     0.009 C 
ENDBRANCH   2   3
ENDBRANCH   1   2
BRANCH   1   6
ATOM      6  C   LEU A   1     -24.396  -3.327 -10.674  1.00  0.00     0.173 C 
ATOM      7  O   LEU A   1     -25.323  -3.254  -9.881  1.00  0.00    -0.648 OA
BRANCH   6   8
ATOM      8  OXT LEU A   1     -24.517  -2.914 -11.962  1.00  0.00    -0.775 OA
ATOM      9  HXT LEU A   1     -24.971  -3.559 -12.537  1.00  0.00     0.167 HD
ENDBRANCH   6   8
ENDBRANCH   1   6
BRANCH   1  10
ATOM     10  N   LEU A   1     -22.012  -2.929 -11.089  1.00  0.00     0.093 N 
ATOM     11  H1  LEU A   1     -22.317  -2.913 -12.066  1.00  0.00     0.314 HD
ATOM     12  H2  LEU A   1     -21.091  -3.368 -11.110  1.00  0.00     0.314 HD
ENDBRANCH   1  10
TORSDOF 5
BEGIN_RES ARG D 557
REMARK  4 active torsions:
REMARK  status: ('A' for Active; 'I' for Inactive)
REMARK    1  A    between atoms: CA   and  CB  
REMARK    2  A    between atoms: CB   and  CG  
REMARK    3  A    between atoms: CG   and  CD  
REMARK    4  A    between atoms: CD   and  NE  
REMARK       I    between atoms: NE   and  CZ  
REMARK       I    between atoms: CZ   and  NH1 
REMARK       I    between atoms: CZ   and  NH2 
ROOT
ATOM      1  CA  ARG D 557     -26.217   2.705 -17.014  1.00 35.49     0.159 C 
ENDROOT
BRANCH   1   2
ATOM      2  CB  ARG D 557     -26.789   1.319 -17.183  1.00 35.49     0.034 C 
BRANCH   2   3
ATOM      3  CG  ARG D 557     -28.234   1.226 -17.425  1.00 35.49     0.027 C 
BRANCH   3   4
ATOM      4  CD  ARG D 557     -28.903   0.293 -16.489  1.00 35.49     0.116 C 
BRANCH   4   5
ATOM      5  NE  ARG D 557     -29.295  -0.933 -17.133  1.00 35.49    -0.212 N 
ATOM      6  CZ  ARG D 557     -28.670  -2.085 -17.036  1.00 35.49     0.666 C 
ATOM      7  NH1 ARG D 557     -27.569  -2.237 -16.322  1.00 35.49    -0.235 N 
ATOM      8  NH2 ARG D 557     -29.179  -3.100 -17.672  1.00 35.49    -0.235 N 
ATOM      9  HH  ARG D 557     -27.218  -1.583 -15.894  1.00 35.49     0.174 HD
ATOM     10  HH  ARG D 557     -27.207  -3.013 -16.294  1.00 35.49     0.174 HD
ATOM     11  HH  ARG D 557     -29.894  -2.974 -18.119  1.00 35.49     0.174 HD
ATOM     12  HH  ARG D 557     -28.806  -3.860 -17.630  1.00 35.49     0.174 HD
ATOM     13  HE  ARG D 557     -29.953  -0.909 -17.671  1.00 35.49     0.178 HD
ENDBRANCH   4   5
ENDBRANCH   3   4
ENDBRANCH   2   3
ENDBRANCH   1   2
END_RES ARG D 557
BEGIN_RES GLU D 570
REMARK  3 active torsions:
REMARK  status: ('A' for Active; 'I' for Inactive)
REMARK    5  A    between atoms: CA   and  CB  
REMARK    6  A    between atoms: CB   and  CG  
REMARK    7  A    between atoms: CG   and  CD  
ROOT
ATOM     14  CA  GLU D 570     -18.033  -6.348 -13.375  1.00 32.92     0.160 C 
ENDROOT
BRANCH  14  15
ATOM     15  CB  GLU D 570     -19.500  -6.345 -13.794  1.00 32.92     0.043 C 
BRANCH  15  16
ATOM     16  CG  GLU D 570     -20.430  -5.480 -13.024  1.00 32.92     0.100 C 
BRANCH  16  17
ATOM     17  CD  GLU D 570     -21.740  -5.240 -13.737  1.00 32.92     0.185 C 
ATOM     18  OE1 GLU D 570     -22.261  -4.110 -13.684  1.00 32.92    -0.647 OA
ATOM     19  OE2 GLU D 570     -22.259  -6.199 -14.343  1.00 32.92    -0.647 OA
ENDBRANCH  16  17
ENDBRANCH  15  16
ENDBRANCH  14  15
END_RES GLU D 570
ENDMDL
