MODEL 1
REMARK VINA RESULT:      -5.3      0.000      0.000
REMARK  9 active torsions:
REMARK  status: ('A' for Active; 'I' for Inactive)
REMARK    1  A    between atoms: C_2  and  C_3 
REMARK    2  A    between atoms: C_3  and  C_4 
REMARK    3  A    between atoms: C_4  and  O_5 
REMARK    4  A    between atoms: O_5  and  C_6 
REMARK    5  A    between atoms: C_6  and  C_7 
REMARK    6  A    between atoms: C_7  and  O_9 
REMARK    7  A    between atoms: O_9  and  C_10 
REMARK    8  A    between atoms: C_10  and  C_11 
REMARK    9  A    between atoms: C_11  and  O_12 
ROOT
HETATM    1  C   UNL     1     -22.010  -3.892  -8.869  1.00  0.00     0.141 C 
HETATM    2  C   UNL     1     -20.783  -3.879  -9.782  1.00  0.00     0.042 C 
ENDROOT
BRANCH   1   3
HETATM    3  C   UNL     1     -21.590  -4.016  -7.397  1.00  0.00     0.199 C 
BRANCH   3   4
HETATM    4  O   UNL     1     -22.371  -4.997  -6.715  1.00  0.00    -0.389 OA
BRANCH   4   5
HETATM    5  C   UNL     1     -21.526  -5.931  -6.044  1.00  0.00     0.167 C 
BRANCH   5   6
HETATM    6  C   UNL     1     -22.220  -6.383  -4.766  1.00  0.00     0.026 C 
BRANCH   6   7
HETATM    7  C   UNL     1     -21.328  -6.152  -3.549  1.00  0.00    -0.002 C 
HETATM    8  C   UNL     1     -22.120  -6.262  -2.257  1.00  0.00     0.005 C 
ENDBRANCH   6   7
ENDBRANCH   5   6
ENDBRANCH   4   5
ENDBRANCH   3   4
ENDBRANCH   1   3
BRANCH   1   9
HETATM    9  O   UNL     1     -22.838  -4.995  -9.279  1.00  0.00    -0.382 OA
BRANCH   9  10
HETATM   10  C   UNL     1     -23.942  -4.600 -10.106  1.00  0.00     0.194 C 
BRANCH  10  11
HETATM   11  C   UNL     1     -24.551  -3.324  -9.536  1.00  0.00     0.190 C 
BRANCH  11  12
HETATM   12  O   UNL     1     -25.955  -3.308  -9.787  1.00  0.00    -0.399 OA
HETATM   13  H   UNL     1     -26.291  -2.532  -9.297  1.00  0.00     0.209 HD
ENDBRANCH  11  12
ENDBRANCH  10  11
ENDBRANCH   9  10
ENDBRANCH   1   9
TORSDOF 9
BEGIN_RES ARG D 557
REMARK  4 active torsions:
REMARK  status: ('A' for Active; 'I' for Inactive)
REMARK    1  A    between atoms: CA   and  CB  
REMARK    2  A    between atoms: CB   and  CG  
REMARK    3  A    between atoms: CG   and  CD  
REMARK    4  A    between atoms: CD   and  NE  
REMARK       I    between atoms: NE   and  CZ  
REMARK       I    between atoms: CZ   and  NH1 
REMARK       I    between atoms: CZ   and  NH2 
ROOT
ATOM      1  CA  ARG D 557     -26.217   2.705 -17.014  1.00 35.49     0.159 C 
ENDROOT
BRANCH   1   2
ATOM      2  CB  ARG D 557     -26.789   1.319 -17.183  1.00 35.49     0.034 C 
BRANCH   2   3
ATOM      3  CG  ARG D 557     -25.834   0.204 -17.172  1.00 35.49     0.027 C 
BRANCH   3   4
ATOM      4  CD  ARG D 557     -24.756   0.395 -16.175  1.00 35.49     0.116 C 
BRANCH   4   5
ATOM      5  NE  ARG D 557     -24.923  -0.456 -15.026  1.00 35.49    -0.212 N 
ATOM      6  CZ  ARG D 557     -24.111  -1.423 -14.662  1.00 35.49     0.666 C 
ATOM      7  NH1 ARG D 557     -23.026  -1.734 -15.348  1.00 35.49    -0.235 N 
ATOM      8  NH2 ARG D 557     -24.407  -2.080 -13.578  1.00 35.49    -0.235 N 
ATOM      9  HH  ARG D 557     -22.811  -1.314 -16.063  1.00 35.49     0.174 HD
ATOM     10  HH  ARG D 557     -22.533  -2.373 -15.061  1.00 35.49     0.174 HD
ATOM     11  HH  ARG D 557     -25.110  -1.852 -13.152  1.00 35.49     0.174 HD
ATOM     12  HH  ARG D 557     -23.906  -2.708 -13.310  1.00 35.49     0.174 HD
ATOM     13  HE  ARG D 557     -25.634  -0.373 -14.568  1.00 35.49     0.178 HD
ENDBRANCH   4   5
ENDBRANCH   3   4
ENDBRANCH   2   3
ENDBRANCH   1   2
END_RES ARG D 557
BEGIN_RES GLU D 570
REMARK  3 active torsions:
REMARK  status: ('A' for Active; 'I' for Inactive)
REMARK    5  A    between atoms: CA   and  CB  
REMARK    6  A    between atoms: CB   and  CG  
REMARK    7  A    between atoms: CG   and  CD  
ROOT
ATOM     14  CA  GLU D 570     -18.033  -6.348 -13.375  1.00 32.92     0.160 C 
ENDROOT
BRANCH  14  15
ATOM     15  CB  GLU D 570     -19.500  -6.345 -13.794  1.00 32.92     0.043 C 
BRANCH  15  16
ATOM     16  CG  GLU D 570     -20.445  -5.546 -12.972  1.00 32.92     0.100 C 
BRANCH  16  17
ATOM     17  CD  GLU D 570     -21.741  -5.246 -13.689  1.00 32.92     0.185 C 
ATOM     18  OE1 GLU D 570     -22.209  -6.093 -14.474  1.00 32.92    -0.647 OA
ATOM     19  OE2 GLU D 570     -22.286  -4.145 -13.475  1.00 32.92    -0.647 OA
ENDBRANCH  16  17
ENDBRANCH  15  16
ENDBRANCH  14  15
END_RES GLU D 570
ENDMDL
MODEL 2
REMARK VINA RESULT:      -5.3      2.540      3.545
REMARK  9 active torsions:
REMARK  status: ('A' for Active; 'I' for Inactive)
REMARK    1  A    between atoms: C_2  and  C_3 
REMARK    2  A    between atoms: C_3  and  C_4 
REMARK    3  A    between atoms: C_4  and  O_5 
REMARK    4  A    between atoms: O_5  and  C_6 
REMARK    5  A    between atoms: C_6  and  C_7 
REMARK    6  A    between atoms: C_7  and  O_9 
REMARK    7  A    between atoms: O_9  and  C_10 
REMARK    8  A    between atoms: C_10  and  C_11 
REMARK    9  A    between atoms: C_11  and  O_12 
ROOT
HETATM    1  C   UNL     1     -21.844  -3.608 -11.012  1.00  0.00     0.141 C 
HETATM    2  C   UNL     1     -20.428  -4.178 -10.936  1.00  0.00     0.042 C 
ENDROOT
BRANCH   1   3
HETATM    3  C   UNL     1     -22.789  -4.376 -10.076  1.00  0.00     0.199 C 
BRANCH   3   4
HETATM    4  O   UNL     1     -23.036  -3.647  -8.875  1.00  0.00    -0.389 OA
BRANCH   4   5
HETATM    5  C   UNL     1     -22.534  -4.360  -7.745  1.00  0.00     0.167 C 
BRANCH   5   6
HETATM    6  C   UNL     1     -21.379  -3.568  -7.146  1.00  0.00     0.026 C 
BRANCH   6   7
HETATM    7  C   UNL     1     -20.407  -4.490  -6.413  1.00  0.00    -0.002 C 
HETATM    8  C   UNL     1     -19.180  -4.781  -7.259  1.00  0.00     0.005 C 
ENDBRANCH   6   7
ENDBRANCH   5   6
ENDBRANCH   4   5
ENDBRANCH   3   4
ENDBRANCH   1   3
BRANCH   1   9
HETATM    9  O   UNL     1     -22.269  -3.695 -12.384  1.00  0.00    -0.382 OA
BRANCH   9  10
HETATM   10  C   UNL     1     -23.175  -2.650 -12.765  1.00  0.00     0.194 C 
BRANCH  10  11
HETATM   11  C   UNL     1     -23.210  -2.562 -14.287  1.00  0.00     0.190 C 
BRANCH  11  12
HETATM   12  O   UNL     1     -23.884  -3.701 -14.819  1.00  0.00    -0.399 OA
HETATM   13  H   UNL     1     -24.723  -3.353 -15.180  1.00  0.00     0.209 HD
ENDBRANCH  11  12
ENDBRANCH  10  11
ENDBRANCH   9  10
ENDBRANCH   1   9
TORSDOF 9
BEGIN_RES ARG D 557
REMARK  4 active torsions:
REMARK  status: ('A' for Active; 'I' for Inactive)
REMARK    1  A    between atoms: CA   and  CB  
REMARK    2  A    between atoms: CB   and  CG  
REMARK    3  A    between atoms: CG   and  CD  
REMARK    4  A    between atoms: CD   and  NE  
REMARK       I    between atoms: NE   and  CZ  
REMARK       I    between atoms: CZ   and  NH1 
REMARK       I    between atoms: CZ   and  NH2 
ROOT
ATOM      1  CA  ARG D 557     -26.217   2.705 -17.014  1.00 35.49     0.159 C 
ENDROOT
BRANCH   1   2
ATOM      2  CB  ARG D 557     -26.789   1.319 -17.183  1.00 35.49     0.034 C 
BRANCH   2   3
ATOM      3  CG  ARG D 557     -28.228   1.164 -16.940  1.00 35.49     0.027 C 
BRANCH   3   4
ATOM      4  CD  ARG D 557     -28.639  -0.257 -16.867  1.00 35.49     0.116 C 
BRANCH   4   5
ATOM      5  NE  ARG D 557     -27.685  -1.060 -16.149  1.00 35.49    -0.212 N 
ATOM      6  CZ  ARG D 557     -27.575  -2.368 -16.219  1.00 35.49     0.666 C 
ATOM      7  NH1 ARG D 557     -28.367  -3.107 -16.973  1.00 35.49    -0.235 N 
ATOM      8  NH2 ARG D 557     -26.636  -2.930 -15.513  1.00 35.49    -0.235 N 
ATOM      9  HH  ARG D 557     -28.990  -2.758 -17.447  1.00 35.49     0.174 HD
ATOM     10  HH  ARG D 557     -28.247  -3.955 -16.981  1.00 35.49     0.174 HD
ATOM     11  HH  ARG D 557     -26.135  -2.427 -15.041  1.00 35.49     0.174 HD
ATOM     12  HH  ARG D 557     -26.532  -3.771 -15.536  1.00 35.49     0.174 HD
ATOM     13  HE  ARG D 557     -27.181  -0.673 -15.583  1.00 35.49     0.178 HD
ENDBRANCH   4   5
ENDBRANCH   3   4
ENDBRANCH   2   3
ENDBRANCH   1   2
END_RES ARG D 557
BEGIN_RES GLU D 570
REMARK  3 active torsions:
REMARK  status: ('A' for Active; 'I' for Inactive)
REMARK    5  A    between atoms: CA   and  CB  
REMARK    6  A    between atoms: CB   and  CG  
REMARK    7  A    between atoms: CG   and  CD  
ROOT
ATOM     14  CA  GLU D 570     -18.033  -6.348 -13.375  1.00 32.92     0.160 C 
ENDROOT
BRANCH  14  15
ATOM     15  CB  GLU D 570     -19.500  -6.345 -13.794  1.00 32.92     0.043 C 
BRANCH  15  16
ATOM     16  CG  GLU D 570     -19.808  -5.999 -15.206  1.00 32.92     0.100 C 
BRANCH  16  17
ATOM     17  CD  GLU D 570     -21.265  -5.666 -15.426  1.00 32.92     0.185 C 
ATOM     18  OE1 GLU D 570     -22.121  -6.164 -14.670  1.00 32.92    -0.647 OA
ATOM     19  OE2 GLU D 570     -21.556  -4.913 -16.377  1.00 32.92    -0.647 OA
ENDBRANCH  16  17
ENDBRANCH  15  16
ENDBRANCH  14  15
END_RES GLU D 570
ENDMDL
MODEL 3
REMARK VINA RESULT:      -5.2      2.805      4.484
REMARK  9 active torsions:
REMARK  status: ('A' for Active; 'I' for Inactive)
REMARK    1  A    between atoms: C_2  and  C_3 
REMARK    2  A    between atoms: C_3  and  C_4 
REMARK    3  A    between atoms: C_4  and  O_5 
REMARK    4  A    between atoms: O_5  and  C_6 
REMARK    5  A    between atoms: C_6  and  C_7 
REMARK    6  A    between atoms: C_7  and  O_9 
REMARK    7  A    between atoms: O_9  and  C_10 
REMARK    8  A    between atoms: C_10  and  C_11 
REMARK    9  A    between atoms: C_11  and  O_12 
ROOT
HETATM    1  C   UNL     1     -22.802  -3.321 -13.180  1.00  0.00     0.141 C 
HETATM    2  C   UNL     1     -23.688  -4.566 -13.140  1.00  0.00     0.042 C 
ENDROOT
BRANCH   1   3
HETATM    3  C   UNL     1     -22.338  -2.938 -11.767  1.00  0.00     0.199 C 
BRANCH   3   4
HETATM    4  O   UNL     1     -23.361  -3.176 -10.802  1.00  0.00    -0.389 OA
BRANCH   4   5
HETATM    5  C   UNL     1     -22.813  -3.783  -9.631  1.00  0.00     0.167 C 
BRANCH   5   6
HETATM    6  C   UNL     1     -21.356  -4.131  -9.901  1.00  0.00     0.026 C 
BRANCH   6   7
HETATM    7  C   UNL     1     -20.557  -4.185  -8.601  1.00  0.00    -0.002 C 
HETATM    8  C   UNL     1     -21.407  -3.769  -7.413  1.00  0.00     0.005 C 
ENDBRANCH   6   7
ENDBRANCH   5   6
ENDBRANCH   4   5
ENDBRANCH   3   4
ENDBRANCH   1   3
BRANCH   1   9
HETATM    9  O   UNL     1     -23.570  -2.267 -13.789  1.00  0.00    -0.382 OA
BRANCH   9  10
HETATM   10  C   UNL     1     -23.051  -1.847 -15.059  1.00  0.00     0.194 C 
BRANCH  10  11
HETATM   11  C   UNL     1     -23.692  -0.517 -15.437  1.00  0.00     0.190 C 
BRANCH  11  12
HETATM   12  O   UNL     1     -24.888  -0.329 -14.682  1.00  0.00    -0.399 OA
HETATM   13  H   UNL     1     -25.599  -0.251 -15.348  1.00  0.00     0.209 HD
ENDBRANCH  11  12
ENDBRANCH  10  11
ENDBRANCH   9  10
ENDBRANCH   1   9
TORSDOF 9
BEGIN_RES ARG D 557
REMARK  4 active torsions:
REMARK  status: ('A' for Active; 'I' for Inactive)
REMARK    1  A    between atoms: CA   and  CB  
REMARK    2  A    between atoms: CB   and  CG  
REMARK    3  A    between atoms: CG   and  CD  
REMARK    4  A    between atoms: CD   and  NE  
REMARK       I    between atoms: NE   and  CZ  
REMARK       I    between atoms: CZ   and  NH1 
REMARK       I    between atoms: CZ   and  NH2 
ROOT
ATOM      1  CA  ARG D 557     -26.217   2.705 -17.014  1.00 35.49     0.159 C 
ENDROOT
BRANCH   1   2
ATOM      2  CB  ARG D 557     -26.789   1.319 -17.183  1.00 35.49     0.034 C 
BRANCH   2   3
ATOM      3  CG  ARG D 557     -28.213   1.149 -16.870  1.00 35.49     0.027 C 
BRANCH   3   4
ATOM      4  CD  ARG D 557     -28.590  -0.274 -16.710  1.00 35.49     0.116 C 
BRANCH   4   5
ATOM      5  NE  ARG D 557     -27.598  -1.019 -15.982  1.00 35.49    -0.212 N 
ATOM      6  CZ  ARG D 557     -27.403  -2.317 -16.057  1.00 35.49     0.666 C 
ATOM      7  NH1 ARG D 557     -28.136  -3.100 -16.827  1.00 35.49    -0.235 N 
ATOM      8  NH2 ARG D 557     -26.442  -2.822 -15.340  1.00 35.49    -0.235 N 
ATOM      9  HH  ARG D 557     -28.772  -2.788 -17.309  1.00 35.49     0.174 HD
ATOM     10  HH  ARG D 557     -27.961  -3.939 -16.838  1.00 35.49     0.174 HD
ATOM     11  HH  ARG D 557     -25.980  -2.291 -14.858  1.00 35.49     0.174 HD
ATOM     12  HH  ARG D 557     -26.284  -3.655 -15.366  1.00 35.49     0.174 HD
ATOM     13  HE  ARG D 557     -27.129  -0.604 -15.407  1.00 35.49     0.178 HD
ENDBRANCH   4   5
ENDBRANCH   3   4
ENDBRANCH   2   3
ENDBRANCH   1   2
END_RES ARG D 557
BEGIN_RES GLU D 570
REMARK  3 active torsions:
REMARK  status: ('A' for Active; 'I' for Inactive)
REMARK    5  A    between atoms: CA   and  CB  
REMARK    6  A    between atoms: CB   and  CG  
REMARK    7  A    between atoms: CG   and  CD  
ROOT
ATOM     14  CA  GLU D 570     -18.033  -6.348 -13.375  1.00 32.92     0.160 C 
ENDROOT
BRANCH  14  15
ATOM     15  CB  GLU D 570     -19.500  -6.345 -13.794  1.00 32.92     0.043 C 
BRANCH  15  16
ATOM     16  CG  GLU D 570     -19.796  -6.313 -15.250  1.00 32.92     0.100 C 
BRANCH  16  17
ATOM     17  CD  GLU D 570     -21.248  -6.020 -15.549  1.00 32.92     0.185 C 
ATOM     18  OE1 GLU D 570     -21.552  -4.924 -16.057  1.00 32.92    -0.647 OA
ATOM     19  OE2 GLU D 570     -22.092  -6.891 -15.258  1.00 32.92    -0.647 OA
ENDBRANCH  16  17
ENDBRANCH  15  16
ENDBRANCH  14  15
END_RES GLU D 570
ENDMDL
MODEL 4
REMARK VINA RESULT:      -5.2      3.380      5.048
REMARK  9 active torsions:
REMARK  status: ('A' for Active; 'I' for Inactive)
REMARK    1  A    between atoms: C_2  and  C_3 
REMARK    2  A    between atoms: C_3  and  C_4 
REMARK    3  A    between atoms: C_4  and  O_5 
REMARK    4  A    between atoms: O_5  and  C_6 
REMARK    5  A    between atoms: C_6  and  C_7 
REMARK    6  A    between atoms: C_7  and  O_9 
REMARK    7  A    between atoms: O_9  and  C_10 
REMARK    8  A    between atoms: C_10  and  C_11 
REMARK    9  A    between atoms: C_11  and  O_12 
ROOT
HETATM    1  C   UNL     1     -23.579  -3.838 -13.797  1.00  0.00     0.141 C 
HETATM    2  C   UNL     1     -22.561  -4.789 -13.168  1.00  0.00     0.042 C 
ENDROOT
BRANCH   1   3
HETATM    3  C   UNL     1     -24.382  -3.106 -12.711  1.00  0.00     0.199 C 
BRANCH   3   4
HETATM    4  O   UNL     1     -23.624  -2.964 -11.511  1.00  0.00    -0.389 OA
BRANCH   4   5
HETATM    5  C   UNL     1     -24.387  -3.395 -10.383  1.00  0.00     0.167 C 
BRANCH   5   6
HETATM    6  C   UNL     1     -23.599  -4.469  -9.646  1.00  0.00     0.026 C 
BRANCH   6   7
HETATM    7  C   UNL     1     -22.401  -3.865  -8.917  1.00  0.00    -0.002 C 
HETATM    8  C   UNL     1     -21.091  -4.314  -9.543  1.00  0.00     0.005 C 
ENDBRANCH   6   7
ENDBRANCH   5   6
ENDBRANCH   4   5
ENDBRANCH   3   4
ENDBRANCH   1   3
BRANCH   1   9
HETATM    9  O   UNL     1     -24.432  -4.623 -14.649  1.00  0.00    -0.382 OA
BRANCH   9  10
HETATM   10  C   UNL     1     -24.061  -6.008 -14.703  1.00  0.00     0.194 C 
BRANCH  10  11
HETATM   11  C   UNL     1     -24.980  -6.724 -15.687  1.00  0.00     0.190 C 
BRANCH  11  12
HETATM   12  O   UNL     1     -24.386  -7.958 -16.088  1.00  0.00    -0.399 OA
HETATM   13  H   UNL     1     -23.434  -7.856 -15.892  1.00  0.00     0.209 HD
ENDBRANCH  11  12
ENDBRANCH  10  11
ENDBRANCH   9  10
ENDBRANCH   1   9
TORSDOF 9
BEGIN_RES ARG D 557
REMARK  4 active torsions:
REMARK  status: ('A' for Active; 'I' for Inactive)
REMARK    1  A    between atoms: CA   and  CB  
REMARK    2  A    between atoms: CB   and  CG  
REMARK    3  A    between atoms: CG   and  CD  
REMARK    4  A    between atoms: CD   and  NE  
REMARK       I    between atoms: NE   and  CZ  
REMARK       I    between atoms: CZ   and  NH1 
REMARK       I    between atoms: CZ   and  NH2 
ROOT
ATOM      1  CA  ARG D 557     -26.217   2.705 -17.014  1.00 35.49     0.159 C 
ENDROOT
BRANCH   1   2
ATOM      2  CB  ARG D 557     -26.789   1.319 -17.183  1.00 35.49     0.034 C 
BRANCH   2   3
ATOM      3  CG  ARG D 557     -28.241   1.180 -17.022  1.00 35.49     0.027 C 
BRANCH   3   4
ATOM      4  CD  ARG D 557     -28.660  -0.234 -16.878  1.00 35.49     0.116 C 
BRANCH   4   5
ATOM      5  NE  ARG D 557     -27.679  -1.022 -16.180  1.00 35.49    -0.212 N 
ATOM      6  CZ  ARG D 557     -27.561  -2.329 -16.238  1.00 35.49     0.666 C 
ATOM      7  NH1 ARG D 557     -28.371  -3.083 -16.959  1.00 35.49    -0.235 N 
ATOM      8  NH2 ARG D 557     -26.599  -2.876 -15.554  1.00 35.49    -0.235 N 
ATOM      9  HH  ARG D 557     -29.010  -2.744 -17.418  1.00 35.49     0.174 HD
ATOM     10  HH  ARG D 557     -28.244  -3.930 -16.960  1.00 35.49     0.174 HD
ATOM     11  HH  ARG D 557     -26.087  -2.364 -15.103  1.00 35.49     0.174 HD
ATOM     12  HH  ARG D 557     -26.489  -3.717 -15.569  1.00 35.49     0.174 HD
ATOM     13  HE  ARG D 557     -27.162  -0.624 -15.634  1.00 35.49     0.178 HD
ENDBRANCH   4   5
ENDBRANCH   3   4
ENDBRANCH   2   3
ENDBRANCH   1   2
END_RES ARG D 557
BEGIN_RES GLU D 570
REMARK  3 active torsions:
REMARK  status: ('A' for Active; 'I' for Inactive)
REMARK    5  A    between atoms: CA   and  CB  
REMARK    6  A    between atoms: CB   and  CG  
REMARK    7  A    between atoms: CG   and  CD  
ROOT
ATOM     14  CA  GLU D 570     -18.033  -6.348 -13.375  1.00 32.92     0.160 C 
ENDROOT
BRANCH  14  15
ATOM     15  CB  GLU D 570     -19.500  -6.345 -13.794  1.00 32.92     0.043 C 
BRANCH  15  16
ATOM     16  CG  GLU D 570     -20.063  -7.614 -14.323  1.00 32.92     0.100 C 
BRANCH  16  17
ATOM     17  CD  GLU D 570     -20.794  -7.433 -15.633  1.00 32.92     0.185 C 
ATOM     18  OE1 GLU D 570     -21.522  -8.354 -16.052  1.00 32.92    -0.647 OA
ATOM     19  OE2 GLU D 570     -20.624  -6.366 -16.255  1.00 32.92    -0.647 OA
ENDBRANCH  16  17
ENDBRANCH  15  16
ENDBRANCH  14  15
END_RES GLU D 570
ENDMDL
MODEL 5
REMARK VINA RESULT:      -5.1      2.009      3.118
REMARK  9 active torsions:
REMARK  status: ('A' for Active; 'I' for Inactive)
REMARK    1  A    between atoms: C_2  and  C_3 
REMARK    2  A    between atoms: C_3  and  C_4 
REMARK    3  A    between atoms: C_4  and  O_5 
REMARK    4  A    between atoms: O_5  and  C_6 
REMARK    5  A    between atoms: C_6  and  C_7 
REMARK    6  A    between atoms: C_7  and  O_9 
REMARK    7  A    between atoms: O_9  and  C_10 
REMARK    8  A    between atoms: C_10  and  C_11 
REMARK    9  A    between atoms: C_11  and  O_12 
ROOT
HETATM    1  C   UNL     1     -22.001  -3.496 -11.396  1.00  0.00     0.141 C 
HETATM    2  C   UNL     1     -20.522  -3.822 -11.191  1.00  0.00     0.042 C 
ENDROOT
BRANCH   1   3
HETATM    3  C   UNL     1     -22.857  -4.138 -10.295  1.00  0.00     0.199 C 
BRANCH   3   4
HETATM    4  O   UNL     1     -22.044  -4.717  -9.276  1.00  0.00    -0.389 OA
BRANCH   4   5
HETATM    5  C   UNL     1     -22.328  -4.122  -8.010  1.00  0.00     0.167 C 
BRANCH   5   6
HETATM    6  C   UNL     1     -21.790  -5.030  -6.914  1.00  0.00     0.026 C 
BRANCH   6   7
HETATM    7  C   UNL     1     -20.512  -4.456  -6.307  1.00  0.00    -0.002 C 
HETATM    8  C   UNL     1     -19.309  -4.731  -7.193  1.00  0.00     0.005 C 
ENDBRANCH   6   7
ENDBRANCH   5   6
ENDBRANCH   4   5
ENDBRANCH   3   4
ENDBRANCH   1   3
BRANCH   1   9
HETATM    9  O   UNL     1     -22.370  -3.976 -12.702  1.00  0.00    -0.382 OA
BRANCH   9  10
HETATM   10  C   UNL     1     -23.259  -5.101 -12.664  1.00  0.00     0.194 C 
BRANCH  10  11
HETATM   11  C   UNL     1     -23.462  -5.615 -14.084  1.00  0.00     0.190 C 
BRANCH  11  12
HETATM   12  O   UNL     1     -22.869  -4.709 -15.013  1.00  0.00    -0.399 OA
HETATM   13  H   UNL     1     -22.327  -5.269 -15.602  1.00  0.00     0.209 HD
ENDBRANCH  11  12
ENDBRANCH  10  11
ENDBRANCH   9  10
ENDBRANCH   1   9
TORSDOF 9
BEGIN_RES ARG D 557
REMARK  4 active torsions:
REMARK  status: ('A' for Active; 'I' for Inactive)
REMARK    1  A    between atoms: CA   and  CB  
REMARK    2  A    between atoms: CB   and  CG  
REMARK    3  A    between atoms: CG   and  CD  
REMARK    4  A    between atoms: CD   and  NE  
REMARK       I    between atoms: NE   and  CZ  
REMARK       I    between atoms: CZ   and  NH1 
REMARK       I    between atoms: CZ   and  NH2 
ROOT
ATOM      1  CA  ARG D 557     -26.217   2.705 -17.014  1.00 35.49     0.159 C 
ENDROOT
BRANCH   1   2
ATOM      2  CB  ARG D 557     -26.789   1.319 -17.183  1.00 35.49     0.034 C 
BRANCH   2   3
ATOM      3  CG  ARG D 557     -25.832   0.206 -17.197  1.00 35.49     0.027 C 
BRANCH   3   4
ATOM      4  CD  ARG D 557     -24.780   0.354 -16.165  1.00 35.49     0.116 C 
BRANCH   4   5
ATOM      5  NE  ARG D 557     -24.999  -0.515 -15.039  1.00 35.49    -0.212 N 
ATOM      6  CZ  ARG D 557     -24.193  -1.473 -14.640  1.00 35.49     0.666 C 
ATOM      7  NH1 ARG D 557     -23.064  -1.755 -15.263  1.00 35.49    -0.235 N 
ATOM      8  NH2 ARG D 557     -24.541  -2.150 -13.584  1.00 35.49    -0.235 N 
ATOM      9  HH  ARG D 557     -22.814  -1.322 -15.958  1.00 35.49     0.174 HD
ATOM     10  HH  ARG D 557     -22.576  -2.389 -14.955  1.00 35.49     0.174 HD
ATOM     11  HH  ARG D 557     -25.272  -1.940 -13.198  1.00 35.49     0.174 HD
ATOM     12  HH  ARG D 557     -24.044  -2.773 -13.294  1.00 35.49     0.174 HD
ATOM     13  HE  ARG D 557     -25.738  -0.451 -14.623  1.00 35.49     0.178 HD
ENDBRANCH   4   5
ENDBRANCH   3   4
ENDBRANCH   2   3
ENDBRANCH   1   2
END_RES ARG D 557
BEGIN_RES GLU D 570
REMARK  3 active torsions:
REMARK  status: ('A' for Active; 'I' for Inactive)
REMARK    5  A    between atoms: CA   and  CB  
REMARK    6  A    between atoms: CB   and  CG  
REMARK    7  A    between atoms: CG   and  CD  
ROOT
ATOM     14  CA  GLU D 570     -18.033  -6.348 -13.375  1.00 32.92     0.160 C 
ENDROOT
BRANCH  14  15
ATOM     15  CB  GLU D 570     -19.500  -6.345 -13.794  1.00 32.92     0.043 C 
BRANCH  15  16
ATOM     16  CG  GLU D 570     -20.086  -7.634 -14.245  1.00 32.92     0.100 C 
BRANCH  16  17
ATOM     17  CD  GLU D 570     -20.674  -7.559 -15.635  1.00 32.92     0.185 C 
ATOM     18  OE1 GLU D 570     -21.142  -8.593 -16.150  1.00 32.92    -0.647 OA
ATOM     19  OE2 GLU D 570     -20.651  -6.459 -16.221  1.00 32.92    -0.647 OA
ENDBRANCH  16  17
ENDBRANCH  15  16
ENDBRANCH  14  15
END_RES GLU D 570
ENDMDL
MODEL 6
REMARK VINA RESULT:      -4.9      4.203      6.952
REMARK  9 active torsions:
REMARK  status: ('A' for Active; 'I' for Inactive)
REMARK    1  A    between atoms: C_2  and  C_3 
REMARK    2  A    between atoms: C_3  and  C_4 
REMARK    3  A    between atoms: C_4  and  O_5 
REMARK    4  A    between atoms: O_5  and  C_6 
REMARK    5  A    between atoms: C_6  and  C_7 
REMARK    6  A    between atoms: C_7  and  O_9 
REMARK    7  A    between atoms: O_9  and  C_10 
REMARK    8  A    between atoms: C_10  and  C_11 
REMARK    9  A    between atoms: C_11  and  O_12 
ROOT
HETATM    1  C   UNL     1     -23.362  -4.528 -13.783  1.00  0.00     0.141 C 
HETATM    2  C   UNL     1     -22.551  -3.602 -14.689  1.00  0.00     0.042 C 
ENDROOT
BRANCH   1   3
HETATM    3  C   UNL     1     -23.904  -5.726 -14.575  1.00  0.00     0.199 C 
BRANCH   3   4
HETATM    4  O   UNL     1     -25.060  -5.368 -15.331  1.00  0.00    -0.389 OA
BRANCH   4   5
HETATM    5  C   UNL     1     -25.767  -6.537 -15.748  1.00  0.00     0.167 C 
BRANCH   5   6
HETATM    6  C   UNL     1     -26.630  -6.179 -16.950  1.00  0.00     0.026 C 
BRANCH   6   7
HETATM    7  C   UNL     1     -28.070  -6.644 -16.747  1.00  0.00    -0.002 C 
HETATM    8  C   UNL     1     -28.609  -6.198 -15.399  1.00  0.00     0.005 C 
ENDBRANCH   6   7
ENDBRANCH   5   6
ENDBRANCH   4   5
ENDBRANCH   3   4
ENDBRANCH   1   3
BRANCH   1   9
HETATM    9  O   UNL     1     -24.425  -3.745 -13.210  1.00  0.00    -0.382 OA
BRANCH   9  10
HETATM   10  C   UNL     1     -23.999  -2.923 -12.114  1.00  0.00     0.194 C 
BRANCH  10  11
HETATM   11  C   UNL     1     -24.239  -3.678 -10.812  1.00  0.00     0.190 C 
BRANCH  11  12
HETATM   12  O   UNL     1     -25.404  -3.165 -10.167  1.00  0.00    -0.399 OA
HETATM   13  H   UNL     1     -25.097  -2.374  -9.681  1.00  0.00     0.209 HD
ENDBRANCH  11  12
ENDBRANCH  10  11
ENDBRANCH   9  10
ENDBRANCH   1   9
TORSDOF 9
BEGIN_RES ARG D 557
REMARK  4 active torsions:
REMARK  status: ('A' for Active; 'I' for Inactive)
REMARK    1  A    between atoms: CA   and  CB  
REMARK    2  A    between atoms: CB   and  CG  
REMARK    3  A    between atoms: CG   and  CD  
REMARK    4  A    between atoms: CD   and  NE  
REMARK       I    between atoms: NE   and  CZ  
REMARK       I    between atoms: CZ   and  NH1 
REMARK       I    between atoms: CZ   and  NH2 
ROOT
ATOM      1  CA  ARG D 557     -26.217   2.705 -17.014  1.00 35.49     0.159 C 
ENDROOT
BRANCH   1   2
ATOM      2  CB  ARG D 557     -26.789   1.319 -17.183  1.00 35.49     0.034 C 
BRANCH   2   3
ATOM      3  CG  ARG D 557     -28.230   1.166 -16.949  1.00 35.49     0.027 C 
BRANCH   3   4
ATOM      4  CD  ARG D 557     -28.610  -0.237 -16.664  1.00 35.49     0.116 C 
BRANCH   4   5
ATOM      5  NE  ARG D 557     -27.583  -0.940 -15.942  1.00 35.49    -0.212 N 
ATOM      6  CZ  ARG D 557     -27.336  -2.229 -16.018  1.00 35.49     0.666 C 
ATOM      7  NH1 ARG D 557     -28.040  -3.042 -16.783  1.00 35.49    -0.235 N 
ATOM      8  NH2 ARG D 557     -26.350  -2.694 -15.307  1.00 35.49    -0.235 N 
ATOM      9  HH  ARG D 557     -28.692  -2.757 -17.261  1.00 35.49     0.174 HD
ATOM     10  HH  ARG D 557     -27.832  -3.873 -16.794  1.00 35.49     0.174 HD
ATOM     11  HH  ARG D 557     -25.908  -2.144 -14.827  1.00 35.49     0.174 HD
ATOM     12  HH  ARG D 557     -26.158  -3.519 -15.332  1.00 35.49     0.174 HD
ATOM     13  HE  ARG D 557     -27.128  -0.506 -15.370  1.00 35.49     0.178 HD
ENDBRANCH   4   5
ENDBRANCH   3   4
ENDBRANCH   2   3
ENDBRANCH   1   2
END_RES ARG D 557
BEGIN_RES GLU D 570
REMARK  3 active torsions:
REMARK  status: ('A' for Active; 'I' for Inactive)
REMARK    5  A    between atoms: CA   and  CB  
REMARK    6  A    between atoms: CB   and  CG  
REMARK    7  A    between atoms: CG   and  CD  
ROOT
ATOM     14  CA  GLU D 570     -18.033  -6.348 -13.375  1.00 32.92     0.160 C 
ENDROOT
BRANCH  14  15
ATOM     15  CB  GLU D 570     -19.500  -6.345 -13.794  1.00 32.92     0.043 C 
BRANCH  15  16
ATOM     16  CG  GLU D 570     -19.803  -6.071 -15.222  1.00 32.92     0.100 C 
BRANCH  16  17
ATOM     17  CD  GLU D 570     -20.678  -7.130 -15.853  1.00 32.92     0.185 C 
ATOM     18  OE1 GLU D 570     -21.327  -6.847 -16.878  1.00 32.92    -0.647 OA
ATOM     19  OE2 GLU D 570     -20.727  -8.249 -15.305  1.00 32.92    -0.647 OA
ENDBRANCH  16  17
ENDBRANCH  15  16
ENDBRANCH  14  15
END_RES GLU D 570
ENDMDL
MODEL 7
REMARK VINA RESULT:      -4.8      2.526      3.516
REMARK  9 active torsions:
REMARK  status: ('A' for Active; 'I' for Inactive)
REMARK    1  A    between atoms: C_2  and  C_3 
REMARK    2  A    between atoms: C_3  and  C_4 
REMARK    3  A    between atoms: C_4  and  O_5 
REMARK    4  A    between atoms: O_5  and  C_6 
REMARK    5  A    between atoms: C_6  and  C_7 
REMARK    6  A    between atoms: C_7  and  O_9 
REMARK    7  A    between atoms: O_9  and  C_10 
REMARK    8  A    between atoms: C_10  and  C_11 
REMARK    9  A    between atoms: C_11  and  O_12 
ROOT
HETATM    1  C   UNL     1     -21.413  -5.443  -5.990  1.00  0.00     0.141 C 
HETATM    2  C   UNL     1     -20.104  -4.786  -5.551  1.00  0.00     0.042 C 
ENDROOT
BRANCH   1   3
HETATM    3  C   UNL     1     -21.774  -6.610  -5.060  1.00  0.00     0.199 C 
BRANCH   3   4
HETATM    4  O   UNL     1     -22.226  -6.140  -3.790  1.00  0.00    -0.389 OA
BRANCH   4   5
HETATM    5  C   UNL     1     -21.540  -6.814  -2.735  1.00  0.00     0.167 C 
BRANCH   5   6
HETATM    6  C   UNL     1     -22.297  -6.578  -1.435  1.00  0.00     0.026 C 
BRANCH   6   7
HETATM    7  C   UNL     1     -21.911  -7.614  -0.382  1.00  0.00    -0.002 C 
HETATM    8  C   UNL     1     -23.116  -8.041   0.439  1.00  0.00     0.005 C 
ENDBRANCH   6   7
ENDBRANCH   5   6
ENDBRANCH   4   5
ENDBRANCH   3   4
ENDBRANCH   1   3
BRANCH   1   9
HETATM    9  O   UNL     1     -21.237  -5.884  -7.349  1.00  0.00    -0.382 OA
BRANCH   9  10
HETATM   10  C   UNL     1     -21.667  -4.919  -8.320  1.00  0.00     0.194 C 
BRANCH  10  11
HETATM   11  C   UNL     1     -22.997  -4.327  -7.868  1.00  0.00     0.190 C 
BRANCH  11  12
HETATM   12  O   UNL     1     -23.389  -3.287  -8.763  1.00  0.00    -0.399 OA
HETATM   13  H   UNL     1     -22.801  -3.385  -9.537  1.00  0.00     0.209 HD
ENDBRANCH  11  12
ENDBRANCH  10  11
ENDBRANCH   9  10
ENDBRANCH   1   9
TORSDOF 9
BEGIN_RES ARG D 557
REMARK  4 active torsions:
REMARK  status: ('A' for Active; 'I' for Inactive)
REMARK    1  A    between atoms: CA   and  CB  
REMARK    2  A    between atoms: CB   and  CG  
REMARK    3  A    between atoms: CG   and  CD  
REMARK    4  A    between atoms: CD   and  NE  
REMARK       I    between atoms: NE   and  CZ  
REMARK       I    between atoms: CZ   and  NH1 
REMARK       I    between atoms: CZ   and  NH2 
ROOT
ATOM      1  CA  ARG D 557     -26.217   2.705 -17.014  1.00 35.49     0.159 C 
ENDROOT
BRANCH   1   2
ATOM      2  CB  ARG D 557     -26.789   1.319 -17.183  1.00 35.49     0.034 C 
BRANCH   2   3
ATOM      3  CG  ARG D 557     -28.226   1.228 -17.467  1.00 35.49     0.027 C 
BRANCH   3   4
ATOM      4  CD  ARG D 557     -28.931   0.328 -16.525  1.00 35.49     0.116 C 
BRANCH   4   5
ATOM      5  NE  ARG D 557     -29.293  -0.923 -17.138  1.00 35.49    -0.212 N 
ATOM      6  CZ  ARG D 557     -28.637  -2.055 -17.019  1.00 35.49     0.666 C 
ATOM      7  NH1 ARG D 557     -27.528  -2.161 -16.310  1.00 35.49    -0.235 N 
ATOM      8  NH2 ARG D 557     -29.122  -3.097 -17.628  1.00 35.49    -0.235 N 
ATOM      9  HH  ARG D 557     -27.192  -1.488 -15.899  1.00 35.49     0.174 HD
ATOM     10  HH  ARG D 557     -27.144  -2.925 -16.266  1.00 35.49     0.174 HD
ATOM     11  HH  ARG D 557     -29.844  -3.001 -18.072  1.00 35.49     0.174 HD
ATOM     12  HH  ARG D 557     -28.729  -3.846 -17.571  1.00 35.49     0.174 HD
ATOM     13  HE  ARG D 557     -29.955  -0.929 -17.672  1.00 35.49     0.178 HD
ENDBRANCH   4   5
ENDBRANCH   3   4
ENDBRANCH   2   3
ENDBRANCH   1   2
END_RES ARG D 557
BEGIN_RES GLU D 570
REMARK  3 active torsions:
REMARK  status: ('A' for Active; 'I' for Inactive)
REMARK    5  A    between atoms: CA   and  CB  
REMARK    6  A    between atoms: CB   and  CG  
REMARK    7  A    between atoms: CG   and  CD  
ROOT
ATOM     14  CA  GLU D 570     -18.033  -6.348 -13.375  1.00 32.92     0.160 C 
ENDROOT
BRANCH  14  15
ATOM     15  CB  GLU D 570     -19.500  -6.345 -13.794  1.00 32.92     0.043 C 
BRANCH  15  16
ATOM     16  CG  GLU D 570     -20.448  -5.562 -12.961  1.00 32.92     0.100 C 
BRANCH  16  17
ATOM     17  CD  GLU D 570     -21.703  -5.171 -13.706  1.00 32.92     0.185 C 
ATOM     18  OE1 GLU D 570     -22.687  -4.761 -13.060  1.00 32.92    -0.647 OA
ATOM     19  OE2 GLU D 570     -21.709  -5.292 -14.946  1.00 32.92    -0.647 OA
ENDBRANCH  16  17
ENDBRANCH  15  16
ENDBRANCH  14  15
END_RES GLU D 570
ENDMDL
MODEL 8
REMARK VINA RESULT:      -4.6      1.798      3.259
REMARK  9 active torsions:
REMARK  status: ('A' for Active; 'I' for Inactive)
REMARK    1  A    between atoms: C_2  and  C_3 
REMARK    2  A    between atoms: C_3  and  C_4 
REMARK    3  A    between atoms: C_4  and  O_5 
REMARK    4  A    between atoms: O_5  and  C_6 
REMARK    5  A    between atoms: C_6  and  C_7 
REMARK    6  A    between atoms: C_7  and  O_9 
REMARK    7  A    between atoms: O_9  and  C_10 
REMARK    8  A    between atoms: C_10  and  C_11 
REMARK    9  A    between atoms: C_11  and  O_12 
ROOT
HETATM    1  C   UNL     1     -20.921  -6.374  -5.066  1.00  0.00     0.141 C 
HETATM    2  C   UNL     1     -20.049  -7.592  -5.370  1.00  0.00     0.042 C 
ENDROOT
BRANCH   1   3
HETATM    3  C   UNL     1     -21.868  -6.662  -3.892  1.00  0.00     0.199 C 
BRANCH   3   4
HETATM    4  O   UNL     1     -21.588  -5.816  -2.778  1.00  0.00    -0.389 OA
BRANCH   4   5
HETATM    5  C   UNL     1     -22.305  -6.256  -1.624  1.00  0.00     0.167 C 
BRANCH   5   6
HETATM    6  C   UNL     1     -21.677  -7.550  -1.125  1.00  0.00     0.026 C 
BRANCH   6   7
HETATM    7  C   UNL     1     -22.329  -8.007   0.177  1.00  0.00    -0.002 C 
HETATM    8  C   UNL     1     -21.294  -8.537   1.155  1.00  0.00     0.005 C 
ENDBRANCH   6   7
ENDBRANCH   5   6
ENDBRANCH   4   5
ENDBRANCH   3   4
ENDBRANCH   1   3
BRANCH   1   9
HETATM    9  O   UNL     1     -21.646  -6.054  -6.267  1.00  0.00    -0.382 OA
BRANCH   9  10
HETATM   10  C   UNL     1     -21.316  -4.766  -6.804  1.00  0.00     0.194 C 
BRANCH  10  11
HETATM   11  C   UNL     1     -22.519  -4.232  -7.573  1.00  0.00     0.190 C 
BRANCH  11  12
HETATM   12  O   UNL     1     -23.713  -4.484  -6.834  1.00  0.00    -0.399 OA
HETATM   13  H   UNL     1     -24.436  -4.406  -7.487  1.00  0.00     0.209 HD
ENDBRANCH  11  12
ENDBRANCH  10  11
ENDBRANCH   9  10
ENDBRANCH   1   9
TORSDOF 9
BEGIN_RES ARG D 557
REMARK  4 active torsions:
REMARK  status: ('A' for Active; 'I' for Inactive)
REMARK    1  A    between atoms: CA   and  CB  
REMARK    2  A    between atoms: CB   and  CG  
REMARK    3  A    between atoms: CG   and  CD  
REMARK    4  A    between atoms: CD   and  NE  
REMARK       I    between atoms: NE   and  CZ  
REMARK       I    between atoms: CZ   and  NH1 
REMARK       I    between atoms: CZ   and  NH2 
ROOT
ATOM      1  CA  ARG D 557     -26.217   2.705 -17.014  1.00 35.49     0.159 C 
ENDROOT
BRANCH   1   2
ATOM      2  CB  ARG D 557     -26.789   1.319 -17.183  1.00 35.49     0.034 C 
BRANCH   2   3
ATOM      3  CG  ARG D 557     -25.864   0.195 -16.992  1.00 35.49     0.027 C 
BRANCH   3   4
ATOM      4  CD  ARG D 557     -26.292  -0.708 -15.899  1.00 35.49     0.116 C 
BRANCH   4   5
ATOM      5  NE  ARG D 557     -25.245  -0.926 -14.936  1.00 35.49    -0.212 N 
ATOM      6  CZ  ARG D 557     -24.961  -2.071 -14.356  1.00 35.49     0.666 C 
ATOM      7  NH1 ARG D 557     -25.643  -3.176 -14.596  1.00 35.49    -0.235 N 
ATOM      8  NH2 ARG D 557     -23.963  -2.090 -13.521  1.00 35.49    -0.235 N 
ATOM      9  HH  ARG D 557     -26.302  -3.187 -15.143  1.00 35.49     0.174 HD
ATOM     10  HH  ARG D 557     -25.410  -3.894 -14.190  1.00 35.49     0.174 HD
ATOM     11  HH  ARG D 557     -23.536  -1.363 -13.391  1.00 35.49     0.174 HD
ATOM     12  HH  ARG D 557     -23.747  -2.811 -13.131  1.00 35.49     0.174 HD
ATOM     13  HE  ARG D 557     -24.802  -0.251 -14.667  1.00 35.49     0.178 HD
ENDBRANCH   4   5
ENDBRANCH   3   4
ENDBRANCH   2   3
ENDBRANCH   1   2
END_RES ARG D 557
BEGIN_RES GLU D 570
REMARK  3 active torsions:
REMARK  status: ('A' for Active; 'I' for Inactive)
REMARK    5  A    between atoms: CA   and  CB  
REMARK    6  A    between atoms: CB   and  CG  
REMARK    7  A    between atoms: CG   and  CD  
ROOT
ATOM     14  CA  GLU D 570     -18.033  -6.348 -13.375  1.00 32.92     0.160 C 
ENDROOT
BRANCH  14  15
ATOM     15  CB  GLU D 570     -19.500  -6.345 -13.794  1.00 32.92     0.043 C 
BRANCH  15  16
ATOM     16  CG  GLU D 570     -20.450  -5.570 -12.955  1.00 32.92     0.100 C 
BRANCH  16  17
ATOM     17  CD  GLU D 570     -21.678  -5.124 -13.713  1.00 32.92     0.185 C 
ATOM     18  OE1 GLU D 570     -21.619  -5.021 -14.954  1.00 32.92    -0.647 OA
ATOM     19  OE2 GLU D 570     -22.705  -4.858 -13.059  1.00 32.92    -0.647 OA
ENDBRANCH  16  17
ENDBRANCH  15  16
ENDBRANCH  14  15
END_RES GLU D 570
ENDMDL
MODEL 9
REMARK VINA RESULT:      -4.6      2.676      4.130
REMARK  9 active torsions:
REMARK  status: ('A' for Active; 'I' for Inactive)
REMARK    1  A    between atoms: C_2  and  C_3 
REMARK    2  A    between atoms: C_3  and  C_4 
REMARK    3  A    between atoms: C_4  and  O_5 
REMARK    4  A    between atoms: O_5  and  C_6 
REMARK    5  A    between atoms: C_6  and  C_7 
REMARK    6  A    between atoms: C_7  and  O_9 
REMARK    7  A    between atoms: O_9  and  C_10 
REMARK    8  A    between atoms: C_10  and  C_11 
REMARK    9  A    between atoms: C_11  and  O_12 
ROOT
HETATM    1  C   UNL     1     -21.136  -6.464  -4.733  1.00  0.00     0.141 C 
HETATM    2  C   UNL     1     -21.708  -7.873  -4.891  1.00  0.00     0.042 C 
ENDROOT
BRANCH   1   3
HETATM    3  C   UNL     1     -21.104  -6.053  -3.254  1.00  0.00     0.199 C 
BRANCH   3   4
HETATM    4  O   UNL     1     -22.410  -6.074  -2.681  1.00  0.00    -0.389 OA
BRANCH   4   5
HETATM    5  C   UNL     1     -22.345  -6.436  -1.301  1.00  0.00     0.167 C 
BRANCH   5   6
HETATM    6  C   UNL     1     -21.502  -7.697  -1.170  1.00  0.00     0.026 C 
BRANCH   6   7
HETATM    7  C   UNL     1     -21.742  -8.378   0.175  1.00  0.00    -0.002 C 
HETATM    8  C   UNL     1     -23.178  -8.197   0.636  1.00  0.00     0.005 C 
ENDBRANCH   6   7
ENDBRANCH   5   6
ENDBRANCH   4   5
ENDBRANCH   3   4
ENDBRANCH   1   3
BRANCH   1   9
HETATM    9  O   UNL     1     -21.958  -5.578  -5.513  1.00  0.00    -0.382 OA
BRANCH   9  10
HETATM   10  C   UNL     1     -21.527  -5.452  -6.875  1.00  0.00     0.194 C 
BRANCH  10  11
HETATM   11  C   UNL     1     -22.416  -4.435  -7.581  1.00  0.00     0.190 C 
BRANCH  11  12
HETATM   12  O   UNL     1     -21.900  -3.121  -7.374  1.00  0.00    -0.399 OA
HETATM   13  H   UNL     1     -21.352  -2.938  -8.162  1.00  0.00     0.209 HD
ENDBRANCH  11  12
ENDBRANCH  10  11
ENDBRANCH   9  10
ENDBRANCH   1   9
TORSDOF 9
BEGIN_RES ARG D 557
REMARK  4 active torsions:
REMARK  status: ('A' for Active; 'I' for Inactive)
REMARK    1  A    between atoms: CA   and  CB  
REMARK    2  A    between atoms: CB   and  CG  
REMARK    3  A    between atoms: CG   and  CD  
REMARK    4  A    between atoms: CD   and  NE  
REMARK       I    between atoms: NE   and  CZ  
REMARK       I    between atoms: CZ   and  NH1 
REMARK       I    between atoms: CZ   and  NH2 
ROOT
ATOM      1  CA  ARG D 557     -26.217   2.705 -17.014  1.00 35.49     0.159 C 
ENDROOT
BRANCH   1   2
ATOM      2  CB  ARG D 557     -26.789   1.319 -17.183  1.00 35.49     0.034 C 
BRANCH   2   3
ATOM      3  CG  ARG D 557     -28.232   1.226 -17.435  1.00 35.49     0.027 C 
BRANCH   3   4
ATOM      4  CD  ARG D 557     -28.911   0.302 -16.497  1.00 35.49     0.116 C 
BRANCH   4   5
ATOM      5  NE  ARG D 557     -29.284  -0.935 -17.130  1.00 35.49    -0.212 N 
ATOM      6  CZ  ARG D 557     -28.642  -2.077 -17.024  1.00 35.49     0.666 C 
ATOM      7  NH1 ARG D 557     -27.539  -2.206 -16.310  1.00 35.49    -0.235 N 
ATOM      8  NH2 ARG D 557     -29.137  -3.104 -17.650  1.00 35.49    -0.235 N 
ATOM      9  HH  ARG D 557     -27.197  -1.544 -15.888  1.00 35.49     0.174 HD
ATOM     10  HH  ARG D 557     -27.165  -2.976 -16.275  1.00 35.49     0.174 HD
ATOM     11  HH  ARG D 557     -29.855  -2.993 -18.098  1.00 35.49     0.174 HD
ATOM     12  HH  ARG D 557     -28.753  -3.859 -17.602  1.00 35.49     0.174 HD
ATOM     13  HE  ARG D 557     -29.943  -0.925 -17.668  1.00 35.49     0.178 HD
ENDBRANCH   4   5
ENDBRANCH   3   4
ENDBRANCH   2   3
ENDBRANCH   1   2
END_RES ARG D 557
BEGIN_RES GLU D 570
REMARK  3 active torsions:
REMARK  status: ('A' for Active; 'I' for Inactive)
REMARK    5  A    between atoms: CA   and  CB  
REMARK    6  A    between atoms: CB   and  CG  
REMARK    7  A    between atoms: CG   and  CD  
ROOT
ATOM     14  CA  GLU D 570     -18.033  -6.348 -13.375  1.00 32.92     0.160 C 
ENDROOT
BRANCH  14  15
ATOM     15  CB  GLU D 570     -19.500  -6.345 -13.794  1.00 32.92     0.043 C 
BRANCH  15  16
ATOM     16  CG  GLU D 570     -20.441  -5.527 -12.986  1.00 32.92     0.100 C 
BRANCH  16  17
ATOM     17  CD  GLU D 570     -21.751  -5.265 -13.693  1.00 32.92     0.185 C 
ATOM     18  OE1 GLU D 570     -22.209  -6.134 -14.460  1.00 32.92    -0.647 OA
ATOM     19  OE2 GLU D 570     -22.316  -4.172 -13.490  1.00 32.92    -0.647 OA
ENDBRANCH  16  17
ENDBRANCH  15  16
ENDBRANCH  14  15
END_RES GLU D 570
ENDMDL
