MODEL 1
REMARK VINA RESULT:      -7.2      0.000      0.000
REMARK  21 active torsions:
REMARK  status: ('A' for Active; 'I' for Inactive)
REMARK    1  A    between atoms: C_2  and  C_4 
REMARK    2  A    between atoms: C_4  and  C_5 
REMARK    3  A    between atoms: C_5  and  C_6 
REMARK    4  A    between atoms: C_6  and  C_7 
REMARK    5  A    between atoms: C_7  and  C_9 
REMARK    6  A    between atoms: C_9  and  C_10 
REMARK    7  A    between atoms: C_10  and  C_11 
REMARK    8  A    between atoms: C_11  and  C_12 
REMARK    9  A    between atoms: C_12  and  C_14 
REMARK   10  A    between atoms: C_14  and  C_15 
REMARK   11  A    between atoms: C_15  and  C_16 
REMARK   12  A    between atoms: C_16  and  C_17 
REMARK   13  A    between atoms: C_17  and  C_18 
REMARK   14  A    between atoms: C_18  and  C_20 
REMARK   15  A    between atoms: C_20  and  C_21 
REMARK   16  A    between atoms: C_21  and  C_22 
REMARK   17  A    between atoms: C_22  and  C_23 
REMARK   18  A    between atoms: C_23  and  C_25 
REMARK   19  A    between atoms: C_25  and  C_26 
REMARK   20  A    between atoms: C_26  and  C_27 
REMARK   21  A    between atoms: C_27  and  C_28 
ROOT
HETATM    1  C   UNL     1     -22.293  -6.442  -1.313  1.00  0.00     0.000 C 
ENDROOT
BRANCH   1   2
HETATM    2  C   UNL     1     -21.647  -7.707  -0.784  1.00  0.00     0.004 C 
BRANCH   2   3
HETATM    3  C   UNL     1     -22.182  -8.094   0.596  1.00  0.00    -0.018 C 
HETATM    4  C   UNL     1     -21.096  -8.746   1.469  1.00  0.00     0.010 C 
BRANCH   3   5
HETATM    5  C   UNL     1     -23.397  -9.011   0.382  1.00  0.00     0.004 C 
BRANCH   5   6
HETATM    6  C   UNL     1     -22.957 -10.409  -0.005  1.00  0.00     0.001 C 
BRANCH   6   7
HETATM    7  C   UNL     1     -23.949 -11.117  -0.915  1.00  0.00     0.004 C 
BRANCH   7   8
HETATM    8  C   UNL     1     -23.223 -11.791  -2.092  1.00  0.00    -0.018 C 
HETATM    9  C   UNL     1     -22.652 -13.168  -1.706  1.00  0.00     0.010 C 
BRANCH   8  10
HETATM   10  C   UNL     1     -22.130 -10.843  -2.618  1.00  0.00     0.004 C 
BRANCH  10  11
HETATM   11  C   UNL     1     -21.995 -10.931  -4.134  1.00  0.00     0.001 C 
BRANCH  11  12
HETATM   12  C   UNL     1     -20.545 -11.002  -4.592  1.00  0.00     0.004 C 
BRANCH  12  13
HETATM   13  C   UNL     1     -19.563 -10.925  -3.409  1.00  0.00    -0.023 C 
HETATM   14  C   UNL     1     -18.795 -12.240  -3.296  1.00  0.00     0.009 C 
HETATM   15  C   UNL     1     -18.579  -9.757  -3.528  1.00  0.00     0.009 C 
ENDBRANCH  12  13
ENDBRANCH  11  12
ENDBRANCH  10  11
ENDBRANCH   8  10
ENDBRANCH   7   8
ENDBRANCH   6   7
ENDBRANCH   5   6
ENDBRANCH   3   5
ENDBRANCH   2   3
ENDBRANCH   1   2
BRANCH   1  16
HETATM   16  C   UNL     1     -21.698  -6.073  -2.660  1.00  0.00     0.000 C 
BRANCH  16  17
HETATM   17  C   UNL     1     -21.219  -7.343  -3.337  1.00  0.00     0.004 C 
BRANCH  17  18
HETATM   18  C   UNL     1     -21.530  -7.385  -4.837  1.00  0.00    -0.018 C 
HETATM   19  C   UNL     1     -22.614  -6.375  -5.209  1.00  0.00     0.010 C 
BRANCH  18  20
HETATM   20  C   UNL     1     -20.249  -7.125  -5.646  1.00  0.00     0.004 C 
BRANCH  20  21
HETATM   21  C   UNL     1     -20.199  -5.676  -6.146  1.00  0.00     0.001 C 
BRANCH  21  22
HETATM   22  C   UNL     1     -20.013  -5.592  -7.653  1.00  0.00     0.004 C 
BRANCH  22  23
HETATM   23  C   UNL     1     -21.024  -4.620  -8.301  1.00  0.00    -0.018 C 
HETATM   24  C   UNL     1     -21.411  -3.489  -7.340  1.00  0.00     0.010 C 
BRANCH  23  25
HETATM   25  C   UNL     1     -20.467  -4.036  -9.612  1.00  0.00     0.004 C 
BRANCH  25  26
HETATM   26  C   UNL     1     -21.455  -4.209 -10.767  1.00  0.00     0.001 C 
BRANCH  26  27
HETATM   27  C   UNL     1     -22.779  -4.819 -10.318  1.00  0.00     0.004 C 
BRANCH  27  28
HETATM   28  C   UNL     1     -23.982  -3.950 -10.734  1.00  0.00    -0.023 C 
HETATM   29  C   UNL     1     -24.676  -3.301  -9.535  1.00  0.00     0.009 C 
HETATM   30  C   UNL     1     -23.530  -2.877 -11.723  1.00  0.00     0.009 C 
ENDBRANCH  27  28
ENDBRANCH  26  27
ENDBRANCH  25  26
ENDBRANCH  23  25
ENDBRANCH  22  23
ENDBRANCH  21  22
ENDBRANCH  20  21
ENDBRANCH  18  20
ENDBRANCH  17  18
ENDBRANCH  16  17
ENDBRANCH   1  16
TORSDOF 21
BEGIN_RES ARG D 557
REMARK  4 active torsions:
REMARK  status: ('A' for Active; 'I' for Inactive)
REMARK    1  A    between atoms: CA   and  CB  
REMARK    2  A    between atoms: CB   and  CG  
REMARK    3  A    between atoms: CG   and  CD  
REMARK    4  A    between atoms: CD   and  NE  
REMARK       I    between atoms: NE   and  CZ  
REMARK       I    between atoms: CZ   and  NH1 
REMARK       I    between atoms: CZ   and  NH2 
ROOT
ATOM      1  CA  ARG D 557     -26.217   2.705 -17.014  1.00 35.49     0.159 C 
ENDROOT
BRANCH   1   2
ATOM      2  CB  ARG D 557     -26.789   1.319 -17.183  1.00 35.49     0.034 C 
BRANCH   2   3
ATOM      3  CG  ARG D 557     -28.203   1.141 -16.833  1.00 35.49     0.027 C 
BRANCH   3   4
ATOM      4  CD  ARG D 557     -28.596  -0.286 -16.779  1.00 35.49     0.116 C 
BRANCH   4   5
ATOM      5  NE  ARG D 557     -27.630  -1.088 -16.076  1.00 35.49    -0.212 N 
ATOM      6  CZ  ARG D 557     -27.515  -2.395 -16.153  1.00 35.49     0.666 C 
ATOM      7  NH1 ARG D 557     -28.313  -3.134 -16.902  1.00 35.49    -0.235 N 
ATOM      8  NH2 ARG D 557     -26.567  -2.956 -15.461  1.00 35.49    -0.235 N 
ATOM      9  HH  ARG D 557     -28.942  -2.786 -17.367  1.00 35.49     0.174 HD
ATOM     10  HH  ARG D 557     -28.189  -3.982 -16.915  1.00 35.49     0.174 HD
ATOM     11  HH  ARG D 557     -26.062  -2.453 -14.992  1.00 35.49     0.174 HD
ATOM     12  HH  ARG D 557     -26.459  -3.797 -15.488  1.00 35.49     0.174 HD
ATOM     13  HE  ARG D 557     -27.122  -0.701 -15.515  1.00 35.49     0.178 HD
ENDBRANCH   4   5
ENDBRANCH   3   4
ENDBRANCH   2   3
ENDBRANCH   1   2
END_RES ARG D 557
BEGIN_RES GLU D 570
REMARK  3 active torsions:
REMARK  status: ('A' for Active; 'I' for Inactive)
REMARK    5  A    between atoms: CA   and  CB  
REMARK    6  A    between atoms: CB   and  CG  
REMARK    7  A    between atoms: CG   and  CD  
ROOT
ATOM     14  CA  GLU D 570     -18.033  -6.348 -13.375  1.00 32.92     0.160 C 
ENDROOT
BRANCH  14  15
ATOM     15  CB  GLU D 570     -19.500  -6.345 -13.794  1.00 32.92     0.043 C 
BRANCH  15  16
ATOM     16  CG  GLU D 570     -19.802  -6.564 -15.232  1.00 32.92     0.100 C 
BRANCH  16  17
ATOM     17  CD  GLU D 570     -20.839  -5.606 -15.769  1.00 32.92     0.185 C 
ATOM     18  OE1 GLU D 570     -21.557  -4.978 -14.967  1.00 32.92    -0.647 OA
ATOM     19  OE2 GLU D 570     -20.947  -5.494 -17.006  1.00 32.92    -0.647 OA
ENDBRANCH  16  17
ENDBRANCH  15  16
ENDBRANCH  14  15
END_RES GLU D 570
ENDMDL
MODEL 2
REMARK VINA RESULT:      -7.1      1.204      7.796
REMARK  21 active torsions:
REMARK  status: ('A' for Active; 'I' for Inactive)
REMARK    1  A    between atoms: C_2  and  C_4 
REMARK    2  A    between atoms: C_4  and  C_5 
REMARK    3  A    between atoms: C_5  and  C_6 
REMARK    4  A    between atoms: C_6  and  C_7 
REMARK    5  A    between atoms: C_7  and  C_9 
REMARK    6  A    between atoms: C_9  and  C_10 
REMARK    7  A    between atoms: C_10  and  C_11 
REMARK    8  A    between atoms: C_11  and  C_12 
REMARK    9  A    between atoms: C_12  and  C_14 
REMARK   10  A    between atoms: C_14  and  C_15 
REMARK   11  A    between atoms: C_15  and  C_16 
REMARK   12  A    between atoms: C_16  and  C_17 
REMARK   13  A    between atoms: C_17  and  C_18 
REMARK   14  A    between atoms: C_18  and  C_20 
REMARK   15  A    between atoms: C_20  and  C_21 
REMARK   16  A    between atoms: C_21  and  C_22 
REMARK   17  A    between atoms: C_22  and  C_23 
REMARK   18  A    between atoms: C_23  and  C_25 
REMARK   19  A    between atoms: C_25  and  C_26 
REMARK   20  A    between atoms: C_26  and  C_27 
REMARK   21  A    between atoms: C_27  and  C_28 
ROOT
HETATM    1  C   UNL     1     -21.278  -7.201  -2.502  1.00  0.00     0.000 C 
ENDROOT
BRANCH   1   2
HETATM    2  C   UNL     1     -21.068  -6.522  -3.841  1.00  0.00     0.004 C 
BRANCH   2   3
HETATM    3  C   UNL     1     -21.558  -7.383  -5.007  1.00  0.00    -0.018 C 
HETATM    4  C   UNL     1     -20.926  -8.785  -4.988  1.00  0.00     0.010 C 
BRANCH   3   5
HETATM    5  C   UNL     1     -21.258  -6.617  -6.306  1.00  0.00     0.004 C 
BRANCH   5   6
HETATM    6  C   UNL     1     -21.990  -5.290  -6.331  1.00  0.00     0.001 C 
BRANCH   6   7
HETATM    7  C   UNL     1     -21.364  -4.280  -7.282  1.00  0.00     0.004 C 
BRANCH   7   8
HETATM    8  C   UNL     1     -20.143  -4.888  -7.994  1.00  0.00    -0.018 C 
HETATM    9  C   UNL     1     -18.817  -4.380  -7.400  1.00  0.00     0.010 C 
BRANCH   8  10
HETATM   10  C   UNL     1     -20.245  -4.599  -9.502  1.00  0.00     0.004 C 
BRANCH  10  11
HETATM   11  C   UNL     1     -21.567  -3.928  -9.856  1.00  0.00     0.001 C 
BRANCH  11  12
HETATM   12  C   UNL     1     -22.092  -4.347 -11.222  1.00  0.00     0.004 C 
BRANCH  12  13
HETATM   13  C   UNL     1     -23.629  -4.426 -11.250  1.00  0.00    -0.023 C 
HETATM   14  C   UNL     1     -24.159  -4.569  -9.826  1.00  0.00     0.009 C 
HETATM   15  C   UNL     1     -24.273  -3.210 -11.925  1.00  0.00     0.009 C 
ENDBRANCH  12  13
ENDBRANCH  11  12
ENDBRANCH  10  11
ENDBRANCH   8  10
ENDBRANCH   7   8
ENDBRANCH   6   7
ENDBRANCH   5   6
ENDBRANCH   3   5
ENDBRANCH   2   3
ENDBRANCH   1   2
BRANCH   1  16
HETATM   16  C   UNL     1     -22.404  -6.523  -1.742  1.00  0.00     0.000 C 
BRANCH  16  17
HETATM   17  C   UNL     1     -22.351  -6.982  -0.298  1.00  0.00     0.004 C 
BRANCH  17  18
HETATM   18  C   UNL     1     -21.957  -8.455  -0.141  1.00  0.00    -0.018 C 
HETATM   19  C   UNL     1     -21.130  -8.677   1.124  1.00  0.00     0.010 C 
BRANCH  18  20
HETATM   20  C   UNL     1     -23.217  -9.336  -0.123  1.00  0.00     0.004 C 
BRANCH  20  21
HETATM   21  C   UNL     1     -22.926 -10.724  -0.705  1.00  0.00     0.001 C 
BRANCH  21  22
HETATM   22  C   UNL     1     -22.220 -10.650  -2.050  1.00  0.00     0.004 C 
BRANCH  22  23
HETATM   23  C   UNL     1     -20.944 -11.520  -2.075  1.00  0.00    -0.018 C 
HETATM   24  C   UNL     1     -20.727 -12.159  -3.452  1.00  0.00     0.010 C 
BRANCH  23  25
HETATM   25  C   UNL     1     -19.707 -10.700  -1.668  1.00  0.00     0.004 C 
BRANCH  25  26
HETATM   26  C   UNL     1     -18.630 -10.733  -2.754  1.00  0.00     0.001 C 
BRANCH  26  27
HETATM   27  C   UNL     1     -17.900  -9.401  -2.895  1.00  0.00     0.004 C 
BRANCH  27  28
HETATM   28  C   UNL     1     -16.374  -9.590  -2.985  1.00  0.00    -0.023 C 
HETATM   29  C   UNL     1     -15.874 -10.739  -2.106  1.00  0.00     0.009 C 
HETATM   30  C   UNL     1     -15.965  -9.825  -4.438  1.00  0.00     0.009 C 
ENDBRANCH  27  28
ENDBRANCH  26  27
ENDBRANCH  25  26
ENDBRANCH  23  25
ENDBRANCH  22  23
ENDBRANCH  21  22
ENDBRANCH  20  21
ENDBRANCH  18  20
ENDBRANCH  17  18
ENDBRANCH  16  17
ENDBRANCH   1  16
TORSDOF 21
BEGIN_RES ARG D 557
REMARK  4 active torsions:
REMARK  status: ('A' for Active; 'I' for Inactive)
REMARK    1  A    between atoms: CA   and  CB  
REMARK    2  A    between atoms: CB   and  CG  
REMARK    3  A    between atoms: CG   and  CD  
REMARK    4  A    between atoms: CD   and  NE  
REMARK       I    between atoms: NE   and  CZ  
REMARK       I    between atoms: CZ   and  NH1 
REMARK       I    between atoms: CZ   and  NH2 
ROOT
ATOM      1  CA  ARG D 557     -26.217   2.705 -17.014  1.00 35.49     0.159 C 
ENDROOT
BRANCH   1   2
ATOM      2  CB  ARG D 557     -26.789   1.319 -17.183  1.00 35.49     0.034 C 
BRANCH   2   3
ATOM      3  CG  ARG D 557     -28.218   1.154 -16.890  1.00 35.49     0.027 C 
BRANCH   3   4
ATOM      4  CD  ARG D 557     -28.589  -0.263 -16.673  1.00 35.49     0.116 C 
BRANCH   4   5
ATOM      5  NE  ARG D 557     -27.574  -0.986 -15.953  1.00 35.49    -0.212 N 
ATOM      6  CZ  ARG D 557     -27.353  -2.279 -16.027  1.00 35.49     0.666 C 
ATOM      7  NH1 ARG D 557     -28.076  -3.080 -16.789  1.00 35.49    -0.235 N 
ATOM      8  NH2 ARG D 557     -26.374  -2.762 -15.318  1.00 35.49    -0.235 N 
ATOM      9  HH  ARG D 557     -28.723  -2.783 -17.265  1.00 35.49     0.174 HD
ATOM     10  HH  ARG D 557     -27.883  -3.914 -16.799  1.00 35.49     0.174 HD
ATOM     11  HH  ARG D 557     -25.920  -2.221 -14.841  1.00 35.49     0.174 HD
ATOM     12  HH  ARG D 557     -26.199  -3.591 -15.343  1.00 35.49     0.174 HD
ATOM     13  HE  ARG D 557     -27.109  -0.559 -15.383  1.00 35.49     0.178 HD
ENDBRANCH   4   5
ENDBRANCH   3   4
ENDBRANCH   2   3
ENDBRANCH   1   2
END_RES ARG D 557
BEGIN_RES GLU D 570
REMARK  3 active torsions:
REMARK  status: ('A' for Active; 'I' for Inactive)
REMARK    5  A    between atoms: CA   and  CB  
REMARK    6  A    between atoms: CB   and  CG  
REMARK    7  A    between atoms: CG   and  CD  
ROOT
ATOM     14  CA  GLU D 570     -18.033  -6.348 -13.375  1.00 32.92     0.160 C 
ENDROOT
BRANCH  14  15
ATOM     15  CB  GLU D 570     -19.500  -6.345 -13.794  1.00 32.92     0.043 C 
BRANCH  15  16
ATOM     16  CG  GLU D 570     -19.809  -5.991 -15.203  1.00 32.92     0.100 C 
BRANCH  16  17
ATOM     17  CD  GLU D 570     -21.260  -5.626 -15.415  1.00 32.92     0.185 C 
ATOM     18  OE1 GLU D 570     -22.116  -6.069 -14.626  1.00 32.92    -0.647 OA
ATOM     19  OE2 GLU D 570     -21.545  -4.904 -16.391  1.00 32.92    -0.647 OA
ENDBRANCH  16  17
ENDBRANCH  15  16
ENDBRANCH  14  15
END_RES GLU D 570
ENDMDL
MODEL 3
REMARK VINA RESULT:      -7.1      1.404      8.356
REMARK  21 active torsions:
REMARK  status: ('A' for Active; 'I' for Inactive)
REMARK    1  A    between atoms: C_2  and  C_4 
REMARK    2  A    between atoms: C_4  and  C_5 
REMARK    3  A    between atoms: C_5  and  C_6 
REMARK    4  A    between atoms: C_6  and  C_7 
REMARK    5  A    between atoms: C_7  and  C_9 
REMARK    6  A    between atoms: C_9  and  C_10 
REMARK    7  A    between atoms: C_10  and  C_11 
REMARK    8  A    between atoms: C_11  and  C_12 
REMARK    9  A    between atoms: C_12  and  C_14 
REMARK   10  A    between atoms: C_14  and  C_15 
REMARK   11  A    between atoms: C_15  and  C_16 
REMARK   12  A    between atoms: C_16  and  C_17 
REMARK   13  A    between atoms: C_17  and  C_18 
REMARK   14  A    between atoms: C_18  and  C_20 
REMARK   15  A    between atoms: C_20  and  C_21 
REMARK   16  A    between atoms: C_21  and  C_22 
REMARK   17  A    between atoms: C_22  and  C_23 
REMARK   18  A    between atoms: C_23  and  C_25 
REMARK   19  A    between atoms: C_25  and  C_26 
REMARK   20  A    between atoms: C_26  and  C_27 
REMARK   21  A    between atoms: C_27  and  C_28 
ROOT
HETATM    1  C   UNL     1     -21.547  -6.028  -2.814  1.00  0.00     0.000 C 
ENDROOT
BRANCH   1   2
HETATM    2  C   UNL     1     -22.072  -6.683  -4.077  1.00  0.00     0.004 C 
BRANCH   2   3
HETATM    3  C   UNL     1     -21.079  -6.580  -5.235  1.00  0.00    -0.018 C 
HETATM    4  C   UNL     1     -20.059  -7.732  -5.219  1.00  0.00     0.010 C 
BRANCH   3   5
HETATM    5  C   UNL     1     -20.410  -5.198  -5.151  1.00  0.00     0.004 C 
BRANCH   5   6
HETATM    6  C   UNL     1     -20.314  -4.561  -6.523  1.00  0.00     0.001 C 
BRANCH   6   7
HETATM    7  C   UNL     1     -21.163  -5.267  -7.570  1.00  0.00     0.004 C 
BRANCH   7   8
HETATM    8  C   UNL     1     -21.705  -4.259  -8.599  1.00  0.00    -0.018 C 
HETATM    9  C   UNL     1     -23.231  -4.086  -8.488  1.00  0.00     0.010 C 
BRANCH   8  10
HETATM   10  C   UNL     1     -21.280  -4.703 -10.010  1.00  0.00     0.004 C 
BRANCH  10  11
HETATM   11  C   UNL     1     -20.673  -3.549 -10.801  1.00  0.00     0.001 C 
BRANCH  11  12
HETATM   12  C   UNL     1     -21.699  -2.820 -11.658  1.00  0.00     0.004 C 
BRANCH  12  13
HETATM   13  C   UNL     1     -22.777  -3.774 -12.202  1.00  0.00    -0.023 C 
HETATM   14  C   UNL     1     -24.156  -3.147 -12.015  1.00  0.00     0.009 C 
HETATM   15  C   UNL     1     -22.564  -4.131 -13.677  1.00  0.00     0.009 C 
ENDBRANCH  12  13
ENDBRANCH  11  12
ENDBRANCH  10  11
ENDBRANCH   8  10
ENDBRANCH   7   8
ENDBRANCH   6   7
ENDBRANCH   5   6
ENDBRANCH   3   5
ENDBRANCH   2   3
ENDBRANCH   1   2
BRANCH   1  16
HETATM   16  C   UNL     1     -22.204  -6.644  -1.593  1.00  0.00     0.000 C 
BRANCH  16  17
HETATM   17  C   UNL     1     -21.362  -7.820  -1.138  1.00  0.00     0.004 C 
BRANCH  17  18
HETATM   18  C   UNL     1     -21.845  -8.440   0.179  1.00  0.00    -0.018 C 
HETATM   19  C   UNL     1     -23.062  -7.698   0.729  1.00  0.00     0.010 C 
BRANCH  18  20
HETATM   20  C   UNL     1     -22.168  -9.929  -0.029  1.00  0.00     0.004 C 
BRANCH  20  21
HETATM   21  C   UNL     1     -23.683 -10.160  -0.083  1.00  0.00     0.001 C 
BRANCH  21  22
HETATM   22  C   UNL     1     -24.034 -11.603  -0.409  1.00  0.00     0.004 C 
BRANCH  22  23
HETATM   23  C   UNL     1     -22.892 -12.571  -0.025  1.00  0.00    -0.018 C 
HETATM   24  C   UNL     1     -23.225 -13.355   1.250  1.00  0.00     0.010 C 
BRANCH  23  25
HETATM   25  C   UNL     1     -22.577 -13.540  -1.179  1.00  0.00     0.004 C 
BRANCH  25  26
HETATM   26  C   UNL     1     -21.110 -13.448  -1.603  1.00  0.00     0.001 C 
BRANCH  26  27
HETATM   27  C   UNL     1     -20.836 -12.250  -2.506  1.00  0.00     0.004 C 
BRANCH  27  28
HETATM   28  C   UNL     1     -21.985 -12.006  -3.502  1.00  0.00    -0.023 C 
HETATM   29  C   UNL     1     -22.357 -10.526  -3.615  1.00  0.00     0.009 C 
HETATM   30  C   UNL     1     -21.608 -12.559  -4.875  1.00  0.00     0.009 C 
ENDBRANCH  27  28
ENDBRANCH  26  27
ENDBRANCH  25  26
ENDBRANCH  23  25
ENDBRANCH  22  23
ENDBRANCH  21  22
ENDBRANCH  20  21
ENDBRANCH  18  20
ENDBRANCH  17  18
ENDBRANCH  16  17
ENDBRANCH   1  16
TORSDOF 21
BEGIN_RES ARG D 557
REMARK  4 active torsions:
REMARK  status: ('A' for Active; 'I' for Inactive)
REMARK    1  A    between atoms: CA   and  CB  
REMARK    2  A    between atoms: CB   and  CG  
REMARK    3  A    between atoms: CG   and  CD  
REMARK    4  A    between atoms: CD   and  NE  
REMARK       I    between atoms: NE   and  CZ  
REMARK       I    between atoms: CZ   and  NH1 
REMARK       I    between atoms: CZ   and  NH2 
ROOT
ATOM      1  CA  ARG D 557     -26.217   2.705 -17.014  1.00 35.49     0.159 C 
ENDROOT
BRANCH   1   2
ATOM      2  CB  ARG D 557     -26.789   1.319 -17.183  1.00 35.49     0.034 C 
BRANCH   2   3
ATOM      3  CG  ARG D 557     -28.224   1.228 -17.479  1.00 35.49     0.027 C 
BRANCH   3   4
ATOM      4  CD  ARG D 557     -28.940   0.340 -16.534  1.00 35.49     0.116 C 
BRANCH   4   5
ATOM      5  NE  ARG D 557     -29.321  -0.906 -17.144  1.00 35.49    -0.212 N 
ATOM      6  CZ  ARG D 557     -28.675  -2.045 -17.033  1.00 35.49     0.666 C 
ATOM      7  NH1 ARG D 557     -27.560  -2.163 -16.336  1.00 35.49    -0.235 N 
ATOM      8  NH2 ARG D 557     -29.178  -3.082 -17.638  1.00 35.49    -0.235 N 
ATOM      9  HH  ARG D 557     -27.213  -1.494 -15.928  1.00 35.49     0.174 HD
ATOM     10  HH  ARG D 557     -27.184  -2.932 -16.297  1.00 35.49     0.174 HD
ATOM     11  HH  ARG D 557     -29.903  -2.978 -18.075  1.00 35.49     0.174 HD
ATOM     12  HH  ARG D 557     -28.791  -3.835 -17.586  1.00 35.49     0.174 HD
ATOM     13  HE  ARG D 557     -29.988  -0.905 -17.672  1.00 35.49     0.178 HD
ENDBRANCH   4   5
ENDBRANCH   3   4
ENDBRANCH   2   3
ENDBRANCH   1   2
END_RES ARG D 557
BEGIN_RES GLU D 570
REMARK  3 active torsions:
REMARK  status: ('A' for Active; 'I' for Inactive)
REMARK    5  A    between atoms: CA   and  CB  
REMARK    6  A    between atoms: CB   and  CG  
REMARK    7  A    between atoms: CG   and  CD  
ROOT
ATOM     14  CA  GLU D 570     -18.033  -6.348 -13.375  1.00 32.92     0.160 C 
ENDROOT
BRANCH  14  15
ATOM     15  CB  GLU D 570     -19.500  -6.345 -13.794  1.00 32.92     0.043 C 
BRANCH  15  16
ATOM     16  CG  GLU D 570     -19.796  -6.283 -15.249  1.00 32.92     0.100 C 
BRANCH  16  17
ATOM     17  CD  GLU D 570     -20.840  -7.287 -15.680  1.00 32.92     0.185 C 
ATOM     18  OE1 GLU D 570     -21.928  -6.874 -16.126  1.00 32.92    -0.647 OA
ATOM     19  OE2 GLU D 570     -20.574  -8.498 -15.556  1.00 32.92    -0.647 OA
ENDBRANCH  16  17
ENDBRANCH  15  16
ENDBRANCH  14  15
END_RES GLU D 570
ENDMDL
MODEL 4
REMARK VINA RESULT:      -7.1      2.141      3.663
REMARK  21 active torsions:
REMARK  status: ('A' for Active; 'I' for Inactive)
REMARK    1  A    between atoms: C_2  and  C_4 
REMARK    2  A    between atoms: C_4  and  C_5 
REMARK    3  A    between atoms: C_5  and  C_6 
REMARK    4  A    between atoms: C_6  and  C_7 
REMARK    5  A    between atoms: C_7  and  C_9 
REMARK    6  A    between atoms: C_9  and  C_10 
REMARK    7  A    between atoms: C_10  and  C_11 
REMARK    8  A    between atoms: C_11  and  C_12 
REMARK    9  A    between atoms: C_12  and  C_14 
REMARK   10  A    between atoms: C_14  and  C_15 
REMARK   11  A    between atoms: C_15  and  C_16 
REMARK   12  A    between atoms: C_16  and  C_17 
REMARK   13  A    between atoms: C_17  and  C_18 
REMARK   14  A    between atoms: C_18  and  C_20 
REMARK   15  A    between atoms: C_20  and  C_21 
REMARK   16  A    between atoms: C_21  and  C_22 
REMARK   17  A    between atoms: C_22  and  C_23 
REMARK   18  A    between atoms: C_23  and  C_25 
REMARK   19  A    between atoms: C_25  and  C_26 
REMARK   20  A    between atoms: C_26  and  C_27 
REMARK   21  A    between atoms: C_27  and  C_28 
ROOT
HETATM    1  C   UNL     1     -20.707  -7.844  -1.195  1.00  0.00     0.000 C 
ENDROOT
BRANCH   1   2
HETATM    2  C   UNL     1     -22.142  -7.523  -0.829  1.00  0.00     0.004 C 
BRANCH   2   3
HETATM    3  C   UNL     1     -22.542  -8.124   0.519  1.00  0.00    -0.018 C 
HETATM    4  C   UNL     1     -21.321  -8.637   1.302  1.00  0.00     0.010 C 
BRANCH   3   5
HETATM    5  C   UNL     1     -23.574  -9.230   0.245  1.00  0.00     0.004 C 
BRANCH   5   6
HETATM    6  C   UNL     1     -23.020 -10.259  -0.719  1.00  0.00     0.001 C 
BRANCH   6   7
HETATM    7  C   UNL     1     -23.990 -11.396  -1.003  1.00  0.00     0.004 C 
BRANCH   7   8
HETATM    8  C   UNL     1     -23.358 -12.753  -0.646  1.00  0.00    -0.018 C 
HETATM    9  C   UNL     1     -24.295 -13.929  -0.975  1.00  0.00     0.010 C 
BRANCH   8  10
HETATM   10  C   UNL     1     -22.948 -12.742   0.837  1.00  0.00     0.004 C 
BRANCH  10  11
HETATM   11  C   UNL     1     -23.075 -14.127   1.463  1.00  0.00     0.001 C 
BRANCH  11  12
HETATM   12  C   UNL     1     -23.901 -14.121   2.741  1.00  0.00     0.004 C 
BRANCH  12  13
HETATM   13  C   UNL     1     -24.298 -15.543   3.177  1.00  0.00    -0.023 C 
HETATM   14  C   UNL     1     -25.109 -15.474   4.469  1.00  0.00     0.009 C 
HETATM   15  C   UNL     1     -25.092 -16.293   2.103  1.00  0.00     0.009 C 
ENDBRANCH  12  13
ENDBRANCH  11  12
ENDBRANCH  10  11
ENDBRANCH   8  10
ENDBRANCH   7   8
ENDBRANCH   6   7
ENDBRANCH   5   6
ENDBRANCH   3   5
ENDBRANCH   2   3
ENDBRANCH   1   2
BRANCH   1  16
HETATM   16  C   UNL     1     -20.556  -7.923  -2.703  1.00  0.00     0.000 C 
BRANCH  16  17
HETATM   17  C   UNL     1     -21.424  -6.849  -3.329  1.00  0.00     0.004 C 
BRANCH  17  18
HETATM   18  C   UNL     1     -21.603  -7.017  -4.843  1.00  0.00    -0.018 C 
HETATM   19  C   UNL     1     -22.807  -6.226  -5.351  1.00  0.00     0.010 C 
BRANCH  18  20
HETATM   20  C   UNL     1     -20.322  -6.582  -5.574  1.00  0.00     0.004 C 
BRANCH  20  21
HETATM   21  C   UNL     1     -20.340  -5.077  -5.865  1.00  0.00     0.001 C 
BRANCH  21  22
HETATM   22  C   UNL     1     -19.426  -4.701  -7.021  1.00  0.00     0.004 C 
BRANCH  22  23
HETATM   23  C   UNL     1     -20.189  -3.942  -8.129  1.00  0.00    -0.018 C 
HETATM   24  C   UNL     1     -20.095  -4.670  -9.476  1.00  0.00     0.010 C 
BRANCH  23  25
HETATM   25  C   UNL     1     -21.663  -3.731  -7.741  1.00  0.00     0.004 C 
BRANCH  25  26
HETATM   26  C   UNL     1     -22.607  -4.451  -8.706  1.00  0.00     0.001 C 
BRANCH  26  27
HETATM   27  C   UNL     1     -23.653  -3.518  -9.308  1.00  0.00     0.004 C 
BRANCH  27  28
HETATM   28  C   UNL     1     -23.707  -3.630 -10.843  1.00  0.00    -0.023 C 
HETATM   29  C   UNL     1     -22.606  -2.819 -11.528  1.00  0.00     0.009 C 
HETATM   30  C   UNL     1     -23.614  -5.097 -11.259  1.00  0.00     0.009 C 
ENDBRANCH  27  28
ENDBRANCH  26  27
ENDBRANCH  25  26
ENDBRANCH  23  25
ENDBRANCH  22  23
ENDBRANCH  21  22
ENDBRANCH  20  21
ENDBRANCH  18  20
ENDBRANCH  17  18
ENDBRANCH  16  17
ENDBRANCH   1  16
TORSDOF 21
BEGIN_RES ARG D 557
REMARK  4 active torsions:
REMARK  status: ('A' for Active; 'I' for Inactive)
REMARK    1  A    between atoms: CA   and  CB  
REMARK    2  A    between atoms: CB   and  CG  
REMARK    3  A    between atoms: CG   and  CD  
REMARK    4  A    between atoms: CD   and  NE  
REMARK       I    between atoms: NE   and  CZ  
REMARK       I    between atoms: CZ   and  NH1 
REMARK       I    between atoms: CZ   and  NH2 
ROOT
ATOM      1  CA  ARG D 557     -26.217   2.705 -17.014  1.00 35.49     0.159 C 
ENDROOT
BRANCH   1   2
ATOM      2  CB  ARG D 557     -26.789   1.319 -17.183  1.00 35.49     0.034 C 
BRANCH   2   3
ATOM      3  CG  ARG D 557     -28.235   1.225 -17.417  1.00 35.49     0.027 C 
BRANCH   3   4
ATOM      4  CD  ARG D 557     -28.898   0.289 -16.480  1.00 35.49     0.116 C 
BRANCH   4   5
ATOM      5  NE  ARG D 557     -29.299  -0.932 -17.128  1.00 35.49    -0.212 N 
ATOM      6  CZ  ARG D 557     -28.680  -2.088 -17.038  1.00 35.49     0.666 C 
ATOM      7  NH1 ARG D 557     -27.578  -2.249 -16.330  1.00 35.49    -0.235 N 
ATOM      8  NH2 ARG D 557     -29.198  -3.097 -17.677  1.00 35.49    -0.235 N 
ATOM      9  HH  ARG D 557     -27.221  -1.599 -15.900  1.00 35.49     0.174 HD
ATOM     10  HH  ARG D 557     -27.219  -3.027 -16.306  1.00 35.49     0.174 HD
ATOM     11  HH  ARG D 557     -29.914  -2.966 -18.120  1.00 35.49     0.174 HD
ATOM     12  HH  ARG D 557     -28.829  -3.860 -17.639  1.00 35.49     0.174 HD
ATOM     13  HE  ARG D 557     -29.959  -0.903 -17.663  1.00 35.49     0.178 HD
ENDBRANCH   4   5
ENDBRANCH   3   4
ENDBRANCH   2   3
ENDBRANCH   1   2
END_RES ARG D 557
BEGIN_RES GLU D 570
REMARK  3 active torsions:
REMARK  status: ('A' for Active; 'I' for Inactive)
REMARK    5  A    between atoms: CA   and  CB  
REMARK    6  A    between atoms: CB   and  CG  
REMARK    7  A    between atoms: CG   and  CD  
ROOT
ATOM     14  CA  GLU D 570     -18.033  -6.348 -13.375  1.00 32.92     0.160 C 
ENDROOT
BRANCH  14  15
ATOM     15  CB  GLU D 570     -19.500  -6.345 -13.794  1.00 32.92     0.043 C 
BRANCH  15  16
ATOM     16  CG  GLU D 570     -19.806  -6.031 -15.214  1.00 32.92     0.100 C 
BRANCH  16  17
ATOM     17  CD  GLU D 570     -21.151  -5.367 -15.394  1.00 32.92     0.185 C 
ATOM     18  OE1 GLU D 570     -21.501  -5.008 -16.534  1.00 32.92    -0.647 OA
ATOM     19  OE2 GLU D 570     -21.855  -5.187 -14.380  1.00 32.92    -0.647 OA
ENDBRANCH  16  17
ENDBRANCH  15  16
ENDBRANCH  14  15
END_RES GLU D 570
ENDMDL
MODEL 5
REMARK VINA RESULT:      -7.0      2.370     10.448
REMARK  21 active torsions:
REMARK  status: ('A' for Active; 'I' for Inactive)
REMARK    1  A    between atoms: C_2  and  C_4 
REMARK    2  A    between atoms: C_4  and  C_5 
REMARK    3  A    between atoms: C_5  and  C_6 
REMARK    4  A    between atoms: C_6  and  C_7 
REMARK    5  A    between atoms: C_7  and  C_9 
REMARK    6  A    between atoms: C_9  and  C_10 
REMARK    7  A    between atoms: C_10  and  C_11 
REMARK    8  A    between atoms: C_11  and  C_12 
REMARK    9  A    between atoms: C_12  and  C_14 
REMARK   10  A    between atoms: C_14  and  C_15 
REMARK   11  A    between atoms: C_15  and  C_16 
REMARK   12  A    between atoms: C_16  and  C_17 
REMARK   13  A    between atoms: C_17  and  C_18 
REMARK   14  A    between atoms: C_18  and  C_20 
REMARK   15  A    between atoms: C_20  and  C_21 
REMARK   16  A    between atoms: C_21  and  C_22 
REMARK   17  A    between atoms: C_22  and  C_23 
REMARK   18  A    between atoms: C_23  and  C_25 
REMARK   19  A    between atoms: C_25  and  C_26 
REMARK   20  A    between atoms: C_26  and  C_27 
REMARK   21  A    between atoms: C_27  and  C_28 
ROOT
HETATM    1  C   UNL     1     -20.493  -4.496 -10.955  1.00  0.00     0.000 C 
ENDROOT
BRANCH   1   2
HETATM    2  C   UNL     1     -21.640  -3.507 -11.022  1.00  0.00     0.004 C 
BRANCH   2   3
HETATM    3  C   UNL     1     -22.866  -4.093 -11.722  1.00  0.00    -0.018 C 
HETATM    4  C   UNL     1     -23.690  -4.989 -10.781  1.00  0.00     0.010 C 
BRANCH   3   5
HETATM    5  C   UNL     1     -22.373  -4.843 -12.970  1.00  0.00     0.004 C 
BRANCH   5   6
HETATM    6  C   UNL     1     -23.441  -5.784 -13.491  1.00  0.00     0.001 C 
BRANCH   6   7
HETATM    7  C   UNL     1     -24.086  -5.300 -14.781  1.00  0.00     0.004 C 
BRANCH   7   8
HETATM    8  C   UNL     1     -25.133  -6.312 -15.279  1.00  0.00    -0.018 C 
HETATM    9  C   UNL     1     -24.532  -7.320 -16.276  1.00  0.00     0.010 C 
BRANCH   8  10
HETATM   10  C   UNL     1     -26.324  -5.547 -15.884  1.00  0.00     0.004 C 
BRANCH  10  11
HETATM   11  C   UNL     1     -27.216  -6.465 -16.712  1.00  0.00     0.001 C 
BRANCH  11  12
HETATM   12  C   UNL     1     -27.595  -5.860 -18.057  1.00  0.00     0.004 C 
BRANCH  12  13
HETATM   13  C   UNL     1     -29.030  -5.304 -18.055  1.00  0.00    -0.023 C 
HETATM   14  C   UNL     1     -29.914  -6.172 -17.163  1.00  0.00     0.009 C 
HETATM   15  C   UNL     1     -29.100  -3.844 -17.593  1.00  0.00     0.009 C 
ENDBRANCH  12  13
ENDBRANCH  11  12
ENDBRANCH  10  11
ENDBRANCH   8  10
ENDBRANCH   7   8
ENDBRANCH   6   7
ENDBRANCH   5   6
ENDBRANCH   3   5
ENDBRANCH   2   3
ENDBRANCH   1   2
BRANCH   1  16
HETATM   16  C   UNL     1     -20.127  -4.778  -9.509  1.00  0.00     0.000 C 
BRANCH  16  17
HETATM   17  C   UNL     1     -20.768  -3.717  -8.636  1.00  0.00     0.004 C 
BRANCH  17  18
HETATM   18  C   UNL     1     -21.378  -4.277  -7.346  1.00  0.00    -0.018 C 
HETATM   19  C   UNL     1     -22.903  -4.314  -7.422  1.00  0.00     0.010 C 
BRANCH  18  20
HETATM   20  C   UNL     1     -20.817  -5.682  -7.068  1.00  0.00     0.004 C 
BRANCH  20  21
HETATM   21  C   UNL     1     -20.314  -5.797  -5.624  1.00  0.00     0.001 C 
BRANCH  21  22
HETATM   22  C   UNL     1     -21.437  -6.107  -4.645  1.00  0.00     0.004 C 
BRANCH  22  23
HETATM   23  C   UNL     1     -21.189  -7.434  -3.894  1.00  0.00    -0.018 C 
HETATM   24  C   UNL     1     -19.983  -8.188  -4.467  1.00  0.00     0.010 C 
BRANCH  23  25
HETATM   25  C   UNL     1     -20.994  -7.188  -2.387  1.00  0.00     0.004 C 
BRANCH  25  26
HETATM   26  C   UNL     1     -22.273  -6.661  -1.734  1.00  0.00     0.001 C 
BRANCH  26  27
HETATM   27  C   UNL     1     -22.399  -7.077  -0.273  1.00  0.00     0.004 C 
BRANCH  27  28
HETATM   28  C   UNL     1     -21.873  -8.505  -0.035  1.00  0.00    -0.023 C 
HETATM   29  C   UNL     1     -21.205  -8.662   1.332  1.00  0.00     0.009 C 
HETATM   30  C   UNL     1     -23.015  -9.510  -0.180  1.00  0.00     0.009 C 
ENDBRANCH  27  28
ENDBRANCH  26  27
ENDBRANCH  25  26
ENDBRANCH  23  25
ENDBRANCH  22  23
ENDBRANCH  21  22
ENDBRANCH  20  21
ENDBRANCH  18  20
ENDBRANCH  17  18
ENDBRANCH  16  17
ENDBRANCH   1  16
TORSDOF 21
BEGIN_RES ARG D 557
REMARK  4 active torsions:
REMARK  status: ('A' for Active; 'I' for Inactive)
REMARK    1  A    between atoms: CA   and  CB  
REMARK    2  A    between atoms: CB   and  CG  
REMARK    3  A    between atoms: CG   and  CD  
REMARK    4  A    between atoms: CD   and  NE  
REMARK       I    between atoms: NE   and  CZ  
REMARK       I    between atoms: CZ   and  NH1 
REMARK       I    between atoms: CZ   and  NH2 
ROOT
ATOM      1  CA  ARG D 557     -26.217   2.705 -17.014  1.00 35.49     0.159 C 
ENDROOT
BRANCH   1   2
ATOM      2  CB  ARG D 557     -26.789   1.319 -17.183  1.00 35.49     0.034 C 
BRANCH   2   3
ATOM      3  CG  ARG D 557     -25.985   0.205 -16.666  1.00 35.49     0.027 C 
BRANCH   3   4
ATOM      4  CD  ARG D 557     -26.817  -0.952 -16.264  1.00 35.49     0.116 C 
BRANCH   4   5
ATOM      5  NE  ARG D 557     -26.279  -1.635 -15.117  1.00 35.49    -0.212 N 
ATOM      6  CZ  ARG D 557     -25.073  -1.471 -14.622  1.00 35.49     0.666 C 
ATOM      7  NH1 ARG D 557     -24.194  -0.642 -15.154  1.00 35.49    -0.235 N 
ATOM      8  NH2 ARG D 557     -24.761  -2.158 -13.561  1.00 35.49    -0.235 N 
ATOM      9  HH  ARG D 557     -24.378  -0.178 -15.851  1.00 35.49     0.174 HD
ATOM     10  HH  ARG D 557     -23.423  -0.575 -14.786  1.00 35.49     0.174 HD
ATOM     11  HH  ARG D 557     -25.351  -2.680 -13.235  1.00 35.49     0.174 HD
ATOM     12  HH  ARG D 557     -23.993  -2.076 -13.211  1.00 35.49     0.174 HD
ATOM     13  HE  ARG D 557     -26.753  -2.241 -14.755  1.00 35.49     0.178 HD
ENDBRANCH   4   5
ENDBRANCH   3   4
ENDBRANCH   2   3
ENDBRANCH   1   2
END_RES ARG D 557
BEGIN_RES GLU D 570
REMARK  3 active torsions:
REMARK  status: ('A' for Active; 'I' for Inactive)
REMARK    5  A    between atoms: CA   and  CB  
REMARK    6  A    between atoms: CB   and  CG  
REMARK    7  A    between atoms: CG   and  CD  
ROOT
ATOM     14  CA  GLU D 570     -18.033  -6.348 -13.375  1.00 32.92     0.160 C 
ENDROOT
BRANCH  14  15
ATOM     15  CB  GLU D 570     -19.500  -6.345 -13.794  1.00 32.92     0.043 C 
BRANCH  15  16
ATOM     16  CG  GLU D 570     -20.084  -7.632 -14.251  1.00 32.92     0.100 C 
BRANCH  16  17
ATOM     17  CD  GLU D 570     -20.679  -7.550 -15.638  1.00 32.92     0.185 C 
ATOM     18  OE1 GLU D 570     -20.938  -8.605 -16.248  1.00 32.92    -0.647 OA
ATOM     19  OE2 GLU D 570     -20.872  -6.419 -16.125  1.00 32.92    -0.647 OA
ENDBRANCH  16  17
ENDBRANCH  15  16
ENDBRANCH  14  15
END_RES GLU D 570
ENDMDL
MODEL 6
REMARK VINA RESULT:      -7.0      1.490      2.021
REMARK  21 active torsions:
REMARK  status: ('A' for Active; 'I' for Inactive)
REMARK    1  A    between atoms: C_2  and  C_4 
REMARK    2  A    between atoms: C_4  and  C_5 
REMARK    3  A    between atoms: C_5  and  C_6 
REMARK    4  A    between atoms: C_6  and  C_7 
REMARK    5  A    between atoms: C_7  and  C_9 
REMARK    6  A    between atoms: C_9  and  C_10 
REMARK    7  A    between atoms: C_10  and  C_11 
REMARK    8  A    between atoms: C_11  and  C_12 
REMARK    9  A    between atoms: C_12  and  C_14 
REMARK   10  A    between atoms: C_14  and  C_15 
REMARK   11  A    between atoms: C_15  and  C_16 
REMARK   12  A    between atoms: C_16  and  C_17 
REMARK   13  A    between atoms: C_17  and  C_18 
REMARK   14  A    between atoms: C_18  and  C_20 
REMARK   15  A    between atoms: C_20  and  C_21 
REMARK   16  A    between atoms: C_21  and  C_22 
REMARK   17  A    between atoms: C_22  and  C_23 
REMARK   18  A    between atoms: C_23  and  C_25 
REMARK   19  A    between atoms: C_25  and  C_26 
REMARK   20  A    between atoms: C_26  and  C_27 
REMARK   21  A    between atoms: C_27  and  C_28 
ROOT
HETATM    1  C   UNL     1     -22.205  -6.461  -1.403  1.00  0.00     0.000 C 
ENDROOT
BRANCH   1   2
HETATM    2  C   UNL     1     -21.664  -7.760  -0.839  1.00  0.00     0.004 C 
BRANCH   2   3
HETATM    3  C   UNL     1     -22.207  -8.052   0.561  1.00  0.00    -0.018 C 
HETATM    4  C   UNL     1     -21.139  -8.685   1.469  1.00  0.00     0.010 C 
BRANCH   3   5
HETATM    5  C   UNL     1     -23.449  -8.943   0.399  1.00  0.00     0.004 C 
BRANCH   5   6
HETATM    6  C   UNL     1     -23.162 -10.104  -0.532  1.00  0.00     0.001 C 
BRANCH   6   7
HETATM    7  C   UNL     1     -23.865 -11.389  -0.118  1.00  0.00     0.004 C 
BRANCH   7   8
HETATM    8  C   UNL     1     -22.876 -12.569  -0.102  1.00  0.00    -0.018 C 
HETATM    9  C   UNL     1     -23.563 -13.891   0.288  1.00  0.00     0.010 C 
BRANCH   8  10
HETATM   10  C   UNL     1     -21.706 -12.231   0.839  1.00  0.00     0.004 C 
BRANCH  10  11
HETATM   11  C   UNL     1     -20.375 -12.712   0.271  1.00  0.00     0.001 C 
BRANCH  11  12
HETATM   12  C   UNL     1     -19.358 -11.588   0.125  1.00  0.00     0.004 C 
BRANCH  12  13
HETATM   13  C   UNL     1     -18.037 -12.084  -0.490  1.00  0.00    -0.023 C 
HETATM   14  C   UNL     1     -16.973 -12.188   0.600  1.00  0.00     0.009 C 
HETATM   15  C   UNL     1     -18.183 -13.432  -1.203  1.00  0.00     0.009 C 
ENDBRANCH  12  13
ENDBRANCH  11  12
ENDBRANCH  10  11
ENDBRANCH   8  10
ENDBRANCH   7   8
ENDBRANCH   6   7
ENDBRANCH   5   6
ENDBRANCH   3   5
ENDBRANCH   2   3
ENDBRANCH   1   2
BRANCH   1  16
HETATM   16  C   UNL     1     -21.527  -6.140  -2.722  1.00  0.00     0.000 C 
BRANCH  16  17
HETATM   17  C   UNL     1     -21.177  -7.444  -3.412  1.00  0.00     0.004 C 
BRANCH  17  18
HETATM   18  C   UNL     1     -21.416  -7.413  -4.926  1.00  0.00    -0.018 C 
HETATM   19  C   UNL     1     -22.571  -6.481  -5.288  1.00  0.00     0.010 C 
BRANCH  18  20
HETATM   20  C   UNL     1     -20.129  -6.985  -5.652  1.00  0.00     0.004 C 
BRANCH  20  21
HETATM   21  C   UNL     1     -20.272  -5.577  -6.239  1.00  0.00     0.001 C 
BRANCH  21  22
HETATM   22  C   UNL     1     -19.907  -5.527  -7.715  1.00  0.00     0.004 C 
BRANCH  22  23
HETATM   23  C   UNL     1     -20.995  -4.816  -8.549  1.00  0.00    -0.018 C 
HETATM   24  C   UNL     1     -21.758  -3.781  -7.713  1.00  0.00     0.010 C 
BRANCH  23  25
HETATM   25  C   UNL     1     -20.388  -4.149  -9.796  1.00  0.00     0.004 C 
BRANCH  25  26
HETATM   26  C   UNL     1     -21.308  -4.286 -11.010  1.00  0.00     0.001 C 
BRANCH  26  27
HETATM   27  C   UNL     1     -21.904  -2.951 -11.447  1.00  0.00     0.004 C 
BRANCH  27  28
HETATM   28  C   UNL     1     -23.444  -2.992 -11.474  1.00  0.00    -0.023 C 
HETATM   29  C   UNL     1     -24.006  -2.867 -12.892  1.00  0.00     0.009 C 
HETATM   30  C   UNL     1     -23.941  -4.282 -10.824  1.00  0.00     0.009 C 
ENDBRANCH  27  28
ENDBRANCH  26  27
ENDBRANCH  25  26
ENDBRANCH  23  25
ENDBRANCH  22  23
ENDBRANCH  21  22
ENDBRANCH  20  21
ENDBRANCH  18  20
ENDBRANCH  17  18
ENDBRANCH  16  17
ENDBRANCH   1  16
TORSDOF 21
BEGIN_RES ARG D 557
REMARK  4 active torsions:
REMARK  status: ('A' for Active; 'I' for Inactive)
REMARK    1  A    between atoms: CA   and  CB  
REMARK    2  A    between atoms: CB   and  CG  
REMARK    3  A    between atoms: CG   and  CD  
REMARK    4  A    between atoms: CD   and  NE  
REMARK       I    between atoms: NE   and  CZ  
REMARK       I    between atoms: CZ   and  NH1 
REMARK       I    between atoms: CZ   and  NH2 
ROOT
ATOM      1  CA  ARG D 557     -26.217   2.705 -17.014  1.00 35.49     0.159 C 
ENDROOT
BRANCH   1   2
ATOM      2  CB  ARG D 557     -26.789   1.319 -17.183  1.00 35.49     0.034 C 
BRANCH   2   3
ATOM      3  CG  ARG D 557     -28.219   1.155 -16.896  1.00 35.49     0.027 C 
BRANCH   3   4
ATOM      4  CD  ARG D 557     -28.614  -0.268 -16.792  1.00 35.49     0.116 C 
BRANCH   4   5
ATOM      5  NE  ARG D 557     -27.625  -1.057 -16.107  1.00 35.49    -0.212 N 
ATOM      6  CZ  ARG D 557     -27.500  -2.364 -16.178  1.00 35.49     0.666 C 
ATOM      7  NH1 ARG D 557     -28.309  -3.115 -16.902  1.00 35.49    -0.235 N 
ATOM      8  NH2 ARG D 557     -26.530  -2.912 -15.505  1.00 35.49    -0.235 N 
ATOM      9  HH  ARG D 557     -28.953  -2.776 -17.354  1.00 35.49     0.174 HD
ATOM     10  HH  ARG D 557     -28.178  -3.962 -16.912  1.00 35.49     0.174 HD
ATOM     11  HH  ARG D 557     -26.019  -2.401 -15.052  1.00 35.49     0.174 HD
ATOM     12  HH  ARG D 557     -26.416  -3.751 -15.529  1.00 35.49     0.174 HD
ATOM     13  HE  ARG D 557     -27.107  -0.662 -15.561  1.00 35.49     0.178 HD
ENDBRANCH   4   5
ENDBRANCH   3   4
ENDBRANCH   2   3
ENDBRANCH   1   2
END_RES ARG D 557
BEGIN_RES GLU D 570
REMARK  3 active torsions:
REMARK  status: ('A' for Active; 'I' for Inactive)
REMARK    5  A    between atoms: CA   and  CB  
REMARK    6  A    between atoms: CB   and  CG  
REMARK    7  A    between atoms: CG   and  CD  
ROOT
ATOM     14  CA  GLU D 570     -18.033  -6.348 -13.375  1.00 32.92     0.160 C 
ENDROOT
BRANCH  14  15
ATOM     15  CB  GLU D 570     -19.500  -6.345 -13.794  1.00 32.92     0.043 C 
BRANCH  15  16
ATOM     16  CG  GLU D 570     -19.803  -6.074 -15.223  1.00 32.92     0.100 C 
BRANCH  16  17
ATOM     17  CD  GLU D 570     -20.707  -7.115 -15.842  1.00 32.92     0.185 C 
ATOM     18  OE1 GLU D 570     -20.689  -8.276 -15.391  1.00 32.92    -0.647 OA
ATOM     19  OE2 GLU D 570     -21.427  -6.770 -16.799  1.00 32.92    -0.647 OA
ENDBRANCH  16  17
ENDBRANCH  15  16
ENDBRANCH  14  15
END_RES GLU D 570
ENDMDL
MODEL 7
REMARK VINA RESULT:      -6.9      1.508      8.829
REMARK  21 active torsions:
REMARK  status: ('A' for Active; 'I' for Inactive)
REMARK    1  A    between atoms: C_2  and  C_4 
REMARK    2  A    between atoms: C_4  and  C_5 
REMARK    3  A    between atoms: C_5  and  C_6 
REMARK    4  A    between atoms: C_6  and  C_7 
REMARK    5  A    between atoms: C_7  and  C_9 
REMARK    6  A    between atoms: C_9  and  C_10 
REMARK    7  A    between atoms: C_10  and  C_11 
REMARK    8  A    between atoms: C_11  and  C_12 
REMARK    9  A    between atoms: C_12  and  C_14 
REMARK   10  A    between atoms: C_14  and  C_15 
REMARK   11  A    between atoms: C_15  and  C_16 
REMARK   12  A    between atoms: C_16  and  C_17 
REMARK   13  A    between atoms: C_17  and  C_18 
REMARK   14  A    between atoms: C_18  and  C_20 
REMARK   15  A    between atoms: C_20  and  C_21 
REMARK   16  A    between atoms: C_21  and  C_22 
REMARK   17  A    between atoms: C_22  and  C_23 
REMARK   18  A    between atoms: C_23  and  C_25 
REMARK   19  A    between atoms: C_25  and  C_26 
REMARK   20  A    between atoms: C_26  and  C_27 
REMARK   21  A    between atoms: C_27  and  C_28 
ROOT
HETATM    1  C   UNL     1     -21.216  -6.764  -2.922  1.00  0.00     0.000 C 
ENDROOT
BRANCH   1   2
HETATM    2  C   UNL     1     -21.330  -5.971  -4.210  1.00  0.00     0.004 C 
BRANCH   2   3
HETATM    3  C   UNL     1     -21.603  -6.870  -5.417  1.00  0.00    -0.018 C 
HETATM    4  C   UNL     1     -21.229  -8.335  -5.137  1.00  0.00     0.010 C 
BRANCH   3   5
HETATM    5  C   UNL     1     -20.837  -6.283  -6.614  1.00  0.00     0.004 C 
BRANCH   5   6
HETATM    6  C   UNL     1     -20.304  -4.902  -6.289  1.00  0.00     0.001 C 
BRANCH   6   7
HETATM    7  C   UNL     1     -20.289  -3.970  -7.492  1.00  0.00     0.004 C 
BRANCH   7   8
HETATM    8  C   UNL     1     -21.152  -4.538  -8.632  1.00  0.00    -0.018 C 
HETATM    9  C   UNL     1     -20.404  -4.533  -9.978  1.00  0.00     0.010 C 
BRANCH   8  10
HETATM   10  C   UNL     1     -22.472  -3.750  -8.706  1.00  0.00     0.004 C 
BRANCH  10  11
HETATM   11  C   UNL     1     -23.474  -4.421  -9.638  1.00  0.00     0.001 C 
BRANCH  11  12
HETATM   12  C   UNL     1     -24.219  -3.424 -10.515  1.00  0.00     0.004 C 
BRANCH  12  13
HETATM   13  C   UNL     1     -23.707  -3.438 -11.966  1.00  0.00    -0.023 C 
HETATM   14  C   UNL     1     -24.820  -2.982 -12.907  1.00  0.00     0.009 C 
HETATM   15  C   UNL     1     -22.466  -2.561 -12.166  1.00  0.00     0.009 C 
ENDBRANCH  12  13
ENDBRANCH  11  12
ENDBRANCH  10  11
ENDBRANCH   8  10
ENDBRANCH   7   8
ENDBRANCH   6   7
ENDBRANCH   5   6
ENDBRANCH   3   5
ENDBRANCH   2   3
ENDBRANCH   1   2
BRANCH   1  16
HETATM   16  C   UNL     1     -21.967  -6.060  -1.807  1.00  0.00     0.000 C 
BRANCH  16  17
HETATM   17  C   UNL     1     -22.522  -7.111  -0.865  1.00  0.00     0.004 C 
BRANCH  17  18
HETATM   18  C   UNL     1     -21.493  -8.175  -0.467  1.00  0.00    -0.018 C 
HETATM   19  C   UNL     1     -21.445  -8.362   1.049  1.00  0.00     0.010 C 
BRANCH  18  20
HETATM   20  C   UNL     1     -21.818  -9.507  -1.164  1.00  0.00     0.004 C 
BRANCH  20  21
HETATM   21  C   UNL     1     -23.117 -10.110  -0.619  1.00  0.00     0.001 C 
BRANCH  21  22
HETATM   22  C   UNL     1     -23.610 -11.276  -1.463  1.00  0.00     0.004 C 
BRANCH  22  23
HETATM   23  C   UNL     1     -24.115 -12.443  -0.586  1.00  0.00    -0.018 C 
HETATM   24  C   UNL     1     -24.002 -13.786  -1.318  1.00  0.00     0.010 C 
BRANCH  23  25
HETATM   25  C   UNL     1     -23.355 -12.500   0.751  1.00  0.00     0.004 C 
BRANCH  25  26
HETATM   26  C   UNL     1     -22.079 -13.336   0.635  1.00  0.00     0.001 C 
BRANCH  26  27
HETATM   27  C   UNL     1     -20.814 -12.493   0.752  1.00  0.00     0.004 C 
BRANCH  27  28
HETATM   28  C   UNL     1     -19.775 -12.866  -0.323  1.00  0.00    -0.023 C 
HETATM   29  C   UNL     1     -20.414 -13.127  -1.688  1.00  0.00     0.009 C 
HETATM   30  C   UNL     1     -18.727 -11.760  -0.437  1.00  0.00     0.009 C 
ENDBRANCH  27  28
ENDBRANCH  26  27
ENDBRANCH  25  26
ENDBRANCH  23  25
ENDBRANCH  22  23
ENDBRANCH  21  22
ENDBRANCH  20  21
ENDBRANCH  18  20
ENDBRANCH  17  18
ENDBRANCH  16  17
ENDBRANCH   1  16
TORSDOF 21
BEGIN_RES ARG D 557
REMARK  4 active torsions:
REMARK  status: ('A' for Active; 'I' for Inactive)
REMARK    1  A    between atoms: CA   and  CB  
REMARK    2  A    between atoms: CB   and  CG  
REMARK    3  A    between atoms: CG   and  CD  
REMARK    4  A    between atoms: CD   and  NE  
REMARK       I    between atoms: NE   and  CZ  
REMARK       I    between atoms: CZ   and  NH1 
REMARK       I    between atoms: CZ   and  NH2 
ROOT
ATOM      1  CA  ARG D 557     -26.217   2.705 -17.014  1.00 35.49     0.159 C 
ENDROOT
BRANCH   1   2
ATOM      2  CB  ARG D 557     -26.789   1.319 -17.183  1.00 35.49     0.034 C 
BRANCH   2   3
ATOM      3  CG  ARG D 557     -25.946   0.199 -16.747  1.00 35.49     0.027 C 
BRANCH   3   4
ATOM      4  CD  ARG D 557     -26.726  -0.866 -16.076  1.00 35.49     0.116 C 
BRANCH   4   5
ATOM      5  NE  ARG D 557     -27.979  -1.119 -16.737  1.00 35.49    -0.212 N 
ATOM      6  CZ  ARG D 557     -28.503  -2.303 -16.963  1.00 35.49     0.666 C 
ATOM      7  NH1 ARG D 557     -27.903  -3.424 -16.606  1.00 35.49    -0.235 N 
ATOM      8  NH2 ARG D 557     -29.660  -2.344 -17.557  1.00 35.49    -0.235 N 
ATOM      9  HH  ARG D 557     -27.142  -3.420 -16.212  1.00 35.49     0.174 HD
ATOM     10  HH  ARG D 557     -28.294  -4.167 -16.777  1.00 35.49     0.174 HD
ATOM     11  HH  ARG D 557     -30.027  -1.604 -17.770  1.00 35.49     0.174 HD
ATOM     12  HH  ARG D 557     -30.031  -3.090 -17.717  1.00 35.49     0.174 HD
ATOM     13  HE  ARG D 557     -28.399  -0.456 -17.065  1.00 35.49     0.178 HD
ENDBRANCH   4   5
ENDBRANCH   3   4
ENDBRANCH   2   3
ENDBRANCH   1   2
END_RES ARG D 557
BEGIN_RES GLU D 570
REMARK  3 active torsions:
REMARK  status: ('A' for Active; 'I' for Inactive)
REMARK    5  A    between atoms: CA   and  CB  
REMARK    6  A    between atoms: CB   and  CG  
REMARK    7  A    between atoms: CG   and  CD  
ROOT
ATOM     14  CA  GLU D 570     -18.033  -6.348 -13.375  1.00 32.92     0.160 C 
ENDROOT
BRANCH  14  15
ATOM     15  CB  GLU D 570     -19.500  -6.345 -13.794  1.00 32.92     0.043 C 
BRANCH  15  16
ATOM     16  CG  GLU D 570     -19.812  -5.948 -15.191  1.00 32.92     0.100 C 
BRANCH  16  17
ATOM     17  CD  GLU D 570     -21.277  -5.649 -15.406  1.00 32.92     0.185 C 
ATOM     18  OE1 GLU D 570     -22.128  -6.305 -14.775  1.00 32.92    -0.647 OA
ATOM     19  OE2 GLU D 570     -21.578  -4.759 -16.226  1.00 32.92    -0.647 OA
ENDBRANCH  16  17
ENDBRANCH  15  16
ENDBRANCH  14  15
END_RES GLU D 570
ENDMDL
MODEL 8
REMARK VINA RESULT:      -6.8      1.611      2.553
REMARK  21 active torsions:
REMARK  status: ('A' for Active; 'I' for Inactive)
REMARK    1  A    between atoms: C_2  and  C_4 
REMARK    2  A    between atoms: C_4  and  C_5 
REMARK    3  A    between atoms: C_5  and  C_6 
REMARK    4  A    between atoms: C_6  and  C_7 
REMARK    5  A    between atoms: C_7  and  C_9 
REMARK    6  A    between atoms: C_9  and  C_10 
REMARK    7  A    between atoms: C_10  and  C_11 
REMARK    8  A    between atoms: C_11  and  C_12 
REMARK    9  A    between atoms: C_12  and  C_14 
REMARK   10  A    between atoms: C_14  and  C_15 
REMARK   11  A    between atoms: C_15  and  C_16 
REMARK   12  A    between atoms: C_16  and  C_17 
REMARK   13  A    between atoms: C_17  and  C_18 
REMARK   14  A    between atoms: C_18  and  C_20 
REMARK   15  A    between atoms: C_20  and  C_21 
REMARK   16  A    between atoms: C_21  and  C_22 
REMARK   17  A    between atoms: C_22  and  C_23 
REMARK   18  A    between atoms: C_23  and  C_25 
REMARK   19  A    between atoms: C_25  and  C_26 
REMARK   20  A    between atoms: C_26  and  C_27 
REMARK   21  A    between atoms: C_27  and  C_28 
ROOT
HETATM    1  C   UNL     1     -22.333  -7.065  -0.764  1.00  0.00     0.000 C 
ENDROOT
BRANCH   1   2
HETATM    2  C   UNL     1     -22.420  -8.157   0.284  1.00  0.00     0.004 C 
BRANCH   2   3
HETATM    3  C   UNL     1     -22.084  -9.535  -0.289  1.00  0.00    -0.018 C 
HETATM    4  C   UNL     1     -23.321 -10.446  -0.354  1.00  0.00     0.010 C 
BRANCH   3   5
HETATM    5  C   UNL     1     -20.956 -10.131   0.568  1.00  0.00     0.004 C 
BRANCH   5   6
HETATM    6  C   UNL     1     -20.089 -11.065  -0.253  1.00  0.00     0.001 C 
BRANCH   6   7
HETATM    7  C   UNL     1     -20.168 -10.793  -1.748  1.00  0.00     0.004 C 
BRANCH   7   8
HETATM    8  C   UNL     1     -18.764 -10.806  -2.378  1.00  0.00    -0.018 C 
HETATM    9  C   UNL     1     -18.181  -9.387  -2.515  1.00  0.00     0.010 C 
BRANCH   8  10
HETATM   10  C   UNL     1     -18.827 -11.534  -3.732  1.00  0.00     0.004 C 
BRANCH  10  11
HETATM   11  C   UNL     1     -18.555 -10.583  -4.892  1.00  0.00     0.001 C 
BRANCH  11  12
HETATM   12  C   UNL     1     -17.652 -11.195  -5.954  1.00  0.00     0.004 C 
BRANCH  12  13
HETATM   13  C   UNL     1     -16.178 -11.220  -5.512  1.00  0.00    -0.023 C 
HETATM   14  C   UNL     1     -15.323 -11.839  -6.615  1.00  0.00     0.009 C 
HETATM   15  C   UNL     1     -15.641  -9.829  -5.157  1.00  0.00     0.009 C 
ENDBRANCH  12  13
ENDBRANCH  11  12
ENDBRANCH  10  11
ENDBRANCH   8  10
ENDBRANCH   7   8
ENDBRANCH   6   7
ENDBRANCH   5   6
ENDBRANCH   3   5
ENDBRANCH   2   3
ENDBRANCH   1   2
BRANCH   1  16
HETATM   16  C   UNL     1     -21.197  -7.355  -1.729  1.00  0.00     0.000 C 
BRANCH  16  17
HETATM   17  C   UNL     1     -21.652  -6.992  -3.129  1.00  0.00     0.004 C 
BRANCH  17  18
HETATM   18  C   UNL     1     -21.123  -7.946  -4.206  1.00  0.00    -0.018 C 
HETATM   19  C   UNL     1     -21.907  -9.257  -4.221  1.00  0.00     0.010 C 
BRANCH  18  20
HETATM   20  C   UNL     1     -21.182  -7.266  -5.584  1.00  0.00     0.004 C 
BRANCH  20  21
HETATM   21  C   UNL     1     -21.570  -5.789  -5.452  1.00  0.00     0.001 C 
BRANCH  21  22
HETATM   22  C   UNL     1     -20.382  -4.860  -5.653  1.00  0.00     0.004 C 
BRANCH  22  23
HETATM   23  C   UNL     1     -20.528  -4.015  -6.938  1.00  0.00    -0.018 C 
HETATM   24  C   UNL     1     -19.498  -4.423  -7.999  1.00  0.00     0.010 C 
BRANCH  23  25
HETATM   25  C   UNL     1     -21.952  -4.122  -7.512  1.00  0.00     0.004 C 
BRANCH  25  26
HETATM   26  C   UNL     1     -21.940  -4.643  -8.950  1.00  0.00     0.001 C 
BRANCH  26  27
HETATM   27  C   UNL     1     -22.817  -3.811  -9.881  1.00  0.00     0.004 C 
BRANCH  27  28
HETATM   28  C   UNL     1     -22.231  -3.732 -11.303  1.00  0.00    -0.023 C 
HETATM   29  C   UNL     1     -22.909  -2.658 -12.156  1.00  0.00     0.009 C 
HETATM   30  C   UNL     1     -20.727  -3.472 -11.230  1.00  0.00     0.009 C 
ENDBRANCH  27  28
ENDBRANCH  26  27
ENDBRANCH  25  26
ENDBRANCH  23  25
ENDBRANCH  22  23
ENDBRANCH  21  22
ENDBRANCH  20  21
ENDBRANCH  18  20
ENDBRANCH  17  18
ENDBRANCH  16  17
ENDBRANCH   1  16
TORSDOF 21
BEGIN_RES ARG D 557
REMARK  4 active torsions:
REMARK  status: ('A' for Active; 'I' for Inactive)
REMARK    1  A    between atoms: CA   and  CB  
REMARK    2  A    between atoms: CB   and  CG  
REMARK    3  A    between atoms: CG   and  CD  
REMARK    4  A    between atoms: CD   and  NE  
REMARK       I    between atoms: NE   and  CZ  
REMARK       I    between atoms: CZ   and  NH1 
REMARK       I    between atoms: CZ   and  NH2 
ROOT
ATOM      1  CA  ARG D 557     -26.217   2.705 -17.014  1.00 35.49     0.159 C 
ENDROOT
BRANCH   1   2
ATOM      2  CB  ARG D 557     -26.789   1.319 -17.183  1.00 35.49     0.034 C 
BRANCH   2   3
ATOM      3  CG  ARG D 557     -28.192   1.131 -16.794  1.00 35.49     0.027 C 
BRANCH   3   4
ATOM      4  CD  ARG D 557     -28.732  -0.172 -17.243  1.00 35.49     0.116 C 
BRANCH   4   5
ATOM      5  NE  ARG D 557     -28.012  -1.282 -16.676  1.00 35.49    -0.212 N 
ATOM      6  CZ  ARG D 557     -28.305  -2.552 -16.840  1.00 35.49     0.666 C 
ATOM      7  NH1 ARG D 557     -29.336  -2.955 -17.559  1.00 35.49    -0.235 N 
ATOM      8  NH2 ARG D 557     -27.528  -3.426 -16.268  1.00 35.49    -0.235 N 
ATOM      9  HH  ARG D 557     -29.859  -2.398 -17.946  1.00 35.49     0.174 HD
ATOM     10  HH  ARG D 557     -29.477  -3.797 -17.633  1.00 35.49     0.174 HD
ATOM     11  HH  ARG D 557     -26.865  -3.137 -15.817  1.00 35.49     0.174 HD
ATOM     12  HH  ARG D 557     -27.683  -4.255 -16.355  1.00 35.49     0.174 HD
ATOM     13  HE  ARG D 557     -27.375  -1.112 -16.139  1.00 35.49     0.178 HD
ENDBRANCH   4   5
ENDBRANCH   3   4
ENDBRANCH   2   3
ENDBRANCH   1   2
END_RES ARG D 557
BEGIN_RES GLU D 570
REMARK  3 active torsions:
REMARK  status: ('A' for Active; 'I' for Inactive)
REMARK    5  A    between atoms: CA   and  CB  
REMARK    6  A    between atoms: CB   and  CG  
REMARK    7  A    between atoms: CG   and  CD  
ROOT
ATOM     14  CA  GLU D 570     -18.033  -6.348 -13.375  1.00 32.92     0.160 C 
ENDROOT
BRANCH  14  15
ATOM     15  CB  GLU D 570     -19.500  -6.345 -13.794  1.00 32.92     0.043 C 
BRANCH  15  16
ATOM     16  CG  GLU D 570     -19.812  -5.947 -15.191  1.00 32.92     0.100 C 
BRANCH  16  17
ATOM     17  CD  GLU D 570     -21.246  -5.505 -15.372  1.00 32.92     0.185 C 
ATOM     18  OE1 GLU D 570     -22.081  -5.786 -14.491  1.00 32.92    -0.647 OA
ATOM     19  OE2 GLU D 570     -21.540  -4.885 -16.413  1.00 32.92    -0.647 OA
ENDBRANCH  16  17
ENDBRANCH  15  16
ENDBRANCH  14  15
END_RES GLU D 570
ENDMDL
MODEL 9
REMARK VINA RESULT:      -6.7      2.044      4.140
REMARK  21 active torsions:
REMARK  status: ('A' for Active; 'I' for Inactive)
REMARK    1  A    between atoms: C_2  and  C_4 
REMARK    2  A    between atoms: C_4  and  C_5 
REMARK    3  A    between atoms: C_5  and  C_6 
REMARK    4  A    between atoms: C_6  and  C_7 
REMARK    5  A    between atoms: C_7  and  C_9 
REMARK    6  A    between atoms: C_9  and  C_10 
REMARK    7  A    between atoms: C_10  and  C_11 
REMARK    8  A    between atoms: C_11  and  C_12 
REMARK    9  A    between atoms: C_12  and  C_14 
REMARK   10  A    between atoms: C_14  and  C_15 
REMARK   11  A    between atoms: C_15  and  C_16 
REMARK   12  A    between atoms: C_16  and  C_17 
REMARK   13  A    between atoms: C_17  and  C_18 
REMARK   14  A    between atoms: C_18  and  C_20 
REMARK   15  A    between atoms: C_20  and  C_21 
REMARK   16  A    between atoms: C_21  and  C_22 
REMARK   17  A    between atoms: C_22  and  C_23 
REMARK   18  A    between atoms: C_23  and  C_25 
REMARK   19  A    between atoms: C_25  and  C_26 
REMARK   20  A    between atoms: C_26  and  C_27 
REMARK   21  A    between atoms: C_27  and  C_28 
ROOT
HETATM    1  C   UNL     1     -19.849  -9.343  -1.922  1.00  0.00     0.000 C 
ENDROOT
BRANCH   1   2
HETATM    2  C   UNL     1     -20.231  -7.883  -1.775  1.00  0.00     0.004 C 
BRANCH   2   3
HETATM    3  C   UNL     1     -21.649  -7.711  -1.228  1.00  0.00    -0.018 C 
HETATM    4  C   UNL     1     -22.285  -6.388  -1.689  1.00  0.00     0.010 C 
BRANCH   3   5
HETATM    5  C   UNL     1     -21.571  -7.826   0.303  1.00  0.00     0.004 C 
BRANCH   5   6
HETATM    6  C   UNL     1     -22.153  -9.144   0.775  1.00  0.00     0.001 C 
BRANCH   6   7
HETATM    7  C   UNL     1     -23.242  -9.679  -0.142  1.00  0.00     0.004 C 
BRANCH   7   8
HETATM    8  C   UNL     1     -22.881 -11.084  -0.656  1.00  0.00    -0.018 C 
HETATM    9  C   UNL     1     -23.276 -11.278  -2.132  1.00  0.00     0.010 C 
BRANCH   8  10
HETATM   10  C   UNL     1     -23.534 -12.137   0.256  1.00  0.00     0.004 C 
BRANCH  10  11
HETATM   11  C   UNL     1     -22.598 -13.313   0.513  1.00  0.00     0.001 C 
BRANCH  11  12
HETATM   12  C   UNL     1     -22.575 -13.738   1.974  1.00  0.00     0.004 C 
BRANCH  12  13
HETATM   13  C   UNL     1     -23.849 -14.506   2.371  1.00  0.00    -0.023 C 
HETATM   14  C   UNL     1     -24.095 -15.639   1.378  1.00  0.00     0.009 C 
HETATM   15  C   UNL     1     -23.785 -15.068   3.795  1.00  0.00     0.009 C 
ENDBRANCH  12  13
ENDBRANCH  11  12
ENDBRANCH  10  11
ENDBRANCH   8  10
ENDBRANCH   7   8
ENDBRANCH   6   7
ENDBRANCH   5   6
ENDBRANCH   3   5
ENDBRANCH   2   3
ENDBRANCH   1   2
BRANCH   1  16
HETATM   16  C   UNL     1     -18.493  -9.464  -2.592  1.00  0.00     0.000 C 
BRANCH  16  17
HETATM   17  C   UNL     1     -18.586 -10.517  -3.678  1.00  0.00     0.004 C 
BRANCH  17  18
HETATM   18  C   UNL     1     -18.932  -9.941  -5.056  1.00  0.00    -0.018 C 
HETATM   19  C   UNL     1     -18.025 -10.517  -6.143  1.00  0.00     0.010 C 
BRANCH  18  20
HETATM   20  C   UNL     1     -20.409 -10.215  -5.384  1.00  0.00     0.004 C 
BRANCH  20  21
HETATM   21  C   UNL     1     -21.244  -8.934  -5.270  1.00  0.00     0.001 C 
BRANCH  21  22
HETATM   22  C   UNL     1     -20.391  -7.679  -5.356  1.00  0.00     0.004 C 
BRANCH  22  23
HETATM   23  C   UNL     1     -21.222  -6.451  -5.788  1.00  0.00    -0.018 C 
HETATM   24  C   UNL     1     -22.620  -6.468  -5.157  1.00  0.00     0.010 C 
BRANCH  23  25
HETATM   25  C   UNL     1     -20.497  -5.140  -5.435  1.00  0.00     0.004 C 
BRANCH  25  26
HETATM   26  C   UNL     1     -20.139  -4.342  -6.690  1.00  0.00     0.001 C 
BRANCH  26  27
HETATM   27  C   UNL     1     -21.362  -3.720  -7.357  1.00  0.00     0.004 C 
BRANCH  27  28
HETATM   28  C   UNL     1     -21.353  -3.932  -8.883  1.00  0.00    -0.023 C 
HETATM   29  C   UNL     1     -20.115  -4.694  -9.360  1.00  0.00     0.009 C 
HETATM   30  C   UNL     1     -22.620  -4.669  -9.312  1.00  0.00     0.009 C 
ENDBRANCH  27  28
ENDBRANCH  26  27
ENDBRANCH  25  26
ENDBRANCH  23  25
ENDBRANCH  22  23
ENDBRANCH  21  22
ENDBRANCH  20  21
ENDBRANCH  18  20
ENDBRANCH  17  18
ENDBRANCH  16  17
ENDBRANCH   1  16
TORSDOF 21
BEGIN_RES ARG D 557
REMARK  4 active torsions:
REMARK  status: ('A' for Active; 'I' for Inactive)
REMARK    1  A    between atoms: CA   and  CB  
REMARK    2  A    between atoms: CB   and  CG  
REMARK    3  A    between atoms: CG   and  CD  
REMARK    4  A    between atoms: CD   and  NE  
REMARK       I    between atoms: NE   and  CZ  
REMARK       I    between atoms: CZ   and  NH1 
REMARK       I    between atoms: CZ   and  NH2 
ROOT
ATOM      1  CA  ARG D 557     -26.217   2.705 -17.014  1.00 35.49     0.159 C 
ENDROOT
BRANCH   1   2
ATOM      2  CB  ARG D 557     -26.789   1.319 -17.183  1.00 35.49     0.034 C 
BRANCH   2   3
ATOM      3  CG  ARG D 557     -25.932   0.197 -16.781  1.00 35.49     0.027 C 
BRANCH   3   4
ATOM      4  CD  ARG D 557     -26.683  -0.858 -16.063  1.00 35.49     0.116 C 
BRANCH   4   5
ATOM      5  NE  ARG D 557     -25.872  -1.530 -15.083  1.00 35.49    -0.212 N 
ATOM      6  CZ  ARG D 557     -25.912  -2.814 -14.803  1.00 35.49     0.666 C 
ATOM      7  NH1 ARG D 557     -26.742  -3.646 -15.404  1.00 35.49    -0.235 N 
ATOM      8  NH2 ARG D 557     -25.087  -3.257 -13.899  1.00 35.49    -0.235 N 
ATOM      9  HH  ARG D 557     -27.292  -3.376 -16.004  1.00 35.49     0.174 HD
ATOM     10  HH  ARG D 557     -26.721  -4.473 -15.182  1.00 35.49     0.174 HD
ATOM     11  HH  ARG D 557     -24.557  -2.698 -13.532  1.00 35.49     0.174 HD
ATOM     12  HH  ARG D 557     -25.081  -4.080 -13.694  1.00 35.49     0.174 HD
ATOM     13  HE  ARG D 557     -25.359  -1.058 -14.597  1.00 35.49     0.178 HD
ENDBRANCH   4   5
ENDBRANCH   3   4
ENDBRANCH   2   3
ENDBRANCH   1   2
END_RES ARG D 557
BEGIN_RES GLU D 570
REMARK  3 active torsions:
REMARK  status: ('A' for Active; 'I' for Inactive)
REMARK    5  A    between atoms: CA   and  CB  
REMARK    6  A    between atoms: CB   and  CG  
REMARK    7  A    between atoms: CG   and  CD  
ROOT
ATOM     14  CA  GLU D 570     -18.033  -6.348 -13.375  1.00 32.92     0.160 C 
ENDROOT
BRANCH  14  15
ATOM     15  CB  GLU D 570     -19.500  -6.345 -13.794  1.00 32.92     0.043 C 
BRANCH  15  16
ATOM     16  CG  GLU D 570     -20.451  -5.573 -12.952  1.00 32.92     0.100 C 
BRANCH  16  17
ATOM     17  CD  GLU D 570     -21.715  -5.195 -13.688  1.00 32.92     0.185 C 
ATOM     18  OE1 GLU D 570     -21.896  -5.626 -14.842  1.00 32.92    -0.647 OA
ATOM     19  OE2 GLU D 570     -22.526  -4.445 -13.109  1.00 32.92    -0.647 OA
ENDBRANCH  16  17
ENDBRANCH  15  16
ENDBRANCH  14  15
END_RES GLU D 570
ENDMDL
