MODEL 1
REMARK VINA RESULT:      -5.6      0.000      0.000
REMARK  2 active torsions:
REMARK  status: ('A' for Active; 'I' for Inactive)
REMARK    1  A    between atoms: C_1  and  C_2 
REMARK    2  A    between atoms: C_1  and  C_6 
ROOT
HETATM    1  C   UNL     1     -34.512  -4.402 -11.678  1.00  0.00     0.383 C 
HETATM    2  F   UNL     1     -35.782  -4.107 -11.271  1.00  0.00    -0.230 F 
ENDROOT
BRANCH   1   3
HETATM    3  C   UNL     1     -33.579  -3.283 -11.353  1.00  0.00     0.426 C 
HETATM    4  F   UNL     1     -32.297  -3.568 -11.670  1.00  0.00    -0.168 F 
HETATM    5  F   UNL     1     -33.908  -2.177 -12.067  1.00  0.00    -0.168 F 
HETATM    6  F   UNL     1     -33.606  -2.932 -10.050  1.00  0.00    -0.168 F 
ENDBRANCH   1   3
BRANCH   1   7
HETATM    7  C   UNL     1     -34.022  -5.664 -11.039  1.00  0.00     0.426 C 
HETATM    8  F   UNL     1     -34.758  -6.738 -11.395  1.00  0.00    -0.168 F 
HETATM    9  F   UNL     1     -32.735  -5.932 -11.331  1.00  0.00    -0.168 F 
HETATM   10  F   UNL     1     -34.110  -5.567  -9.693  1.00  0.00    -0.168 F 
ENDBRANCH   1   7
TORSDOF 2
BEGIN_RES ARG D 557
REMARK  4 active torsions:
REMARK  status: ('A' for Active; 'I' for Inactive)
REMARK    1  A    between atoms: CA   and  CB  
REMARK    2  A    between atoms: CB   and  CG  
REMARK    3  A    between atoms: CG   and  CD  
REMARK    4  A    between atoms: CD   and  NE  
REMARK       I    between atoms: NE   and  CZ  
REMARK       I    between atoms: CZ   and  NH1 
REMARK       I    between atoms: CZ   and  NH2 
ROOT
ATOM      1  CA  ARG D 557     -26.217   2.705 -17.014  1.00 35.49     0.159 C 
ENDROOT
BRANCH   1   2
ATOM      2  CB  ARG D 557     -26.789   1.319 -17.183  1.00 35.49     0.034 C 
BRANCH   2   3
ATOM      3  CG  ARG D 557     -25.835   0.204 -17.163  1.00 35.49     0.027 C 
BRANCH   3   4
ATOM      4  CD  ARG D 557     -24.761   0.398 -16.162  1.00 35.49     0.116 C 
BRANCH   4   5
ATOM      5  NE  ARG D 557     -24.927  -0.455 -15.016  1.00 35.49    -0.212 N 
ATOM      6  CZ  ARG D 557     -24.121  -1.431 -14.661  1.00 35.49     0.666 C 
ATOM      7  NH1 ARG D 557     -23.044  -1.749 -15.355  1.00 35.49    -0.235 N 
ATOM      8  NH2 ARG D 557     -24.415  -2.089 -13.577  1.00 35.49    -0.235 N 
ATOM      9  HH  ARG D 557     -22.830  -1.328 -16.070  1.00 35.49     0.174 HD
ATOM     10  HH  ARG D 557     -22.554  -2.393 -15.074  1.00 35.49     0.174 HD
ATOM     11  HH  ARG D 557     -25.113  -1.857 -13.145  1.00 35.49     0.174 HD
ATOM     12  HH  ARG D 557     -23.917  -2.723 -13.315  1.00 35.49     0.174 HD
ATOM     13  HE  ARG D 557     -25.634  -0.368 -14.552  1.00 35.49     0.178 HD
ENDBRANCH   4   5
ENDBRANCH   3   4
ENDBRANCH   2   3
ENDBRANCH   1   2
END_RES ARG D 557
BEGIN_RES GLU D 570
REMARK  3 active torsions:
REMARK  status: ('A' for Active; 'I' for Inactive)
REMARK    5  A    between atoms: CA   and  CB  
REMARK    6  A    between atoms: CB   and  CG  
REMARK    7  A    between atoms: CG   and  CD  
ROOT
ATOM     14  CA  GLU D 570     -18.033  -6.348 -13.375  1.00 32.92     0.160 C 
ENDROOT
BRANCH  14  15
ATOM     15  CB  GLU D 570     -19.500  -6.345 -13.794  1.00 32.92     0.043 C 
BRANCH  15  16
ATOM     16  CG  GLU D 570     -20.443  -5.538 -12.978  1.00 32.92     0.100 C 
BRANCH  16  17
ATOM     17  CD  GLU D 570     -21.637  -5.051 -13.766  1.00 32.92     0.185 C 
ATOM     18  OE1 GLU D 570     -22.361  -4.161 -13.280  1.00 32.92    -0.647 OA
ATOM     19  OE2 GLU D 570     -21.860  -5.578 -14.874  1.00 32.92    -0.647 OA
ENDBRANCH  16  17
ENDBRANCH  15  16
ENDBRANCH  14  15
END_RES GLU D 570
ENDMDL
MODEL 2
REMARK VINA RESULT:      -5.6      0.545      2.351
REMARK  2 active torsions:
REMARK  status: ('A' for Active; 'I' for Inactive)
REMARK    1  A    between atoms: C_1  and  C_2 
REMARK    2  A    between atoms: C_1  and  C_6 
ROOT
HETATM    1  C   UNL     1     -33.378  -3.791 -11.817  1.00  0.00     0.383 C 
HETATM    2  F   UNL     1     -32.042  -3.544 -11.672  1.00  0.00    -0.230 F 
ENDROOT
BRANCH   1   3
HETATM    3  C   UNL     1     -33.737  -5.114 -11.225  1.00  0.00     0.426 C 
HETATM    4  F   UNL     1     -34.773  -5.703 -11.863  1.00  0.00    -0.168 F 
HETATM    5  F   UNL     1     -32.692  -5.973 -11.330  1.00  0.00    -0.168 F 
HETATM    6  F   UNL     1     -34.056  -5.040  -9.916  1.00  0.00    -0.168 F 
ENDBRANCH   1   3
BRANCH   1   7
HETATM    7  C   UNL     1     -34.197  -2.716 -11.173  1.00  0.00     0.426 C 
HETATM    8  F   UNL     1     -35.484  -3.085 -11.006  1.00  0.00    -0.168 F 
HETATM    9  F   UNL     1     -33.716  -2.342  -9.973  1.00  0.00    -0.168 F 
HETATM   10  F   UNL     1     -34.212  -1.613 -11.955  1.00  0.00    -0.168 F 
ENDBRANCH   1   7
TORSDOF 2
BEGIN_RES ARG D 557
REMARK  4 active torsions:
REMARK  status: ('A' for Active; 'I' for Inactive)
REMARK    1  A    between atoms: CA   and  CB  
REMARK    2  A    between atoms: CB   and  CG  
REMARK    3  A    between atoms: CG   and  CD  
REMARK    4  A    between atoms: CD   and  NE  
REMARK       I    between atoms: NE   and  CZ  
REMARK       I    between atoms: CZ   and  NH1 
REMARK       I    between atoms: CZ   and  NH2 
ROOT
ATOM      1  CA  ARG D 557     -26.217   2.705 -17.014  1.00 35.49     0.159 C 
ENDROOT
BRANCH   1   2
ATOM      2  CB  ARG D 557     -26.789   1.319 -17.183  1.00 35.49     0.034 C 
BRANCH   2   3
ATOM      3  CG  ARG D 557     -25.836   0.203 -17.155  1.00 35.49     0.027 C 
BRANCH   3   4
ATOM      4  CD  ARG D 557     -24.766   0.400 -16.150  1.00 35.49     0.116 C 
BRANCH   4   5
ATOM      5  NE  ARG D 557     -24.931  -0.458 -15.006  1.00 35.49    -0.212 N 
ATOM      6  CZ  ARG D 557     -24.123  -1.433 -14.655  1.00 35.49     0.666 C 
ATOM      7  NH1 ARG D 557     -23.045  -1.746 -15.350  1.00 35.49    -0.235 N 
ATOM      8  NH2 ARG D 557     -24.416  -2.095 -13.574  1.00 35.49    -0.235 N 
ATOM      9  HH  ARG D 557     -22.831  -1.322 -16.063  1.00 35.49     0.174 HD
ATOM     10  HH  ARG D 557     -22.553  -2.390 -15.071  1.00 35.49     0.174 HD
ATOM     11  HH  ARG D 557     -25.115  -1.866 -13.141  1.00 35.49     0.174 HD
ATOM     12  HH  ARG D 557     -23.917  -2.729 -13.313  1.00 35.49     0.174 HD
ATOM     13  HE  ARG D 557     -25.639  -0.374 -14.543  1.00 35.49     0.178 HD
ENDBRANCH   4   5
ENDBRANCH   3   4
ENDBRANCH   2   3
ENDBRANCH   1   2
END_RES ARG D 557
BEGIN_RES GLU D 570
REMARK  3 active torsions:
REMARK  status: ('A' for Active; 'I' for Inactive)
REMARK    5  A    between atoms: CA   and  CB  
REMARK    6  A    between atoms: CB   and  CG  
REMARK    7  A    between atoms: CG   and  CD  
ROOT
ATOM     14  CA  GLU D 570     -18.033  -6.348 -13.375  1.00 32.92     0.160 C 
ENDROOT
BRANCH  14  15
ATOM     15  CB  GLU D 570     -19.500  -6.345 -13.794  1.00 32.92     0.043 C 
BRANCH  15  16
ATOM     16  CG  GLU D 570     -20.443  -5.537 -12.978  1.00 32.92     0.100 C 
BRANCH  16  17
ATOM     17  CD  GLU D 570     -21.612  -5.011 -13.778  1.00 32.92     0.185 C 
ATOM     18  OE1 GLU D 570     -22.361  -4.158 -13.264  1.00 32.92    -0.647 OA
ATOM     19  OE2 GLU D 570     -21.791  -5.469 -14.924  1.00 32.92    -0.647 OA
ENDBRANCH  16  17
ENDBRANCH  15  16
ENDBRANCH  14  15
END_RES GLU D 570
ENDMDL
MODEL 3
REMARK VINA RESULT:      -5.4      2.399      3.666
REMARK  2 active torsions:
REMARK  status: ('A' for Active; 'I' for Inactive)
REMARK    1  A    between atoms: C_1  and  C_2 
REMARK    2  A    between atoms: C_1  and  C_6 
ROOT
HETATM    1  C   UNL     1     -33.341  -3.932 -11.856  1.00  0.00     0.383 C 
HETATM    2  F   UNL     1     -32.012  -3.661 -11.693  1.00  0.00    -0.230 F 
ENDROOT
BRANCH   1   3
HETATM    3  C   UNL     1     -33.695  -5.237 -11.224  1.00  0.00     0.426 C 
HETATM    4  F   UNL     1     -34.717  -5.858 -11.855  1.00  0.00    -0.168 F 
HETATM    5  F   UNL     1     -32.641  -6.089 -11.286  1.00  0.00    -0.168 F 
HETATM    6  F   UNL     1     -34.032  -5.122  -9.923  1.00  0.00    -0.168 F 
ENDBRANCH   1   3
BRANCH   1   7
HETATM    7  C   UNL     1     -34.187  -2.846 -11.269  1.00  0.00     0.426 C 
HETATM    8  F   UNL     1     -35.475  -3.222 -11.126  1.00  0.00    -0.168 F 
HETATM    9  F   UNL     1     -33.744  -2.430 -10.068  1.00  0.00    -0.168 F 
HETATM   10  F   UNL     1     -34.191  -1.768 -12.084  1.00  0.00    -0.168 F 
ENDBRANCH   1   7
TORSDOF 2
BEGIN_RES ARG D 557
REMARK  4 active torsions:
REMARK  status: ('A' for Active; 'I' for Inactive)
REMARK    1  A    between atoms: CA   and  CB  
REMARK    2  A    between atoms: CB   and  CG  
REMARK    3  A    between atoms: CG   and  CD  
REMARK    4  A    between atoms: CD   and  NE  
REMARK       I    between atoms: NE   and  CZ  
REMARK       I    between atoms: CZ   and  NH1 
REMARK       I    between atoms: CZ   and  NH2 
ROOT
ATOM      1  CA  ARG D 557     -26.217   2.705 -17.014  1.00 35.49     0.159 C 
ENDROOT
BRANCH   1   2
ATOM      2  CB  ARG D 557     -26.789   1.319 -17.183  1.00 35.49     0.034 C 
BRANCH   2   3
ATOM      3  CG  ARG D 557     -28.231   1.226 -17.441  1.00 35.49     0.027 C 
BRANCH   3   4
ATOM      4  CD  ARG D 557     -28.914   0.304 -16.505  1.00 35.49     0.116 C 
BRANCH   4   5
ATOM      5  NE  ARG D 557     -29.307  -0.924 -17.144  1.00 35.49    -0.212 N 
ATOM      6  CZ  ARG D 557     -28.687  -2.078 -17.039  1.00 35.49     0.666 C 
ATOM      7  NH1 ARG D 557     -27.590  -2.230 -16.320  1.00 35.49    -0.235 N 
ATOM      8  NH2 ARG D 557     -29.198  -3.094 -17.671  1.00 35.49    -0.235 N 
ATOM      9  HH  ARG D 557     -27.238  -1.575 -15.894  1.00 35.49     0.174 HD
ATOM     10  HH  ARG D 557     -27.230  -3.007 -16.286  1.00 35.49     0.174 HD
ATOM     11  HH  ARG D 557     -29.911  -2.968 -18.121  1.00 35.49     0.174 HD
ATOM     12  HH  ARG D 557     -28.828  -3.855 -17.624  1.00 35.49     0.174 HD
ATOM     13  HE  ARG D 557     -29.963  -0.900 -17.685  1.00 35.49     0.178 HD
ENDBRANCH   4   5
ENDBRANCH   3   4
ENDBRANCH   2   3
ENDBRANCH   1   2
END_RES ARG D 557
BEGIN_RES GLU D 570
REMARK  3 active torsions:
REMARK  status: ('A' for Active; 'I' for Inactive)
REMARK    5  A    between atoms: CA   and  CB  
REMARK    6  A    between atoms: CB   and  CG  
REMARK    7  A    between atoms: CG   and  CD  
ROOT
ATOM     14  CA  GLU D 570     -18.033  -6.348 -13.375  1.00 32.92     0.160 C 
ENDROOT
BRANCH  14  15
ATOM     15  CB  GLU D 570     -19.500  -6.345 -13.794  1.00 32.92     0.043 C 
BRANCH  15  16
ATOM     16  CG  GLU D 570     -19.805  -6.050 -15.218  1.00 32.92     0.100 C 
BRANCH  16  17
ATOM     17  CD  GLU D 570     -21.132  -5.353 -15.404  1.00 32.92     0.185 C 
ATOM     18  OE1 GLU D 570     -21.509  -5.067 -16.557  1.00 32.92    -0.647 OA
ATOM     19  OE2 GLU D 570     -21.795  -5.075 -14.385  1.00 32.92    -0.647 OA
ENDBRANCH  16  17
ENDBRANCH  15  16
ENDBRANCH  14  15
END_RES GLU D 570
ENDMDL
MODEL 4
REMARK VINA RESULT:      -5.3      8.034      9.353
REMARK  2 active torsions:
REMARK  status: ('A' for Active; 'I' for Inactive)
REMARK    1  A    between atoms: C_1  and  C_2 
REMARK    2  A    between atoms: C_1  and  C_6 
ROOT
HETATM    1  C   UNL     1     -20.532  -4.048  -9.151  1.00  0.00     0.383 C 
HETATM    2  F   UNL     1     -19.831  -5.030  -9.791  1.00  0.00    -0.230 F 
ENDROOT
BRANCH   1   3
HETATM    3  C   UNL     1     -21.856  -3.831  -9.806  1.00  0.00     0.426 C 
HETATM    4  F   UNL     1     -22.758  -3.262  -8.977  1.00  0.00    -0.168 F 
HETATM    5  F   UNL     1     -21.724  -2.986 -10.859  1.00  0.00    -0.168 F 
HETATM    6  F   UNL     1     -22.404  -4.969 -10.282  1.00  0.00    -0.168 F 
ENDBRANCH   1   3
BRANCH   1   7
HETATM    7  C   UNL     1     -20.738  -4.386  -7.708  1.00  0.00     0.426 C 
HETATM    8  F   UNL     1     -21.136  -3.319  -6.983  1.00  0.00    -0.168 F 
HETATM    9  F   UNL     1     -21.641  -5.368  -7.525  1.00  0.00    -0.168 F 
HETATM   10  F   UNL     1     -19.577  -4.810  -7.160  1.00  0.00    -0.168 F 
ENDBRANCH   1   7
TORSDOF 2
BEGIN_RES ARG D 557
REMARK  4 active torsions:
REMARK  status: ('A' for Active; 'I' for Inactive)
REMARK    1  A    between atoms: CA   and  CB  
REMARK    2  A    between atoms: CB   and  CG  
REMARK    3  A    between atoms: CG   and  CD  
REMARK    4  A    between atoms: CD   and  NE  
REMARK       I    between atoms: NE   and  CZ  
REMARK       I    between atoms: CZ   and  NH1 
REMARK       I    between atoms: CZ   and  NH2 
ROOT
ATOM      1  CA  ARG D 557     -26.217   2.705 -17.014  1.00 35.49     0.159 C 
ENDROOT
BRANCH   1   2
ATOM      2  CB  ARG D 557     -26.789   1.319 -17.183  1.00 35.49     0.034 C 
BRANCH   2   3
ATOM      3  CG  ARG D 557     -25.836   0.203 -17.153  1.00 35.49     0.027 C 
BRANCH   3   4
ATOM      4  CD  ARG D 557     -24.749   0.415 -16.171  1.00 35.49     0.116 C 
BRANCH   4   5
ATOM      5  NE  ARG D 557     -24.890  -0.429 -15.014  1.00 35.49    -0.212 N 
ATOM      6  CZ  ARG D 557     -24.078  -1.404 -14.670  1.00 35.49     0.666 C 
ATOM      7  NH1 ARG D 557     -23.017  -1.728 -15.386  1.00 35.49    -0.235 N 
ATOM      8  NH2 ARG D 557     -24.349  -2.053 -13.576  1.00 35.49    -0.235 N 
ATOM      9  HH  ARG D 557     -22.818  -1.312 -16.108  1.00 35.49     0.174 HD
ATOM     10  HH  ARG D 557     -22.521  -2.370 -15.111  1.00 35.49     0.174 HD
ATOM     11  HH  ARG D 557     -25.036  -1.817 -13.130  1.00 35.49     0.174 HD
ATOM     12  HH  ARG D 557     -23.845  -2.685 -13.319  1.00 35.49     0.174 HD
ATOM     13  HE  ARG D 557     -25.587  -0.338 -14.536  1.00 35.49     0.178 HD
ENDBRANCH   4   5
ENDBRANCH   3   4
ENDBRANCH   2   3
ENDBRANCH   1   2
END_RES ARG D 557
BEGIN_RES GLU D 570
REMARK  3 active torsions:
REMARK  status: ('A' for Active; 'I' for Inactive)
REMARK    5  A    between atoms: CA   and  CB  
REMARK    6  A    between atoms: CB   and  CG  
REMARK    7  A    between atoms: CG   and  CD  
ROOT
ATOM     14  CA  GLU D 570     -18.033  -6.348 -13.375  1.00 32.92     0.160 C 
ENDROOT
BRANCH  14  15
ATOM     15  CB  GLU D 570     -19.500  -6.345 -13.794  1.00 32.92     0.043 C 
BRANCH  15  16
ATOM     16  CG  GLU D 570     -20.433  -5.492 -13.013  1.00 32.92     0.100 C 
BRANCH  16  17
ATOM     17  CD  GLU D 570     -21.754  -5.271 -13.712  1.00 32.92     0.185 C 
ATOM     18  OE1 GLU D 570     -22.240  -6.193 -14.395  1.00 32.92    -0.647 OA
ATOM     19  OE2 GLU D 570     -22.301  -4.157 -13.590  1.00 32.92    -0.647 OA
ENDBRANCH  16  17
ENDBRANCH  15  16
ENDBRANCH  14  15
END_RES GLU D 570
ENDMDL
MODEL 5
REMARK VINA RESULT:      -5.3      7.973      9.349
REMARK  2 active torsions:
REMARK  status: ('A' for Active; 'I' for Inactive)
REMARK    1  A    between atoms: C_1  and  C_2 
REMARK    2  A    between atoms: C_1  and  C_6 
ROOT
HETATM    1  C   UNL     1     -21.872  -4.001  -9.141  1.00  0.00     0.383 C 
HETATM    2  F   UNL     1     -22.530  -4.993  -9.811  1.00  0.00    -0.230 F 
ENDROOT
BRANCH   1   3
HETATM    3  C   UNL     1     -22.031  -4.165  -7.665  1.00  0.00     0.426 C 
HETATM    4  F   UNL     1     -23.321  -4.324  -7.298  1.00  0.00    -0.168 F 
HETATM    5  F   UNL     1     -21.379  -5.278  -7.246  1.00  0.00    -0.168 F 
HETATM    6  F   UNL     1     -21.533  -3.128  -6.960  1.00  0.00    -0.168 F 
ENDBRANCH   1   3
BRANCH   1   7
HETATM    7  C   UNL     1     -20.416  -3.991  -9.488  1.00  0.00     0.426 C 
HETATM    8  F   UNL     1     -20.165  -3.297 -10.619  1.00  0.00    -0.168 F 
HETATM    9  F   UNL     1     -19.649  -3.474  -8.510  1.00  0.00    -0.168 F 
HETATM   10  F   UNL     1     -19.982  -5.252  -9.708  1.00  0.00    -0.168 F 
ENDBRANCH   1   7
TORSDOF 2
BEGIN_RES ARG D 557
REMARK  4 active torsions:
REMARK  status: ('A' for Active; 'I' for Inactive)
REMARK    1  A    between atoms: CA   and  CB  
REMARK    2  A    between atoms: CB   and  CG  
REMARK    3  A    between atoms: CG   and  CD  
REMARK    4  A    between atoms: CD   and  NE  
REMARK       I    between atoms: NE   and  CZ  
REMARK       I    between atoms: CZ   and  NH1 
REMARK       I    between atoms: CZ   and  NH2 
ROOT
ATOM      1  CA  ARG D 557     -26.217   2.705 -17.014  1.00 35.49     0.159 C 
ENDROOT
BRANCH   1   2
ATOM      2  CB  ARG D 557     -26.789   1.319 -17.183  1.00 35.49     0.034 C 
BRANCH   2   3
ATOM      3  CG  ARG D 557     -25.835   0.203 -17.159  1.00 35.49     0.027 C 
BRANCH   3   4
ATOM      4  CD  ARG D 557     -24.756   0.405 -16.166  1.00 35.49     0.116 C 
BRANCH   4   5
ATOM      5  NE  ARG D 557     -24.911  -0.446 -15.016  1.00 35.49    -0.212 N 
ATOM      6  CZ  ARG D 557     -24.096  -1.415 -14.662  1.00 35.49     0.666 C 
ATOM      7  NH1 ARG D 557     -23.019  -1.726 -15.359  1.00 35.49    -0.235 N 
ATOM      8  NH2 ARG D 557     -24.381  -2.072 -13.575  1.00 35.49    -0.235 N 
ATOM      9  HH  ARG D 557     -22.811  -1.306 -16.076  1.00 35.49     0.174 HD
ATOM     10  HH  ARG D 557     -22.523  -2.366 -15.078  1.00 35.49     0.174 HD
ATOM     11  HH  ARG D 557     -25.079  -1.844 -13.141  1.00 35.49     0.174 HD
ATOM     12  HH  ARG D 557     -23.877  -2.701 -13.312  1.00 35.49     0.174 HD
ATOM     13  HE  ARG D 557     -25.617  -0.363 -14.550  1.00 35.49     0.178 HD
ENDBRANCH   4   5
ENDBRANCH   3   4
ENDBRANCH   2   3
ENDBRANCH   1   2
END_RES ARG D 557
BEGIN_RES GLU D 570
REMARK  3 active torsions:
REMARK  status: ('A' for Active; 'I' for Inactive)
REMARK    5  A    between atoms: CA   and  CB  
REMARK    6  A    between atoms: CB   and  CG  
REMARK    7  A    between atoms: CG   and  CD  
ROOT
ATOM     14  CA  GLU D 570     -18.033  -6.348 -13.375  1.00 32.92     0.160 C 
ENDROOT
BRANCH  14  15
ATOM     15  CB  GLU D 570     -19.500  -6.345 -13.794  1.00 32.92     0.043 C 
BRANCH  15  16
ATOM     16  CG  GLU D 570     -20.449  -5.567 -12.957  1.00 32.92     0.100 C 
BRANCH  16  17
ATOM     17  CD  GLU D 570     -21.714  -5.193 -13.694  1.00 32.92     0.185 C 
ATOM     18  OE1 GLU D 570     -22.138  -5.946 -14.591  1.00 32.92    -0.647 OA
ATOM     19  OE2 GLU D 570     -22.279  -4.126 -13.382  1.00 32.92    -0.647 OA
ENDBRANCH  16  17
ENDBRANCH  15  16
ENDBRANCH  14  15
END_RES GLU D 570
ENDMDL
MODEL 6
REMARK VINA RESULT:      -5.3      7.459      8.975
REMARK  2 active torsions:
REMARK  status: ('A' for Active; 'I' for Inactive)
REMARK    1  A    between atoms: C_1  and  C_2 
REMARK    2  A    between atoms: C_1  and  C_6 
ROOT
HETATM    1  C   UNL     1     -21.891  -3.740  -8.229  1.00  0.00     0.383 C 
HETATM    2  F   UNL     1     -22.617  -4.149  -7.147  1.00  0.00    -0.230 F 
ENDROOT
BRANCH   1   3
HETATM    3  C   UNL     1     -20.647  -4.554  -8.368  1.00  0.00     0.426 C 
HETATM    4  F   UNL     1     -20.173  -4.566  -9.633  1.00  0.00    -0.168 F 
HETATM    5  F   UNL     1     -19.658  -4.033  -7.600  1.00  0.00    -0.168 F 
HETATM    6  F   UNL     1     -20.808  -5.838  -7.984  1.00  0.00    -0.168 F 
ENDBRANCH   1   3
BRANCH   1   7
HETATM    7  C   UNL     1     -22.696  -3.840  -9.487  1.00  0.00     0.426 C 
HETATM    8  F   UNL     1     -22.188  -3.082 -10.482  1.00  0.00    -0.168 F 
HETATM    9  F   UNL     1     -22.800  -5.102  -9.942  1.00  0.00    -0.168 F 
HETATM   10  F   UNL     1     -23.954  -3.393  -9.269  1.00  0.00    -0.168 F 
ENDBRANCH   1   7
TORSDOF 2
BEGIN_RES ARG D 557
REMARK  4 active torsions:
REMARK  status: ('A' for Active; 'I' for Inactive)
REMARK    1  A    between atoms: CA   and  CB  
REMARK    2  A    between atoms: CB   and  CG  
REMARK    3  A    between atoms: CG   and  CD  
REMARK    4  A    between atoms: CD   and  NE  
REMARK       I    between atoms: NE   and  CZ  
REMARK       I    between atoms: CZ   and  NH1 
REMARK       I    between atoms: CZ   and  NH2 
ROOT
ATOM      1  CA  ARG D 557     -26.217   2.705 -17.014  1.00 35.49     0.159 C 
ENDROOT
BRANCH   1   2
ATOM      2  CB  ARG D 557     -26.789   1.319 -17.183  1.00 35.49     0.034 C 
BRANCH   2   3
ATOM      3  CG  ARG D 557     -25.835   0.203 -17.160  1.00 35.49     0.027 C 
BRANCH   3   4
ATOM      4  CD  ARG D 557     -24.747   0.411 -16.177  1.00 35.49     0.116 C 
BRANCH   4   5
ATOM      5  NE  ARG D 557     -24.893  -0.434 -15.021  1.00 35.49    -0.212 N 
ATOM      6  CZ  ARG D 557     -24.079  -1.405 -14.672  1.00 35.49     0.666 C 
ATOM      7  NH1 ARG D 557     -23.013  -1.726 -15.381  1.00 35.49    -0.235 N 
ATOM      8  NH2 ARG D 557     -24.354  -2.055 -13.579  1.00 35.49    -0.235 N 
ATOM      9  HH  ARG D 557     -22.811  -1.310 -16.103  1.00 35.49     0.174 HD
ATOM     10  HH  ARG D 557     -22.517  -2.367 -15.103  1.00 35.49     0.174 HD
ATOM     11  HH  ARG D 557     -25.045  -1.822 -13.138  1.00 35.49     0.174 HD
ATOM     12  HH  ARG D 557     -23.850  -2.686 -13.320  1.00 35.49     0.174 HD
ATOM     13  HE  ARG D 557     -25.593  -0.345 -14.547  1.00 35.49     0.178 HD
ENDBRANCH   4   5
ENDBRANCH   3   4
ENDBRANCH   2   3
ENDBRANCH   1   2
END_RES ARG D 557
BEGIN_RES GLU D 570
REMARK  3 active torsions:
REMARK  status: ('A' for Active; 'I' for Inactive)
REMARK    5  A    between atoms: CA   and  CB  
REMARK    6  A    between atoms: CB   and  CG  
REMARK    7  A    between atoms: CG   and  CD  
ROOT
ATOM     14  CA  GLU D 570     -18.033  -6.348 -13.375  1.00 32.92     0.160 C 
ENDROOT
BRANCH  14  15
ATOM     15  CB  GLU D 570     -19.500  -6.345 -13.794  1.00 32.92     0.043 C 
BRANCH  15  16
ATOM     16  CG  GLU D 570     -20.444  -5.540 -12.976  1.00 32.92     0.100 C 
BRANCH  16  17
ATOM     17  CD  GLU D 570     -21.743  -5.249 -13.691  1.00 32.92     0.185 C 
ATOM     18  OE1 GLU D 570     -22.318  -4.164 -13.484  1.00 32.92    -0.647 OA
ATOM     19  OE2 GLU D 570     -22.199  -6.124 -14.454  1.00 32.92    -0.647 OA
ENDBRANCH  16  17
ENDBRANCH  15  16
ENDBRANCH  14  15
END_RES GLU D 570
ENDMDL
MODEL 7
REMARK VINA RESULT:      -5.2      6.520      7.749
REMARK  2 active torsions:
REMARK  status: ('A' for Active; 'I' for Inactive)
REMARK    1  A    between atoms: C_1  and  C_2 
REMARK    2  A    between atoms: C_1  and  C_6 
ROOT
HETATM    1  C   UNL     1     -23.888  -3.283 -11.406  1.00  0.00     0.383 C 
HETATM    2  F   UNL     1     -24.983  -3.070 -12.193  1.00  0.00    -0.230 F 
ENDROOT
BRANCH   1   3
HETATM    3  C   UNL     1     -24.297  -3.743 -10.046  1.00  0.00     0.426 C 
HETATM    4  F   UNL     1     -23.377  -3.449  -9.101  1.00  0.00    -0.168 F 
HETATM    5  F   UNL     1     -25.441  -3.120  -9.665  1.00  0.00    -0.168 F 
HETATM    6  F   UNL     1     -24.533  -5.070  -9.983  1.00  0.00    -0.168 F 
ENDBRANCH   1   3
BRANCH   1   7
HETATM    7  C   UNL     1     -22.972  -4.294 -12.021  1.00  0.00     0.426 C 
HETATM    8  F   UNL     1     -22.040  -4.738 -11.150  1.00  0.00    -0.168 F 
HETATM    9  F   UNL     1     -23.626  -5.367 -12.504  1.00  0.00    -0.168 F 
HETATM   10  F   UNL     1     -22.298  -3.742 -13.055  1.00  0.00    -0.168 F 
ENDBRANCH   1   7
TORSDOF 2
BEGIN_RES ARG D 557
REMARK  4 active torsions:
REMARK  status: ('A' for Active; 'I' for Inactive)
REMARK    1  A    between atoms: CA   and  CB  
REMARK    2  A    between atoms: CB   and  CG  
REMARK    3  A    between atoms: CG   and  CD  
REMARK    4  A    between atoms: CD   and  NE  
REMARK       I    between atoms: NE   and  CZ  
REMARK       I    between atoms: CZ   and  NH1 
REMARK       I    between atoms: CZ   and  NH2 
ROOT
ATOM      1  CA  ARG D 557     -26.217   2.705 -17.014  1.00 35.49     0.159 C 
ENDROOT
BRANCH   1   2
ATOM      2  CB  ARG D 557     -26.789   1.319 -17.183  1.00 35.49     0.034 C 
BRANCH   2   3
ATOM      3  CG  ARG D 557     -28.218   1.154 -16.891  1.00 35.49     0.027 C 
BRANCH   3   4
ATOM      4  CD  ARG D 557     -28.592  -0.264 -16.683  1.00 35.49     0.116 C 
BRANCH   4   5
ATOM      5  NE  ARG D 557     -27.579  -0.992 -15.964  1.00 35.49    -0.212 N 
ATOM      6  CZ  ARG D 557     -27.373  -2.288 -16.029  1.00 35.49     0.666 C 
ATOM      7  NH1 ARG D 557     -28.110  -3.087 -16.778  1.00 35.49    -0.235 N 
ATOM      8  NH2 ARG D 557     -26.395  -2.776 -15.323  1.00 35.49    -0.235 N 
ATOM      9  HH  ARG D 557     -28.758  -2.787 -17.253  1.00 35.49     0.174 HD
ATOM     10  HH  ARG D 557     -27.927  -3.924 -16.783  1.00 35.49     0.174 HD
ATOM     11  HH  ARG D 557     -25.931  -2.235 -14.855  1.00 35.49     0.174 HD
ATOM     12  HH  ARG D 557     -26.228  -3.607 -15.343  1.00 35.49     0.174 HD
ATOM     13  HE  ARG D 557     -27.105  -0.565 -15.401  1.00 35.49     0.178 HD
ENDBRANCH   4   5
ENDBRANCH   3   4
ENDBRANCH   2   3
ENDBRANCH   1   2
END_RES ARG D 557
BEGIN_RES GLU D 570
REMARK  3 active torsions:
REMARK  status: ('A' for Active; 'I' for Inactive)
REMARK    5  A    between atoms: CA   and  CB  
REMARK    6  A    between atoms: CB   and  CG  
REMARK    7  A    between atoms: CG   and  CD  
ROOT
ATOM     14  CA  GLU D 570     -18.033  -6.348 -13.375  1.00 32.92     0.160 C 
ENDROOT
BRANCH  14  15
ATOM     15  CB  GLU D 570     -19.500  -6.345 -13.794  1.00 32.92     0.043 C 
BRANCH  15  16
ATOM     16  CG  GLU D 570     -19.807  -6.015 -15.210  1.00 32.92     0.100 C 
BRANCH  16  17
ATOM     17  CD  GLU D 570     -21.277  -5.761 -15.451  1.00 32.92     0.185 C 
ATOM     18  OE1 GLU D 570     -21.620  -4.736 -16.070  1.00 32.92    -0.647 OA
ATOM     19  OE2 GLU D 570     -22.094  -6.587 -15.000  1.00 32.92    -0.647 OA
ENDBRANCH  16  17
ENDBRANCH  15  16
ENDBRANCH  14  15
END_RES GLU D 570
ENDMDL
MODEL 8
REMARK VINA RESULT:      -5.1      7.340      8.535
REMARK  2 active torsions:
REMARK  status: ('A' for Active; 'I' for Inactive)
REMARK    1  A    between atoms: C_1  and  C_2 
REMARK    2  A    between atoms: C_1  and  C_6 
ROOT
HETATM    1  C   UNL     1     -21.930  -4.369  -9.879  1.00  0.00     0.383 C 
HETATM    2  F   UNL     1     -21.369  -3.628  -8.878  1.00  0.00    -0.230 F 
ENDROOT
BRANCH   1   3
HETATM    3  C   UNL     1     -23.411  -4.182  -9.907  1.00  0.00     0.426 C 
HETATM    4  F   UNL     1     -23.783  -3.093 -10.614  1.00  0.00    -0.168 F 
HETATM    5  F   UNL     1     -24.005  -5.243 -10.509  1.00  0.00    -0.168 F 
HETATM    6  F   UNL     1     -23.955  -4.073  -8.677  1.00  0.00    -0.168 F 
ENDBRANCH   1   3
BRANCH   1   7
HETATM    7  C   UNL     1     -21.354  -3.998 -11.210  1.00  0.00     0.426 C 
HETATM    8  F   UNL     1     -20.048  -4.321 -11.311  1.00  0.00    -0.168 F 
HETATM    9  F   UNL     1     -22.002  -4.577 -12.239  1.00  0.00    -0.168 F 
HETATM   10  F   UNL     1     -21.433  -2.661 -11.395  1.00  0.00    -0.168 F 
ENDBRANCH   1   7
TORSDOF 2
BEGIN_RES ARG D 557
REMARK  4 active torsions:
REMARK  status: ('A' for Active; 'I' for Inactive)
REMARK    1  A    between atoms: CA   and  CB  
REMARK    2  A    between atoms: CB   and  CG  
REMARK    3  A    between atoms: CG   and  CD  
REMARK    4  A    between atoms: CD   and  NE  
REMARK       I    between atoms: NE   and  CZ  
REMARK       I    between atoms: CZ   and  NH1 
REMARK       I    between atoms: CZ   and  NH2 
ROOT
ATOM      1  CA  ARG D 557     -26.217   2.705 -17.014  1.00 35.49     0.159 C 
ENDROOT
BRANCH   1   2
ATOM      2  CB  ARG D 557     -26.789   1.319 -17.183  1.00 35.49     0.034 C 
BRANCH   2   3
ATOM      3  CG  ARG D 557     -25.840   0.201 -17.122  1.00 35.49     0.027 C 
BRANCH   3   4
ATOM      4  CD  ARG D 557     -24.749   0.439 -16.150  1.00 35.49     0.116 C 
BRANCH   4   5
ATOM      5  NE  ARG D 557     -24.838  -0.433 -15.009  1.00 35.49    -0.212 N 
ATOM      6  CZ  ARG D 557     -23.993  -1.394 -14.709  1.00 35.49     0.666 C 
ATOM      7  NH1 ARG D 557     -22.945  -1.677 -15.460  1.00 35.49    -0.235 N 
ATOM      8  NH2 ARG D 557     -24.218  -2.074 -13.622  1.00 35.49    -0.235 N 
ATOM      9  HH  ARG D 557     -22.776  -1.241 -16.178  1.00 35.49     0.174 HD
ATOM     10  HH  ARG D 557     -22.426  -2.313 -15.213  1.00 35.49     0.174 HD
ATOM     11  HH  ARG D 557     -24.899  -1.864 -13.153  1.00 35.49     0.174 HD
ATOM     12  HH  ARG D 557     -23.693  -2.699 -13.393  1.00 35.49     0.174 HD
ATOM     13  HE  ARG D 557     -25.524  -0.369 -14.510  1.00 35.49     0.178 HD
ENDBRANCH   4   5
ENDBRANCH   3   4
ENDBRANCH   2   3
ENDBRANCH   1   2
END_RES ARG D 557
BEGIN_RES GLU D 570
REMARK  3 active torsions:
REMARK  status: ('A' for Active; 'I' for Inactive)
REMARK    5  A    between atoms: CA   and  CB  
REMARK    6  A    between atoms: CB   and  CG  
REMARK    7  A    between atoms: CG   and  CD  
ROOT
ATOM     14  CA  GLU D 570     -18.033  -6.348 -13.375  1.00 32.92     0.160 C 
ENDROOT
BRANCH  14  15
ATOM     15  CB  GLU D 570     -19.500  -6.345 -13.794  1.00 32.92     0.043 C 
BRANCH  15  16
ATOM     16  CG  GLU D 570     -19.824  -5.827 -15.148  1.00 32.92     0.100 C 
BRANCH  16  17
ATOM     17  CD  GLU D 570     -21.306  -5.630 -15.365  1.00 32.92     0.185 C 
ATOM     18  OE1 GLU D 570     -22.073  -6.602 -15.225  1.00 32.92    -0.647 OA
ATOM     19  OE2 GLU D 570     -21.704  -4.495 -15.695  1.00 32.92    -0.647 OA
ENDBRANCH  16  17
ENDBRANCH  15  16
ENDBRANCH  14  15
END_RES GLU D 570
ENDMDL
MODEL 9
REMARK VINA RESULT:      -4.9      5.326      6.236
REMARK  2 active torsions:
REMARK  status: ('A' for Active; 'I' for Inactive)
REMARK    1  A    between atoms: C_1  and  C_2 
REMARK    2  A    between atoms: C_1  and  C_6 
ROOT
HETATM    1  C   UNL     1     -29.445  -5.063 -17.691  1.00  0.00     0.383 C 
HETATM    2  F   UNL     1     -29.455  -4.378 -18.872  1.00  0.00    -0.230 F 
ENDROOT
BRANCH   1   3
HETATM    3  C   UNL     1     -29.353  -6.533 -17.934  1.00  0.00     0.426 C 
HETATM    4  F   UNL     1     -30.518  -7.060 -18.370  1.00  0.00    -0.168 F 
HETATM    5  F   UNL     1     -28.436  -6.791 -18.900  1.00  0.00    -0.168 F 
HETATM    6  F   UNL     1     -28.977  -7.229 -16.840  1.00  0.00    -0.168 F 
ENDBRANCH   1   3
BRANCH   1   7
HETATM    7  C   UNL     1     -28.304  -4.627 -16.826  1.00  0.00     0.426 C 
HETATM    8  F   UNL     1     -28.528  -4.876 -15.518  1.00  0.00    -0.168 F 
HETATM    9  F   UNL     1     -27.139  -5.212 -17.162  1.00  0.00    -0.168 F 
HETATM   10  F   UNL     1     -28.122  -3.292 -16.935  1.00  0.00    -0.168 F 
ENDBRANCH   1   7
TORSDOF 2
BEGIN_RES ARG D 557
REMARK  4 active torsions:
REMARK  status: ('A' for Active; 'I' for Inactive)
REMARK    1  A    between atoms: CA   and  CB  
REMARK    2  A    between atoms: CB   and  CG  
REMARK    3  A    between atoms: CG   and  CD  
REMARK    4  A    between atoms: CD   and  NE  
REMARK       I    between atoms: NE   and  CZ  
REMARK       I    between atoms: CZ   and  NH1 
REMARK       I    between atoms: CZ   and  NH2 
ROOT
ATOM      1  CA  ARG D 557     -26.217   2.705 -17.014  1.00 35.49     0.159 C 
ENDROOT
BRANCH   1   2
ATOM      2  CB  ARG D 557     -26.789   1.319 -17.183  1.00 35.49     0.034 C 
BRANCH   2   3
ATOM      3  CG  ARG D 557     -25.866   0.195 -16.985  1.00 35.49     0.027 C 
BRANCH   3   4
ATOM      4  CD  ARG D 557     -26.306  -0.711 -15.899  1.00 35.49     0.116 C 
BRANCH   4   5
ATOM      5  NE  ARG D 557     -25.269  -0.937 -14.927  1.00 35.49    -0.212 N 
ATOM      6  CZ  ARG D 557     -24.984  -2.088 -14.360  1.00 35.49     0.666 C 
ATOM      7  NH1 ARG D 557     -25.655  -3.193 -14.625  1.00 35.49    -0.235 N 
ATOM      8  NH2 ARG D 557     -23.995  -2.112 -13.515  1.00 35.49    -0.235 N 
ATOM      9  HH  ARG D 557     -26.309  -3.201 -15.179  1.00 35.49     0.174 HD
ATOM     10  HH  ARG D 557     -25.423  -3.916 -14.226  1.00 35.49     0.174 HD
ATOM     11  HH  ARG D 557     -23.574  -1.384 -13.370  1.00 35.49     0.174 HD
ATOM     12  HH  ARG D 557     -23.779  -2.837 -13.133  1.00 35.49     0.174 HD
ATOM     13  HE  ARG D 557     -24.834  -0.263 -14.644  1.00 35.49     0.178 HD
ENDBRANCH   4   5
ENDBRANCH   3   4
ENDBRANCH   2   3
ENDBRANCH   1   2
END_RES ARG D 557
BEGIN_RES GLU D 570
REMARK  3 active torsions:
REMARK  status: ('A' for Active; 'I' for Inactive)
REMARK    5  A    between atoms: CA   and  CB  
REMARK    6  A    between atoms: CB   and  CG  
REMARK    7  A    between atoms: CG   and  CD  
ROOT
ATOM     14  CA  GLU D 570     -18.033  -6.348 -13.375  1.00 32.92     0.160 C 
ENDROOT
BRANCH  14  15
ATOM     15  CB  GLU D 570     -19.500  -6.345 -13.794  1.00 32.92     0.043 C 
BRANCH  15  16
ATOM     16  CG  GLU D 570     -20.447  -5.556 -12.964  1.00 32.92     0.100 C 
BRANCH  16  17
ATOM     17  CD  GLU D 570     -21.682  -5.129 -13.724  1.00 32.92     0.185 C 
ATOM     18  OE1 GLU D 570     -22.718  -4.856 -13.090  1.00 32.92    -0.647 OA
ATOM     19  OE2 GLU D 570     -21.616  -5.084 -14.968  1.00 32.92    -0.647 OA
ENDBRANCH  16  17
ENDBRANCH  15  16
ENDBRANCH  14  15
END_RES GLU D 570
ENDMDL
