MODEL 1
REMARK VINA RESULT:      -4.5      0.000      0.000
REMARK  24 active torsions:
REMARK  status: ('A' for Active; 'I' for Inactive)
REMARK    1  A    between atoms: C_1  and  O_32 
REMARK    2  A    between atoms: C_2  and  O_27 
REMARK    3  A    between atoms: C_3  and  O_22 
REMARK    4  A    between atoms: C_4  and  O_17 
REMARK    5  A    between atoms: C_5  and  O_12 
REMARK    6  A    between atoms: C_6  and  O_7 
REMARK    7  A    between atoms: O_7  and  P_8 
REMARK    8  A    between atoms: P_8  and  O_10 
REMARK    9  A    between atoms: P_8  and  O_11 
REMARK   10  A    between atoms: O_12  and  P_13 
REMARK   11  A    between atoms: P_13  and  O_15 
REMARK   12  A    between atoms: P_13  and  O_16 
REMARK   13  A    between atoms: O_17  and  P_18 
REMARK   14  A    between atoms: P_18  and  O_20 
REMARK   15  A    between atoms: P_18  and  O_21 
REMARK   16  A    between atoms: O_22  and  P_23 
REMARK   17  A    between atoms: P_23  and  O_25 
REMARK   18  A    between atoms: P_23  and  O_26 
REMARK   19  A    between atoms: O_27  and  P_28 
REMARK   20  A    between atoms: P_28  and  O_30 
REMARK   21  A    between atoms: P_28  and  O_31 
REMARK   22  A    between atoms: O_32  and  P_33 
REMARK   23  A    between atoms: P_33  and  O_35 
REMARK   24  A    between atoms: P_33  and  O_36 
ROOT
HETATM    1  C   UNL     1     -20.360  -9.735  -1.700  1.00  0.00     0.198 C 
HETATM    2  C   UNL     1     -20.094 -10.021  -3.190  1.00  0.00     0.198 C 
HETATM    3  C   UNL     1     -18.823 -10.914  -3.304  1.00  0.00     0.198 C 
HETATM    4  C   UNL     1     -19.135 -12.275  -2.684  1.00  0.00     0.198 C 
HETATM    5  C   UNL     1     -19.512 -12.126  -1.192  1.00  0.00     0.198 C 
HETATM    6  C   UNL     1     -20.646 -11.077  -1.011  1.00  0.00     0.198 C 
ENDROOT
BRANCH   1   7
HETATM    7  O   UNL     1     -21.458  -8.827  -1.621  1.00  0.00    -0.286 OA
BRANCH   7   8
HETATM    8  P   UNL     1     -22.075  -8.347  -0.230  1.00  0.00     0.391 P 
HETATM    9  O   UNL     1     -21.112  -8.263   0.900  1.00  0.00    -0.632 OA
BRANCH   8  10
HETATM   10  O   UNL     1     -22.729  -6.938  -0.587  1.00  0.00    -0.307 OA
HETATM   11  H   UNL     1     -23.516  -6.759  -0.037  1.00  0.00     0.222 HD
ENDBRANCH   8  10
BRANCH   8  12
HETATM   12  O   UNL     1     -23.363  -9.238   0.065  1.00  0.00    -0.307 OA
HETATM   13  H   UNL     1     -23.495  -9.886  -0.654  1.00  0.00     0.222 HD
ENDBRANCH   8  12
ENDBRANCH   7   8
ENDBRANCH   1   7
BRANCH   2  14
HETATM   14  O   UNL     1     -19.933  -8.789  -3.897  1.00  0.00    -0.286 OA
BRANCH  14  15
HETATM   15  P   UNL     1     -20.902  -8.472  -5.137  1.00  0.00     0.391 P 
HETATM   16  O   UNL     1     -21.225  -9.622  -6.024  1.00  0.00    -0.632 OA
BRANCH  15  17
HETATM   17  O   UNL     1     -22.138  -7.615  -4.627  1.00  0.00    -0.307 OA
HETATM   18  H   UNL     1     -22.845  -7.560  -5.295  1.00  0.00     0.222 HD
ENDBRANCH  15  17
BRANCH  15  19
HETATM   19  O   UNL     1     -20.072  -7.368  -5.937  1.00  0.00    -0.307 OA
HETATM   20  H   UNL     1     -20.555  -7.106  -6.744  1.00  0.00     0.222 HD
ENDBRANCH  15  19
ENDBRANCH  14  15
ENDBRANCH   2  14
BRANCH   6  21
HETATM   21  O   UNL     1     -21.860 -11.560  -1.579  1.00  0.00    -0.286 OA
BRANCH  21  22
HETATM   22  P   UNL     1     -22.638 -12.692  -0.527  1.00  0.00     0.391 P 
HETATM   23  O   UNL     1     -22.229 -11.903   0.714  1.00  0.00    -0.632 OA
BRANCH  22  24
HETATM   24  O   UNL     1     -24.085 -12.046  -0.904  1.00  0.00    -0.307 OA
HETATM   25  H   UNL     1     -23.911 -11.218  -1.390  1.00  0.00     0.222 HD
ENDBRANCH  22  24
BRANCH  22  26
HETATM   26  O   UNL     1     -23.415 -13.823   0.525  1.00  0.00    -0.307 OA
HETATM   27  H   UNL     1     -24.239 -13.362   0.786  1.00  0.00     0.222 HD
ENDBRANCH  22  26
ENDBRANCH  21  22
ENDBRANCH   6  21
BRANCH   3  28
HETATM   28  O   UNL     1     -17.699 -10.339  -2.600  1.00  0.00    -0.286 OA
BRANCH  28  29
HETATM   29  P   UNL     1     -16.450 -10.084  -3.769  1.00  0.00     0.391 P 
HETATM   30  O   UNL     1     -15.833  -9.010  -2.880  1.00  0.00    -0.632 OA
BRANCH  29  31
HETATM   31  O   UNL     1     -15.740 -11.480  -3.346  1.00  0.00    -0.307 OA
HETATM   32  H   UNL     1     -15.568 -11.954  -4.183  1.00  0.00     0.222 HD
ENDBRANCH  29  31
BRANCH  29  33
HETATM   33  O   UNL     1     -15.200  -9.828  -4.938  1.00  0.00    -0.307 OA
HETATM   34  H   UNL     1     -15.255 -10.510  -5.629  1.00  0.00     0.222 HD
ENDBRANCH  29  33
ENDBRANCH  28  29
ENDBRANCH   3  28
BRANCH   5  35
HETATM   35  O   UNL     1     -18.391 -11.770  -0.396  1.00  0.00    -0.286 OA
BRANCH  35  36
HETATM   36  P   UNL     1     -17.523 -12.947   0.243  1.00  0.00     0.391 P 
HETATM   37  O   UNL     1     -18.272 -14.189   0.603  1.00  0.00    -0.632 OA
BRANCH  36  38
HETATM   38  O   UNL     1     -16.323 -13.154  -0.778  1.00  0.00    -0.307 OA
HETATM   39  H   UNL     1     -15.675 -12.430  -0.700  1.00  0.00     0.222 HD
ENDBRANCH  36  38
BRANCH  36  40
HETATM   40  O   UNL     1     -16.794 -12.266   1.479  1.00  0.00    -0.307 OA
HETATM   41  H   UNL     1     -16.788 -11.295   1.414  1.00  0.00     0.222 HD
ENDBRANCH  36  40
ENDBRANCH  35  36
ENDBRANCH   5  35
BRANCH   4  42
HETATM   42  O   UNL     1     -18.082 -13.217  -2.852  1.00  0.00    -0.286 OA
BRANCH  42  43
HETATM   43  P   UNL     1     -17.999 -14.045  -4.220  1.00  0.00     0.391 P 
HETATM   44  O   UNL     1     -17.022 -13.551  -5.229  1.00  0.00    -0.632 OA
BRANCH  43  45
HETATM   45  O   UNL     1     -17.715 -15.564  -3.810  1.00  0.00    -0.307 OA
HETATM   46  H   UNL     1     -18.254 -15.813  -3.036  1.00  0.00     0.222 HD
ENDBRANCH  43  45
BRANCH  43  47
HETATM   47  O   UNL     1     -19.477 -14.123  -4.810  1.00  0.00    -0.307 OA
HETATM   48  H   UNL     1     -19.611 -13.481  -5.530  1.00  0.00     0.222 HD
ENDBRANCH  43  47
ENDBRANCH  42  43
ENDBRANCH   4  42
TORSDOF 24
BEGIN_RES ARG D 557
REMARK  4 active torsions:
REMARK  status: ('A' for Active; 'I' for Inactive)
REMARK    1  A    between atoms: CA   and  CB  
REMARK    2  A    between atoms: CB   and  CG  
REMARK    3  A    between atoms: CG   and  CD  
REMARK    4  A    between atoms: CD   and  NE  
REMARK       I    between atoms: NE   and  CZ  
REMARK       I    between atoms: CZ   and  NH1 
REMARK       I    between atoms: CZ   and  NH2 
ROOT
ATOM      1  CA  ARG D 557     -26.217   2.705 -17.014  1.00 35.49     0.159 C 
ENDROOT
BRANCH   1   2
ATOM      2  CB  ARG D 557     -26.789   1.319 -17.183  1.00 35.49     0.034 C 
BRANCH   2   3
ATOM      3  CG  ARG D 557     -25.835   0.203 -17.160  1.00 35.49     0.027 C 
BRANCH   3   4
ATOM      4  CD  ARG D 557     -24.750   0.408 -16.173  1.00 35.49     0.116 C 
BRANCH   4   5
ATOM      5  NE  ARG D 557     -24.900  -0.438 -15.019  1.00 35.49    -0.212 N 
ATOM      6  CZ  ARG D 557     -24.087  -1.410 -14.669  1.00 35.49     0.666 C 
ATOM      7  NH1 ARG D 557     -23.018  -1.729 -15.375  1.00 35.49    -0.235 N 
ATOM      8  NH2 ARG D 557     -24.366  -2.062 -13.578  1.00 35.49    -0.235 N 
ATOM      9  HH  ARG D 557     -22.814  -1.312 -16.095  1.00 35.49     0.174 HD
ATOM     10  HH  ARG D 557     -22.523  -2.371 -15.096  1.00 35.49     0.174 HD
ATOM     11  HH  ARG D 557     -25.059  -1.829 -13.138  1.00 35.49     0.174 HD
ATOM     12  HH  ARG D 557     -23.863  -2.693 -13.318  1.00 35.49     0.174 HD
ATOM     13  HE  ARG D 557     -25.602  -0.350 -14.547  1.00 35.49     0.178 HD
ENDBRANCH   4   5
ENDBRANCH   3   4
ENDBRANCH   2   3
ENDBRANCH   1   2
END_RES ARG D 557
BEGIN_RES GLU D 570
REMARK  3 active torsions:
REMARK  status: ('A' for Active; 'I' for Inactive)
REMARK    5  A    between atoms: CA   and  CB  
REMARK    6  A    between atoms: CB   and  CG  
REMARK    7  A    between atoms: CG   and  CD  
ROOT
ATOM     14  CA  GLU D 570     -18.033  -6.348 -13.375  1.00 32.92     0.160 C 
ENDROOT
BRANCH  14  15
ATOM     15  CB  GLU D 570     -19.500  -6.345 -13.794  1.00 32.92     0.043 C 
BRANCH  15  16
ATOM     16  CG  GLU D 570     -20.440  -5.524 -12.988  1.00 32.92     0.100 C 
BRANCH  16  17
ATOM     17  CD  GLU D 570     -21.732  -5.226 -13.713  1.00 32.92     0.185 C 
ATOM     18  OE1 GLU D 570     -22.320  -4.151 -13.484  1.00 32.92    -0.647 OA
ATOM     19  OE2 GLU D 570     -22.169  -6.083 -14.505  1.00 32.92    -0.647 OA
ENDBRANCH  16  17
ENDBRANCH  15  16
ENDBRANCH  14  15
END_RES GLU D 570
ENDMDL
MODEL 2
REMARK VINA RESULT:      -4.4      1.579      1.967
REMARK  24 active torsions:
REMARK  status: ('A' for Active; 'I' for Inactive)
REMARK    1  A    between atoms: C_1  and  O_32 
REMARK    2  A    between atoms: C_2  and  O_27 
REMARK    3  A    between atoms: C_3  and  O_22 
REMARK    4  A    between atoms: C_4  and  O_17 
REMARK    5  A    between atoms: C_5  and  O_12 
REMARK    6  A    between atoms: C_6  and  O_7 
REMARK    7  A    between atoms: O_7  and  P_8 
REMARK    8  A    between atoms: P_8  and  O_10 
REMARK    9  A    between atoms: P_8  and  O_11 
REMARK   10  A    between atoms: O_12  and  P_13 
REMARK   11  A    between atoms: P_13  and  O_15 
REMARK   12  A    between atoms: P_13  and  O_16 
REMARK   13  A    between atoms: O_17  and  P_18 
REMARK   14  A    between atoms: P_18  and  O_20 
REMARK   15  A    between atoms: P_18  and  O_21 
REMARK   16  A    between atoms: O_22  and  P_23 
REMARK   17  A    between atoms: P_23  and  O_25 
REMARK   18  A    between atoms: P_23  and  O_26 
REMARK   19  A    between atoms: O_27  and  P_28 
REMARK   20  A    between atoms: P_28  and  O_30 
REMARK   21  A    between atoms: P_28  and  O_31 
REMARK   22  A    between atoms: O_32  and  P_33 
REMARK   23  A    between atoms: P_33  and  O_35 
REMARK   24  A    between atoms: P_33  and  O_36 
ROOT
HETATM    1  C   UNL     1     -20.436  -9.716  -1.651  1.00  0.00     0.198 C 
HETATM    2  C   UNL     1     -20.189  -9.959  -3.153  1.00  0.00     0.198 C 
HETATM    3  C   UNL     1     -18.909 -10.833  -3.308  1.00  0.00     0.198 C 
HETATM    4  C   UNL     1     -19.196 -12.214  -2.720  1.00  0.00     0.198 C 
HETATM    5  C   UNL     1     -19.553 -12.109  -1.220  1.00  0.00     0.198 C 
HETATM    6  C   UNL     1     -20.696 -11.079  -0.995  1.00  0.00     0.198 C 
ENDROOT
BRANCH   1   7
HETATM    7  O   UNL     1     -21.544  -8.824  -1.533  1.00  0.00    -0.286 OA
BRANCH   7   8
HETATM    8  P   UNL     1     -22.146  -8.387  -0.120  1.00  0.00     0.391 P 
HETATM    9  O   UNL     1     -21.172  -8.344   1.002  1.00  0.00    -0.632 OA
BRANCH   8  10
HETATM   10  O   UNL     1     -22.797  -6.965  -0.424  1.00  0.00    -0.307 OA
HETATM   11  H   UNL     1     -22.536  -6.302   0.243  1.00  0.00     0.222 HD
ENDBRANCH   8  10
BRANCH   8  12
HETATM   12  O   UNL     1     -23.435  -9.283   0.158  1.00  0.00    -0.307 OA
HETATM   13  H   UNL     1     -24.188  -8.960  -0.372  1.00  0.00     0.222 HD
ENDBRANCH   8  12
ENDBRANCH   7   8
ENDBRANCH   1   7
BRANCH   2  14
HETATM   14  O   UNL     1     -20.052  -8.706  -3.828  1.00  0.00    -0.286 OA
BRANCH  14  15
HETATM   15  P   UNL     1     -20.868  -8.464  -5.189  1.00  0.00     0.391 P 
HETATM   16  O   UNL     1     -21.150  -9.676  -6.006  1.00  0.00    -0.632 OA
BRANCH  15  17
HETATM   17  O   UNL     1     -22.110  -7.520  -4.892  1.00  0.00    -0.307 OA
HETATM   18  H   UNL     1     -22.275  -6.894  -5.620  1.00  0.00     0.222 HD
ENDBRANCH  15  17
BRANCH  15  19
HETATM   19  O   UNL     1     -19.907  -7.468  -5.983  1.00  0.00    -0.307 OA
HETATM   20  H   UNL     1     -20.150  -6.543  -5.788  1.00  0.00     0.222 HD
ENDBRANCH  15  19
ENDBRANCH  14  15
ENDBRANCH   2  14
BRANCH   6  21
HETATM   21  O   UNL     1     -21.913 -11.562  -1.559  1.00  0.00    -0.286 OA
BRANCH  21  22
HETATM   22  P   UNL     1     -22.664 -12.727  -0.524  1.00  0.00     0.391 P 
HETATM   23  O   UNL     1     -22.248 -11.963   0.730  1.00  0.00    -0.632 OA
BRANCH  22  24
HETATM   24  O   UNL     1     -24.123 -12.089  -0.868  1.00  0.00    -0.307 OA
HETATM   25  H   UNL     1     -24.186 -11.242  -0.387  1.00  0.00     0.222 HD
ENDBRANCH  22  24
BRANCH  22  26
HETATM   26  O   UNL     1     -23.416 -13.891   0.510  1.00  0.00    -0.307 OA
HETATM   27  H   UNL     1     -23.776 -13.348   1.241  1.00  0.00     0.222 HD
ENDBRANCH  22  26
ENDBRANCH  21  22
ENDBRANCH   6  21
BRANCH   3  28
HETATM   28  O   UNL     1     -17.782 -10.263  -2.604  1.00  0.00    -0.286 OA
BRANCH  28  29
HETATM   29  P   UNL     1     -16.522 -10.040  -3.769  1.00  0.00     0.391 P 
HETATM   30  O   UNL     1     -15.892  -8.968  -2.887  1.00  0.00    -0.632 OA
BRANCH  29  31
HETATM   31  O   UNL     1     -15.839 -11.445  -3.329  1.00  0.00    -0.307 OA
HETATM   32  H   UNL     1     -15.277 -11.236  -2.556  1.00  0.00     0.222 HD
ENDBRANCH  29  31
BRANCH  29  33
HETATM   33  O   UNL     1     -15.262  -9.817  -4.933  1.00  0.00    -0.307 OA
HETATM   34  H   UNL     1     -14.567 -10.483  -4.793  1.00  0.00     0.222 HD
ENDBRANCH  29  33
ENDBRANCH  28  29
ENDBRANCH   3  28
BRANCH   5  35
HETATM   35  O   UNL     1     -18.426 -11.761  -0.431  1.00  0.00    -0.286 OA
BRANCH  35  36
HETATM   36  P   UNL     1     -17.566 -12.943   0.208  1.00  0.00     0.391 P 
HETATM   37  O   UNL     1     -18.330 -14.162   0.612  1.00  0.00    -0.632 OA
BRANCH  36  38
HETATM   38  O   UNL     1     -16.397 -13.195  -0.839  1.00  0.00    -0.307 OA
HETATM   39  H   UNL     1     -16.752 -13.243  -1.746  1.00  0.00     0.222 HD
ENDBRANCH  36  38
BRANCH  36  40
HETATM   40  O   UNL     1     -16.790 -12.255   1.412  1.00  0.00    -0.307 OA
HETATM   41  H   UNL     1     -17.385 -11.748   1.992  1.00  0.00     0.222 HD
ENDBRANCH  36  40
ENDBRANCH  35  36
ENDBRANCH   5  35
BRANCH   4  42
HETATM   42  O   UNL     1     -18.134 -13.138  -2.929  1.00  0.00    -0.286 OA
BRANCH  42  43
HETATM   43  P   UNL     1     -18.158 -14.056  -4.240  1.00  0.00     0.391 P 
HETATM   44  O   UNL     1     -19.417 -14.038  -5.033  1.00  0.00    -0.632 OA
BRANCH  43  45
HETATM   45  O   UNL     1     -16.894 -13.620  -5.117  1.00  0.00    -0.307 OA
HETATM   46  H   UNL     1     -16.387 -12.924  -4.658  1.00  0.00     0.222 HD
ENDBRANCH  43  45
BRANCH  43  47
HETATM   47  O   UNL     1     -17.762 -15.531  -3.785  1.00  0.00    -0.307 OA
HETATM   48  H   UNL     1     -16.800 -15.677  -3.836  1.00  0.00     0.222 HD
ENDBRANCH  43  47
ENDBRANCH  42  43
ENDBRANCH   4  42
TORSDOF 24
BEGIN_RES ARG D 557
REMARK  4 active torsions:
REMARK  status: ('A' for Active; 'I' for Inactive)
REMARK    1  A    between atoms: CA   and  CB  
REMARK    2  A    between atoms: CB   and  CG  
REMARK    3  A    between atoms: CG   and  CD  
REMARK    4  A    between atoms: CD   and  NE  
REMARK       I    between atoms: NE   and  CZ  
REMARK       I    between atoms: CZ   and  NH1 
REMARK       I    between atoms: CZ   and  NH2 
ROOT
ATOM      1  CA  ARG D 557     -26.217   2.705 -17.014  1.00 35.49     0.159 C 
ENDROOT
BRANCH   1   2
ATOM      2  CB  ARG D 557     -26.789   1.319 -17.183  1.00 35.49     0.034 C 
BRANCH   2   3
ATOM      3  CG  ARG D 557     -28.233   1.226 -17.432  1.00 35.49     0.027 C 
BRANCH   3   4
ATOM      4  CD  ARG D 557     -28.908   0.299 -16.496  1.00 35.49     0.116 C 
BRANCH   4   5
ATOM      5  NE  ARG D 557     -29.286  -0.935 -17.133  1.00 35.49    -0.212 N 
ATOM      6  CZ  ARG D 557     -28.651  -2.081 -17.026  1.00 35.49     0.666 C 
ATOM      7  NH1 ARG D 557     -27.552  -2.218 -16.308  1.00 35.49    -0.235 N 
ATOM      8  NH2 ARG D 557     -29.149  -3.104 -17.657  1.00 35.49    -0.235 N 
ATOM      9  HH  ARG D 557     -27.208  -1.558 -15.883  1.00 35.49     0.174 HD
ATOM     10  HH  ARG D 557     -27.182  -2.990 -16.273  1.00 35.49     0.174 HD
ATOM     11  HH  ARG D 557     -29.864  -2.988 -18.108  1.00 35.49     0.174 HD
ATOM     12  HH  ARG D 557     -28.769  -3.861 -17.609  1.00 35.49     0.174 HD
ATOM     13  HE  ARG D 557     -29.943  -0.921 -17.674  1.00 35.49     0.178 HD
ENDBRANCH   4   5
ENDBRANCH   3   4
ENDBRANCH   2   3
ENDBRANCH   1   2
END_RES ARG D 557
BEGIN_RES GLU D 570
REMARK  3 active torsions:
REMARK  status: ('A' for Active; 'I' for Inactive)
REMARK    5  A    between atoms: CA   and  CB  
REMARK    6  A    between atoms: CB   and  CG  
REMARK    7  A    between atoms: CG   and  CD  
ROOT
ATOM     14  CA  GLU D 570     -18.033  -6.348 -13.375  1.00 32.92     0.160 C 
ENDROOT
BRANCH  14  15
ATOM     15  CB  GLU D 570     -19.500  -6.345 -13.794  1.00 32.92     0.043 C 
BRANCH  15  16
ATOM     16  CG  GLU D 570     -19.801  -6.125 -15.232  1.00 32.92     0.100 C 
BRANCH  16  17
ATOM     17  CD  GLU D 570     -21.105  -5.397 -15.457  1.00 32.92     0.185 C 
ATOM     18  OE1 GLU D 570     -21.462  -5.141 -16.623  1.00 32.92    -0.647 OA
ATOM     19  OE2 GLU D 570     -21.768  -5.063 -14.456  1.00 32.92    -0.647 OA
ENDBRANCH  16  17
ENDBRANCH  15  16
ENDBRANCH  14  15
END_RES GLU D 570
ENDMDL
MODEL 3
REMARK VINA RESULT:      -4.3      1.173      5.319
REMARK  24 active torsions:
REMARK  status: ('A' for Active; 'I' for Inactive)
REMARK    1  A    between atoms: C_1  and  O_32 
REMARK    2  A    between atoms: C_2  and  O_27 
REMARK    3  A    between atoms: C_3  and  O_22 
REMARK    4  A    between atoms: C_4  and  O_17 
REMARK    5  A    between atoms: C_5  and  O_12 
REMARK    6  A    between atoms: C_6  and  O_7 
REMARK    7  A    between atoms: O_7  and  P_8 
REMARK    8  A    between atoms: P_8  and  O_10 
REMARK    9  A    between atoms: P_8  and  O_11 
REMARK   10  A    between atoms: O_12  and  P_13 
REMARK   11  A    between atoms: P_13  and  O_15 
REMARK   12  A    between atoms: P_13  and  O_16 
REMARK   13  A    between atoms: O_17  and  P_18 
REMARK   14  A    between atoms: P_18  and  O_20 
REMARK   15  A    between atoms: P_18  and  O_21 
REMARK   16  A    between atoms: O_22  and  P_23 
REMARK   17  A    between atoms: P_23  and  O_25 
REMARK   18  A    between atoms: P_23  and  O_26 
REMARK   19  A    between atoms: O_27  and  P_28 
REMARK   20  A    between atoms: P_28  and  O_30 
REMARK   21  A    between atoms: P_28  and  O_31 
REMARK   22  A    between atoms: O_32  and  P_33 
REMARK   23  A    between atoms: P_33  and  O_35 
REMARK   24  A    between atoms: P_33  and  O_36 
ROOT
HETATM    1  C   UNL     1     -20.326  -9.425  -3.700  1.00  0.00     0.198 C 
HETATM    2  C   UNL     1     -20.634  -9.605  -2.201  1.00  0.00     0.198 C 
HETATM    3  C   UNL     1     -20.775 -11.127  -1.904  1.00  0.00     0.198 C 
HETATM    4  C   UNL     1     -19.413 -11.787  -2.116  1.00  0.00     0.198 C 
HETATM    5  C   UNL     1     -18.934 -11.602  -3.574  1.00  0.00     0.198 C 
HETATM    6  C   UNL     1     -18.978 -10.102  -3.984  1.00  0.00     0.198 C 
ENDROOT
BRANCH   1   7
HETATM    7  O   UNL     1     -20.310  -8.024  -3.975  1.00  0.00    -0.286 OA
BRANCH   7   8
HETATM    8  P   UNL     1     -20.942  -7.404  -5.303  1.00  0.00     0.391 P 
HETATM    9  O   UNL     1     -20.067  -6.457  -6.043  1.00  0.00    -0.632 OA
BRANCH   8  10
HETATM   10  O   UNL     1     -21.321  -8.691  -6.163  1.00  0.00    -0.307 OA
HETATM   11  H   UNL     1     -22.247  -8.656  -6.470  1.00  0.00     0.222 HD
ENDBRANCH   8  10
BRANCH   8  12
HETATM   12  O   UNL     1     -22.379  -6.824  -4.933  1.00  0.00    -0.307 OA
HETATM   13  H   UNL     1     -23.055  -7.194  -5.533  1.00  0.00     0.222 HD
ENDBRANCH   8  12
ENDBRANCH   7   8
ENDBRANCH   1   7
BRANCH   2  14
HETATM   14  O   UNL     1     -21.828  -8.893  -1.865  1.00  0.00    -0.286 OA
BRANCH  14  15
HETATM   15  P   UNL     1     -22.033  -8.392  -0.353  1.00  0.00     0.391 P 
HETATM   16  O   UNL     1     -20.855  -8.525   0.545  1.00  0.00    -0.632 OA
BRANCH  15  17
HETATM   17  O   UNL     1     -22.742  -6.972  -0.367  1.00  0.00    -0.307 OA
HETATM   18  H   UNL     1     -22.767  -6.567   0.519  1.00  0.00     0.222 HD
ENDBRANCH  15  17
BRANCH  15  19
HETATM   19  O   UNL     1     -23.225  -9.326   0.149  1.00  0.00    -0.307 OA
HETATM   20  H   UNL     1     -23.809  -8.827   0.753  1.00  0.00     0.222 HD
ENDBRANCH  15  19
ENDBRANCH  14  15
ENDBRANCH   2  14
BRANCH   6  21
HETATM   21  O   UNL     1     -18.004  -9.362  -3.253  1.00  0.00    -0.286 OA
BRANCH  21  22
HETATM   22  P   UNL     1     -16.472 -10.166  -3.260  1.00  0.00     0.391 P 
HETATM   23  O   UNL     1     -16.223  -9.797  -4.720  1.00  0.00    -0.632 OA
BRANCH  22  24
HETATM   24  O   UNL     1     -15.813  -8.913  -2.455  1.00  0.00    -0.307 OA
HETATM   25  H   UNL     1     -15.994  -9.054  -1.506  1.00  0.00     0.222 HD
ENDBRANCH  22  24
BRANCH  22  26
HETATM   26  O   UNL     1     -14.940 -10.969  -3.267  1.00  0.00    -0.307 OA
HETATM   27  H   UNL     1     -14.668 -10.949  -2.326  1.00  0.00     0.222 HD
ENDBRANCH  22  26
ENDBRANCH  21  22
ENDBRANCH   6  21
BRANCH   3  28
HETATM   28  O   UNL     1     -21.730 -11.759  -2.788  1.00  0.00    -0.286 OA
BRANCH  28  29
HETATM   29  P   UNL     1     -22.977 -12.423  -1.789  1.00  0.00     0.391 P 
HETATM   30  O   UNL     1     -22.160 -12.094  -0.544  1.00  0.00    -0.632 OA
BRANCH  29  31
HETATM   31  O   UNL     1     -23.916 -11.128  -2.065  1.00  0.00    -0.307 OA
HETATM   32  H   UNL     1     -24.814 -11.387  -1.779  1.00  0.00     0.222 HD
ENDBRANCH  29  31
BRANCH  29  33
HETATM   33  O   UNL     1     -24.224 -13.086  -0.789  1.00  0.00    -0.307 OA
HETATM   34  H   UNL     1     -23.888 -13.202   0.116  1.00  0.00     0.222 HD
ENDBRANCH  29  33
ENDBRANCH  28  29
ENDBRANCH   3  28
BRANCH   5  35
HETATM   35  O   UNL     1     -19.700 -12.375  -4.485  1.00  0.00    -0.286 OA
BRANCH  35  36
HETATM   36  P   UNL     1     -19.166 -12.514  -5.983  1.00  0.00     0.391 P 
HETATM   37  O   UNL     1     -17.686 -12.403  -6.161  1.00  0.00    -0.632 OA
BRANCH  36  38
HETATM   38  O   UNL     1     -19.809 -13.868  -6.510  1.00  0.00    -0.307 OA
HETATM   39  H   UNL     1     -20.589 -13.686  -7.066  1.00  0.00     0.222 HD
ENDBRANCH  36  38
BRANCH  36  40
HETATM   40  O   UNL     1     -19.985 -11.420  -6.792  1.00  0.00    -0.307 OA
HETATM   41  H   UNL     1     -20.946 -11.512  -6.667  1.00  0.00     0.222 HD
ENDBRANCH  36  40
ENDBRANCH  35  36
ENDBRANCH   5  35
BRANCH   4  42
HETATM   42  O   UNL     1     -19.397 -13.160  -1.744  1.00  0.00    -0.286 OA
BRANCH  42  43
HETATM   43  P   UNL     1     -18.854 -13.559  -0.292  1.00  0.00     0.391 P 
HETATM   44  O   UNL     1     -18.011 -12.543   0.397  1.00  0.00    -0.632 OA
BRANCH  43  45
HETATM   45  O   UNL     1     -20.137 -13.956   0.575  1.00  0.00    -0.307 OA
HETATM   46  H   UNL     1     -20.502 -14.808   0.271  1.00  0.00     0.222 HD
ENDBRANCH  43  45
BRANCH  43  47
HETATM   47  O   UNL     1     -18.101 -14.955  -0.442  1.00  0.00    -0.307 OA
HETATM   48  H   UNL     1     -18.615 -15.685  -0.053  1.00  0.00     0.222 HD
ENDBRANCH  43  47
ENDBRANCH  42  43
ENDBRANCH   4  42
TORSDOF 24
BEGIN_RES ARG D 557
REMARK  4 active torsions:
REMARK  status: ('A' for Active; 'I' for Inactive)
REMARK    1  A    between atoms: CA   and  CB  
REMARK    2  A    between atoms: CB   and  CG  
REMARK    3  A    between atoms: CG   and  CD  
REMARK    4  A    between atoms: CD   and  NE  
REMARK       I    between atoms: NE   and  CZ  
REMARK       I    between atoms: CZ   and  NH1 
REMARK       I    between atoms: CZ   and  NH2 
ROOT
ATOM      1  CA  ARG D 557     -26.217   2.705 -17.014  1.00 35.49     0.159 C 
ENDROOT
BRANCH   1   2
ATOM      2  CB  ARG D 557     -26.789   1.319 -17.183  1.00 35.49     0.034 C 
BRANCH   2   3
ATOM      3  CG  ARG D 557     -25.835   0.203 -17.161  1.00 35.49     0.027 C 
BRANCH   3   4
ATOM      4  CD  ARG D 557     -24.766   0.395 -16.154  1.00 35.49     0.116 C 
BRANCH   4   5
ATOM      5  NE  ARG D 557     -24.935  -0.466 -15.014  1.00 35.49    -0.212 N 
ATOM      6  CZ  ARG D 557     -24.123  -1.435 -14.656  1.00 35.49     0.666 C 
ATOM      7  NH1 ARG D 557     -23.035  -1.738 -15.340  1.00 35.49    -0.235 N 
ATOM      8  NH2 ARG D 557     -24.421  -2.102 -13.578  1.00 35.49    -0.235 N 
ATOM      9  HH  ARG D 557     -22.818  -1.311 -16.051  1.00 35.49     0.174 HD
ATOM     10  HH  ARG D 557     -22.541  -2.379 -15.057  1.00 35.49     0.174 HD
ATOM     11  HH  ARG D 557     -25.126  -1.879 -13.152  1.00 35.49     0.174 HD
ATOM     12  HH  ARG D 557     -23.919  -2.732 -13.314  1.00 35.49     0.174 HD
ATOM     13  HE  ARG D 557     -25.648  -0.389 -14.557  1.00 35.49     0.178 HD
ENDBRANCH   4   5
ENDBRANCH   3   4
ENDBRANCH   2   3
ENDBRANCH   1   2
END_RES ARG D 557
BEGIN_RES GLU D 570
REMARK  3 active torsions:
REMARK  status: ('A' for Active; 'I' for Inactive)
REMARK    5  A    between atoms: CA   and  CB  
REMARK    6  A    between atoms: CB   and  CG  
REMARK    7  A    between atoms: CG   and  CD  
ROOT
ATOM     14  CA  GLU D 570     -18.033  -6.348 -13.375  1.00 32.92     0.160 C 
ENDROOT
BRANCH  14  15
ATOM     15  CB  GLU D 570     -19.500  -6.345 -13.794  1.00 32.92     0.043 C 
BRANCH  15  16
ATOM     16  CG  GLU D 570     -20.438  -5.514 -12.996  1.00 32.92     0.100 C 
BRANCH  16  17
ATOM     17  CD  GLU D 570     -21.587  -4.971 -13.814  1.00 32.92     0.185 C 
ATOM     18  OE1 GLU D 570     -21.683  -5.297 -15.013  1.00 32.92    -0.647 OA
ATOM     19  OE2 GLU D 570     -22.390  -4.199 -13.254  1.00 32.92    -0.647 OA
ENDBRANCH  16  17
ENDBRANCH  15  16
ENDBRANCH  14  15
END_RES GLU D 570
ENDMDL
MODEL 4
REMARK VINA RESULT:      -4.3      1.603      4.905
REMARK  24 active torsions:
REMARK  status: ('A' for Active; 'I' for Inactive)
REMARK    1  A    between atoms: C_1  and  O_32 
REMARK    2  A    between atoms: C_2  and  O_27 
REMARK    3  A    between atoms: C_3  and  O_22 
REMARK    4  A    between atoms: C_4  and  O_17 
REMARK    5  A    between atoms: C_5  and  O_12 
REMARK    6  A    between atoms: C_6  and  O_7 
REMARK    7  A    between atoms: O_7  and  P_8 
REMARK    8  A    between atoms: P_8  and  O_10 
REMARK    9  A    between atoms: P_8  and  O_11 
REMARK   10  A    between atoms: O_12  and  P_13 
REMARK   11  A    between atoms: P_13  and  O_15 
REMARK   12  A    between atoms: P_13  and  O_16 
REMARK   13  A    between atoms: O_17  and  P_18 
REMARK   14  A    between atoms: P_18  and  O_20 
REMARK   15  A    between atoms: P_18  and  O_21 
REMARK   16  A    between atoms: O_22  and  P_23 
REMARK   17  A    between atoms: P_23  and  O_25 
REMARK   18  A    between atoms: P_23  and  O_26 
REMARK   19  A    between atoms: O_27  and  P_28 
REMARK   20  A    between atoms: P_28  and  O_30 
REMARK   21  A    between atoms: P_28  and  O_31 
REMARK   22  A    between atoms: O_32  and  P_33 
REMARK   23  A    between atoms: P_33  and  O_35 
REMARK   24  A    between atoms: P_33  and  O_36 
ROOT
HETATM    1  C   UNL     1     -19.519 -11.670  -1.768  1.00  0.00     0.198 C 
HETATM    2  C   UNL     1     -17.991 -11.793  -1.614  1.00  0.00     0.198 C 
HETATM    3  C   UNL     1     -17.415 -12.447  -2.906  1.00  0.00     0.198 C 
HETATM    4  C   UNL     1     -17.624 -11.478  -4.069  1.00  0.00     0.198 C 
HETATM    5  C   UNL     1     -19.129 -11.190  -4.280  1.00  0.00     0.198 C 
HETATM    6  C   UNL     1     -19.795 -10.732  -2.952  1.00  0.00     0.198 C 
ENDROOT
BRANCH   1   7
HETATM    7  O   UNL     1     -20.040 -11.174  -0.536  1.00  0.00    -0.286 OA
BRANCH   7   8
HETATM    8  P   UNL     1     -21.535 -11.467  -0.057  1.00  0.00     0.391 P 
HETATM    9  O   UNL     1     -21.662 -12.371   1.117  1.00  0.00    -0.632 OA
BRANCH   8  10
HETATM   10  O   UNL     1     -22.122 -10.012   0.220  1.00  0.00    -0.307 OA
HETATM   11  H   UNL     1     -22.858  -9.802  -0.387  1.00  0.00     0.222 HD
ENDBRANCH   8  10
BRANCH   8  12
HETATM   12  O   UNL     1     -22.374 -11.921  -1.334  1.00  0.00    -0.307 OA
HETATM   13  H   UNL     1     -21.907 -12.635  -1.806  1.00  0.00     0.222 HD
ENDBRANCH   8  12
ENDBRANCH   7   8
ENDBRANCH   1   7
BRANCH   2  14
HETATM   14  O   UNL     1     -17.684 -12.570  -0.454  1.00  0.00    -0.286 OA
BRANCH  14  15
HETATM   15  P   UNL     1     -16.272 -12.347   0.278  1.00  0.00     0.391 P 
HETATM   16  O   UNL     1     -15.451 -11.210  -0.219  1.00  0.00    -0.632 OA
BRANCH  15  17
HETATM   17  O   UNL     1     -16.483 -12.420   1.850  1.00  0.00    -0.307 OA
HETATM   18  H   UNL     1     -16.237 -13.291   2.212  1.00  0.00     0.222 HD
ENDBRANCH  15  17
BRANCH  15  19
HETATM   19  O   UNL     1     -15.530 -13.732   0.003  1.00  0.00    -0.307 OA
HETATM   20  H   UNL     1     -15.189 -14.101   0.840  1.00  0.00     0.222 HD
ENDBRANCH  15  19
ENDBRANCH  14  15
ENDBRANCH   2  14
BRANCH   6  21
HETATM   21  O   UNL     1     -19.296  -9.454  -2.565  1.00  0.00    -0.286 OA
BRANCH  21  22
HETATM   22  P   UNL     1     -20.525  -8.241  -2.679  1.00  0.00     0.391 P 
HETATM   23  O   UNL     1     -21.617  -9.289  -2.885  1.00  0.00    -0.632 OA
BRANCH  22  24
HETATM   24  O   UNL     1     -20.498  -8.064  -1.060  1.00  0.00    -0.307 OA
HETATM   25  H   UNL     1     -21.408  -7.850  -0.780  1.00  0.00     0.222 HD
ENDBRANCH  22  24
BRANCH  22  26
HETATM   26  O   UNL     1     -21.753  -7.029  -2.792  1.00  0.00    -0.307 OA
HETATM   27  H   UNL     1     -22.159  -7.032  -1.901  1.00  0.00     0.222 HD
ENDBRANCH  22  26
ENDBRANCH  21  22
ENDBRANCH   6  21
BRANCH   3  28
HETATM   28  O   UNL     1     -18.084 -13.689  -3.221  1.00  0.00    -0.286 OA
BRANCH  28  29
HETATM   29  P   UNL     1     -16.890 -14.939  -3.134  1.00  0.00     0.391 P 
HETATM   30  O   UNL     1     -15.801 -13.890  -2.945  1.00  0.00    -0.632 OA
BRANCH  29  31
HETATM   31  O   UNL     1     -17.391 -15.341  -1.643  1.00  0.00    -0.307 OA
HETATM   32  H   UNL     1     -16.599 -15.678  -1.180  1.00  0.00     0.222 HD
ENDBRANCH  29  31
BRANCH  29  33
HETATM   33  O   UNL     1     -15.696 -16.188  -3.046  1.00  0.00    -0.307 OA
HETATM   34  H   UNL     1     -16.130 -17.042  -2.875  1.00  0.00     0.222 HD
ENDBRANCH  29  33
ENDBRANCH  28  29
ENDBRANCH   3  28
BRANCH   5  35
HETATM   35  O   UNL     1     -19.815 -12.317  -4.803  1.00  0.00    -0.286 OA
BRANCH  35  36
HETATM   36  P   UNL     1     -21.183 -12.063  -5.584  1.00  0.00     0.391 P 
HETATM   37  O   UNL     1     -21.212 -10.868  -6.480  1.00  0.00    -0.632 OA
BRANCH  36  38
HETATM   38  O   UNL     1     -21.496 -13.449  -6.298  1.00  0.00    -0.307 OA
HETATM   39  H   UNL     1     -20.914 -13.577  -7.070  1.00  0.00     0.222 HD
ENDBRANCH  36  38
BRANCH  36  40
HETATM   40  O   UNL     1     -22.284 -12.024  -4.440  1.00  0.00    -0.307 OA
HETATM   41  H   UNL     1     -21.891 -12.036  -3.549  1.00  0.00     0.222 HD
ENDBRANCH  36  40
ENDBRANCH  35  36
ENDBRANCH   5  35
BRANCH   4  42
HETATM   42  O   UNL     1     -17.015 -11.920  -5.277  1.00  0.00    -0.286 OA
BRANCH  42  43
HETATM   43  P   UNL     1     -15.582 -11.330  -5.678  1.00  0.00     0.391 P 
HETATM   44  O   UNL     1     -15.106 -11.640  -7.054  1.00  0.00    -0.632 OA
BRANCH  43  45
HETATM   45  O   UNL     1     -15.655  -9.755  -5.414  1.00  0.00    -0.307 OA
HETATM   46  H   UNL     1     -16.259  -9.331  -6.051  1.00  0.00     0.222 HD
ENDBRANCH  43  45
BRANCH  43  47
HETATM   47  O   UNL     1     -14.549 -11.814  -4.567  1.00  0.00    -0.307 OA
HETATM   48  H   UNL     1     -14.996 -12.026  -3.727  1.00  0.00     0.222 HD
ENDBRANCH  43  47
ENDBRANCH  42  43
ENDBRANCH   4  42
TORSDOF 24
BEGIN_RES ARG D 557
REMARK  4 active torsions:
REMARK  status: ('A' for Active; 'I' for Inactive)
REMARK    1  A    between atoms: CA   and  CB  
REMARK    2  A    between atoms: CB   and  CG  
REMARK    3  A    between atoms: CG   and  CD  
REMARK    4  A    between atoms: CD   and  NE  
REMARK       I    between atoms: NE   and  CZ  
REMARK       I    between atoms: CZ   and  NH1 
REMARK       I    between atoms: CZ   and  NH2 
ROOT
ATOM      1  CA  ARG D 557     -26.217   2.705 -17.014  1.00 35.49     0.159 C 
ENDROOT
BRANCH   1   2
ATOM      2  CB  ARG D 557     -26.789   1.319 -17.183  1.00 35.49     0.034 C 
BRANCH   2   3
ATOM      3  CG  ARG D 557     -25.838   0.202 -17.138  1.00 35.49     0.027 C 
BRANCH   3   4
ATOM      4  CD  ARG D 557     -24.755   0.423 -16.152  1.00 35.49     0.116 C 
BRANCH   4   5
ATOM      5  NE  ARG D 557     -24.885  -0.433 -15.002  1.00 35.49    -0.212 N 
ATOM      6  CZ  ARG D 557     -24.060  -1.399 -14.667  1.00 35.49     0.666 C 
ATOM      7  NH1 ARG D 557     -22.995  -1.705 -15.386  1.00 35.49    -0.235 N 
ATOM      8  NH2 ARG D 557     -24.322  -2.061 -13.577  1.00 35.49    -0.235 N 
ATOM      9  HH  ARG D 557     -22.802  -1.281 -16.105  1.00 35.49     0.174 HD
ATOM     10  HH  ARG D 557     -22.492  -2.343 -15.116  1.00 35.49     0.174 HD
ATOM     11  HH  ARG D 557     -25.012  -1.837 -13.129  1.00 35.49     0.174 HD
ATOM     12  HH  ARG D 557     -23.810  -2.689 -13.326  1.00 35.49     0.174 HD
ATOM     13  HE  ARG D 557     -25.582  -0.354 -14.523  1.00 35.49     0.178 HD
ENDBRANCH   4   5
ENDBRANCH   3   4
ENDBRANCH   2   3
ENDBRANCH   1   2
END_RES ARG D 557
BEGIN_RES GLU D 570
REMARK  3 active torsions:
REMARK  status: ('A' for Active; 'I' for Inactive)
REMARK    5  A    between atoms: CA   and  CB  
REMARK    6  A    between atoms: CB   and  CG  
REMARK    7  A    between atoms: CG   and  CD  
ROOT
ATOM     14  CA  GLU D 570     -18.033  -6.348 -13.375  1.00 32.92     0.160 C 
ENDROOT
BRANCH  14  15
ATOM     15  CB  GLU D 570     -19.500  -6.345 -13.794  1.00 32.92     0.043 C 
BRANCH  15  16
ATOM     16  CG  GLU D 570     -20.446  -5.551 -12.969  1.00 32.92     0.100 C 
BRANCH  16  17
ATOM     17  CD  GLU D 570     -21.733  -5.228 -13.692  1.00 32.92     0.185 C 
ATOM     18  OE1 GLU D 570     -22.210  -6.067 -14.481  1.00 32.92    -0.647 OA
ATOM     19  OE2 GLU D 570     -22.260  -4.118 -13.481  1.00 32.92    -0.647 OA
ENDBRANCH  16  17
ENDBRANCH  15  16
ENDBRANCH  14  15
END_RES GLU D 570
ENDMDL
MODEL 5
REMARK VINA RESULT:      -4.2      1.002      5.083
REMARK  24 active torsions:
REMARK  status: ('A' for Active; 'I' for Inactive)
REMARK    1  A    between atoms: C_1  and  O_32 
REMARK    2  A    between atoms: C_2  and  O_27 
REMARK    3  A    between atoms: C_3  and  O_22 
REMARK    4  A    between atoms: C_4  and  O_17 
REMARK    5  A    between atoms: C_5  and  O_12 
REMARK    6  A    between atoms: C_6  and  O_7 
REMARK    7  A    between atoms: O_7  and  P_8 
REMARK    8  A    between atoms: P_8  and  O_10 
REMARK    9  A    between atoms: P_8  and  O_11 
REMARK   10  A    between atoms: O_12  and  P_13 
REMARK   11  A    between atoms: P_13  and  O_15 
REMARK   12  A    between atoms: P_13  and  O_16 
REMARK   13  A    between atoms: O_17  and  P_18 
REMARK   14  A    between atoms: P_18  and  O_20 
REMARK   15  A    between atoms: P_18  and  O_21 
REMARK   16  A    between atoms: O_22  and  P_23 
REMARK   17  A    between atoms: P_23  and  O_25 
REMARK   18  A    between atoms: P_23  and  O_26 
REMARK   19  A    between atoms: O_27  and  P_28 
REMARK   20  A    between atoms: P_28  and  O_30 
REMARK   21  A    between atoms: P_28  and  O_31 
REMARK   22  A    between atoms: O_32  and  P_33 
REMARK   23  A    between atoms: P_33  and  O_35 
REMARK   24  A    between atoms: P_33  and  O_36 
ROOT
HETATM    1  C   UNL     1     -20.695 -10.360  -2.381  1.00  0.00     0.198 C 
HETATM    2  C   UNL     1     -20.788 -10.154  -0.857  1.00  0.00     0.198 C 
HETATM    3  C   UNL     1     -20.535 -11.522  -0.156  1.00  0.00     0.198 C 
HETATM    4  C   UNL     1     -19.088 -11.935  -0.418  1.00  0.00     0.198 C 
HETATM    5  C   UNL     1     -18.826 -12.092  -1.933  1.00  0.00     0.198 C 
HETATM    6  C   UNL     1     -19.265 -10.814  -2.704  1.00  0.00     0.198 C 
ENDROOT
BRANCH   1   7
HETATM    7  O   UNL     1     -21.039  -9.124  -3.007  1.00  0.00    -0.286 OA
BRANCH   7   8
HETATM    8  P   UNL     1     -21.028  -8.934  -4.592  1.00  0.00     0.391 P 
HETATM    9  O   UNL     1     -21.340 -10.154  -5.382  1.00  0.00    -0.632 OA
BRANCH   8  10
HETATM   10  O   UNL     1     -22.083  -7.763  -4.827  1.00  0.00    -0.307 OA
HETATM   11  H   UNL     1     -21.646  -6.945  -5.134  1.00  0.00     0.222 HD
ENDBRANCH   8  10
BRANCH   8  12
HETATM   12  O   UNL     1     -19.658  -8.223  -4.988  1.00  0.00    -0.307 OA
HETATM   13  H   UNL     1     -19.837  -7.391  -5.465  1.00  0.00     0.222 HD
ENDBRANCH   8  12
ENDBRANCH   7   8
ENDBRANCH   1   7
BRANCH   2  14
HETATM   14  O   UNL     1     -22.072  -9.622  -0.519  1.00  0.00    -0.286 OA
BRANCH  14  15
HETATM   15  P   UNL     1     -22.152  -8.214   0.247  1.00  0.00     0.391 P 
HETATM   16  O   UNL     1     -21.291  -8.075   1.452  1.00  0.00    -0.632 OA
BRANCH  15  17
HETATM   17  O   UNL     1     -22.060  -7.037  -0.816  1.00  0.00    -0.307 OA
HETATM   18  H   UNL     1     -21.333  -7.175  -1.450  1.00  0.00     0.222 HD
ENDBRANCH  15  17
BRANCH  15  19
HETATM   19  O   UNL     1     -23.694  -8.141   0.653  1.00  0.00    -0.307 OA
HETATM   20  H   UNL     1     -24.078  -7.293   0.357  1.00  0.00     0.222 HD
ENDBRANCH  15  19
ENDBRANCH  14  15
ENDBRANCH   2  14
BRANCH   6  21
HETATM   21  O   UNL     1     -18.418  -9.719  -2.365  1.00  0.00    -0.286 OA
BRANCH  21  22
HETATM   22  P   UNL     1     -17.012  -9.679  -3.371  1.00  0.00     0.391 P 
HETATM   23  O   UNL     1     -16.291 -10.704  -2.500  1.00  0.00    -0.632 OA
BRANCH  22  24
HETATM   24  O   UNL     1     -17.773 -10.611  -4.469  1.00  0.00    -0.307 OA
HETATM   25  H   UNL     1     -17.412 -10.375  -5.345  1.00  0.00     0.222 HD
ENDBRANCH  22  24
BRANCH  22  26
HETATM   26  O   UNL     1     -15.606  -9.639  -4.378  1.00  0.00    -0.307 OA
HETATM   27  H   UNL     1     -15.213  -8.764  -4.185  1.00  0.00     0.222 HD
ENDBRANCH  22  26
ENDBRANCH  21  22
ENDBRANCH   6  21
BRANCH   3  28
HETATM   28  O   UNL     1     -21.405 -12.556  -0.671  1.00  0.00    -0.286 OA
BRANCH  28  29
HETATM   29  P   UNL     1     -22.421 -13.056   0.637  1.00  0.00     0.391 P 
HETATM   30  O   UNL     1     -23.395 -13.682  -0.354  1.00  0.00    -0.632 OA
BRANCH  29  31
HETATM   31  O   UNL     1     -21.369 -14.226   1.034  1.00  0.00    -0.307 OA
HETATM   32  H   UNL     1     -21.886 -14.890   1.532  1.00  0.00     0.222 HD
ENDBRANCH  29  31
BRANCH  29  33
HETATM   33  O   UNL     1     -23.437 -13.556   1.945  1.00  0.00    -0.307 OA
HETATM   34  H   UNL     1     -23.935 -12.792   2.282  1.00  0.00     0.222 HD
ENDBRANCH  29  33
ENDBRANCH  28  29
ENDBRANCH   3  28
BRANCH   5  35
HETATM   35  O   UNL     1     -19.483 -13.230  -2.470  1.00  0.00    -0.286 OA
BRANCH  35  36
HETATM   36  P   UNL     1     -18.664 -14.165  -3.470  1.00  0.00     0.391 P 
HETATM   37  O   UNL     1     -19.307 -14.428  -4.793  1.00  0.00    -0.632 OA
BRANCH  36  38
HETATM   38  O   UNL     1     -17.221 -13.502  -3.540  1.00  0.00    -0.307 OA
HETATM   39  H   UNL     1     -16.804 -13.491  -2.659  1.00  0.00     0.222 HD
ENDBRANCH  36  38
BRANCH  36  40
HETATM   40  O   UNL     1     -18.383 -15.483  -2.629  1.00  0.00    -0.307 OA
HETATM   41  H   UNL     1     -17.527 -15.450  -2.168  1.00  0.00     0.222 HD
ENDBRANCH  36  40
ENDBRANCH  35  36
ENDBRANCH   5  35
BRANCH   4  42
HETATM   42  O   UNL     1     -18.710 -13.111   0.289  1.00  0.00    -0.286 OA
BRANCH  42  43
HETATM   43  P   UNL     1     -17.159 -13.359   0.600  1.00  0.00     0.391 P 
HETATM   44  O   UNL     1     -16.340 -12.145   0.868  1.00  0.00    -0.632 OA
BRANCH  43  45
HETATM   45  O   UNL     1     -17.104 -14.394   1.816  1.00  0.00    -0.307 OA
HETATM   46  H   UNL     1     -16.199 -14.741   1.927  1.00  0.00     0.222 HD
ENDBRANCH  43  45
BRANCH  43  47
HETATM   47  O   UNL     1     -16.572 -14.220  -0.605  1.00  0.00    -0.307 OA
HETATM   48  H   UNL     1     -15.999 -13.685  -1.184  1.00  0.00     0.222 HD
ENDBRANCH  43  47
ENDBRANCH  42  43
ENDBRANCH   4  42
TORSDOF 24
BEGIN_RES ARG D 557
REMARK  4 active torsions:
REMARK  status: ('A' for Active; 'I' for Inactive)
REMARK    1  A    between atoms: CA   and  CB  
REMARK    2  A    between atoms: CB   and  CG  
REMARK    3  A    between atoms: CG   and  CD  
REMARK    4  A    between atoms: CD   and  NE  
REMARK       I    between atoms: NE   and  CZ  
REMARK       I    between atoms: CZ   and  NH1 
REMARK       I    between atoms: CZ   and  NH2 
ROOT
ATOM      1  CA  ARG D 557     -26.217   2.705 -17.014  1.00 35.49     0.159 C 
ENDROOT
BRANCH   1   2
ATOM      2  CB  ARG D 557     -26.789   1.319 -17.183  1.00 35.49     0.034 C 
BRANCH   2   3
ATOM      3  CG  ARG D 557     -25.836   0.203 -17.158  1.00 35.49     0.027 C 
BRANCH   3   4
ATOM      4  CD  ARG D 557     -24.750   0.411 -16.172  1.00 35.49     0.116 C 
BRANCH   4   5
ATOM      5  NE  ARG D 557     -24.896  -0.436 -15.018  1.00 35.49    -0.212 N 
ATOM      6  CZ  ARG D 557     -24.081  -1.406 -14.669  1.00 35.49     0.666 C 
ATOM      7  NH1 ARG D 557     -23.013  -1.724 -15.376  1.00 35.49    -0.235 N 
ATOM      8  NH2 ARG D 557     -24.357  -2.058 -13.577  1.00 35.49    -0.235 N 
ATOM      9  HH  ARG D 557     -22.811  -1.307 -16.097  1.00 35.49     0.174 HD
ATOM     10  HH  ARG D 557     -22.516  -2.365 -15.098  1.00 35.49     0.174 HD
ATOM     11  HH  ARG D 557     -25.050  -1.826 -13.136  1.00 35.49     0.174 HD
ATOM     12  HH  ARG D 557     -23.853  -2.689 -13.317  1.00 35.49     0.174 HD
ATOM     13  HE  ARG D 557     -25.597  -0.349 -14.545  1.00 35.49     0.178 HD
ENDBRANCH   4   5
ENDBRANCH   3   4
ENDBRANCH   2   3
ENDBRANCH   1   2
END_RES ARG D 557
BEGIN_RES GLU D 570
REMARK  3 active torsions:
REMARK  status: ('A' for Active; 'I' for Inactive)
REMARK    5  A    between atoms: CA   and  CB  
REMARK    6  A    between atoms: CB   and  CG  
REMARK    7  A    between atoms: CG   and  CD  
ROOT
ATOM     14  CA  GLU D 570     -18.033  -6.348 -13.375  1.00 32.92     0.160 C 
ENDROOT
BRANCH  14  15
ATOM     15  CB  GLU D 570     -19.500  -6.345 -13.794  1.00 32.92     0.043 C 
BRANCH  15  16
ATOM     16  CG  GLU D 570     -20.442  -5.530 -12.984  1.00 32.92     0.100 C 
BRANCH  16  17
ATOM     17  CD  GLU D 570     -21.739  -5.241 -13.702  1.00 32.92     0.185 C 
ATOM     18  OE1 GLU D 570     -22.299  -4.143 -13.522  1.00 32.92    -0.647 OA
ATOM     19  OE2 GLU D 570     -22.210  -6.130 -14.439  1.00 32.92    -0.647 OA
ENDBRANCH  16  17
ENDBRANCH  15  16
ENDBRANCH  14  15
END_RES GLU D 570
ENDMDL
MODEL 6
REMARK VINA RESULT:      -4.0      2.239      5.289
REMARK  24 active torsions:
REMARK  status: ('A' for Active; 'I' for Inactive)
REMARK    1  A    between atoms: C_1  and  O_32 
REMARK    2  A    between atoms: C_2  and  O_27 
REMARK    3  A    between atoms: C_3  and  O_22 
REMARK    4  A    between atoms: C_4  and  O_17 
REMARK    5  A    between atoms: C_5  and  O_12 
REMARK    6  A    between atoms: C_6  and  O_7 
REMARK    7  A    between atoms: O_7  and  P_8 
REMARK    8  A    between atoms: P_8  and  O_10 
REMARK    9  A    between atoms: P_8  and  O_11 
REMARK   10  A    between atoms: O_12  and  P_13 
REMARK   11  A    between atoms: P_13  and  O_15 
REMARK   12  A    between atoms: P_13  and  O_16 
REMARK   13  A    between atoms: O_17  and  P_18 
REMARK   14  A    between atoms: P_18  and  O_20 
REMARK   15  A    between atoms: P_18  and  O_21 
REMARK   16  A    between atoms: O_22  and  P_23 
REMARK   17  A    between atoms: P_23  and  O_25 
REMARK   18  A    between atoms: P_23  and  O_26 
REMARK   19  A    between atoms: O_27  and  P_28 
REMARK   20  A    between atoms: P_28  and  O_30 
REMARK   21  A    between atoms: P_28  and  O_31 
REMARK   22  A    between atoms: O_32  and  P_33 
REMARK   23  A    between atoms: P_33  and  O_35 
REMARK   24  A    between atoms: P_33  and  O_36 
ROOT
HETATM    1  C   UNL     1     -19.815 -11.944  -1.386  1.00  0.00     0.198 C 
HETATM    2  C   UNL     1     -18.280 -12.003  -1.275  1.00  0.00     0.198 C 
HETATM    3  C   UNL     1     -17.688 -12.213  -2.701  1.00  0.00     0.198 C 
HETATM    4  C   UNL     1     -17.983 -10.965  -3.532  1.00  0.00     0.198 C 
HETATM    5  C   UNL     1     -19.506 -10.731  -3.650  1.00  0.00     0.198 C 
HETATM    6  C   UNL     1     -20.174 -10.724  -2.246  1.00  0.00     0.198 C 
ENDROOT
BRANCH   1   7
HETATM    7  O   UNL     1     -20.343 -11.864  -0.063  1.00  0.00    -0.286 OA
BRANCH   7   8
HETATM    8  P   UNL     1     -21.803 -12.389   0.311  1.00  0.00     0.391 P 
HETATM    9  O   UNL     1     -21.901 -13.148   1.586  1.00  0.00    -0.632 OA
BRANCH   8  10
HETATM   10  O   UNL     1     -22.680 -11.058   0.319  1.00  0.00    -0.307 OA
HETATM   11  H   UNL     1     -23.361 -11.082   1.018  1.00  0.00     0.222 HD
ENDBRANCH   8  10
BRANCH   8  12
HETATM   12  O   UNL     1     -22.385 -13.155  -0.960  1.00  0.00    -0.307 OA
HETATM   13  H   UNL     1     -23.352 -13.256  -0.878  1.00  0.00     0.222 HD
ENDBRANCH   8  12
ENDBRANCH   7   8
ENDBRANCH   1   7
BRANCH   2  14
HETATM   14  O   UNL     1     -17.900 -13.060  -0.390  1.00  0.00    -0.286 OA
BRANCH  14  15
HETATM   15  P   UNL     1     -16.525 -12.931   0.428  1.00  0.00     0.391 P 
HETATM   16  O   UNL     1     -15.897 -11.583   0.442  1.00  0.00    -0.632 OA
BRANCH  15  17
HETATM   17  O   UNL     1     -16.691 -13.638   1.841  1.00  0.00    -0.307 OA
HETATM   18  H   UNL     1     -15.987 -14.291   2.007  1.00  0.00     0.222 HD
ENDBRANCH  15  17
BRANCH  15  19
HETATM   19  O   UNL     1     -15.585 -13.975  -0.329  1.00  0.00    -0.307 OA
HETATM   20  H   UNL     1     -15.040 -13.513  -0.995  1.00  0.00     0.222 HD
ENDBRANCH  15  19
ENDBRANCH  14  15
ENDBRANCH   2  14
BRANCH   6  21
HETATM   21  O   UNL     1     -19.752  -9.582  -1.504  1.00  0.00    -0.286 OA
BRANCH  21  22
HETATM   22  P   UNL     1     -20.980  -8.364  -1.476  1.00  0.00     0.391 P 
HETATM   23  O   UNL     1     -22.049  -9.353  -1.936  1.00  0.00    -0.632 OA
BRANCH  22  24
HETATM   24  O   UNL     1     -21.057  -8.481   0.147  1.00  0.00    -0.307 OA
HETATM   25  H   UNL     1     -21.590  -9.272   0.353  1.00  0.00     0.222 HD
ENDBRANCH  22  24
BRANCH  22  26
HETATM   26  O   UNL     1     -22.208  -7.147  -1.448  1.00  0.00    -0.307 OA
HETATM   27  H   UNL     1     -23.020  -7.636  -1.693  1.00  0.00     0.222 HD
ENDBRANCH  22  26
ENDBRANCH  21  22
ENDBRANCH   6  21
BRANCH   3  28
HETATM   28  O   UNL     1     -18.281 -13.353  -3.364  1.00  0.00    -0.286 OA
BRANCH  28  29
HETATM   29  P   UNL     1     -17.007 -14.490  -3.644  1.00  0.00     0.391 P 
HETATM   30  O   UNL     1     -15.980 -13.455  -3.198  1.00  0.00    -0.632 OA
BRANCH  29  31
HETATM   31  O   UNL     1     -17.423 -15.316  -2.310  1.00  0.00    -0.307 OA
HETATM   32  H   UNL     1     -16.598 -15.425  -1.798  1.00  0.00     0.222 HD
ENDBRANCH  29  31
BRANCH  29  33
HETATM   33  O   UNL     1     -15.733 -15.627  -3.924  1.00  0.00    -0.307 OA
HETATM   34  H   UNL     1     -15.847 -16.395  -3.339  1.00  0.00     0.222 HD
ENDBRANCH  29  33
ENDBRANCH  28  29
ENDBRANCH   3  28
BRANCH   5  35
HETATM   35  O   UNL     1     -20.129 -11.701  -4.478  1.00  0.00    -0.286 OA
BRANCH  35  36
HETATM   36  P   UNL     1     -20.711 -11.223  -5.884  1.00  0.00     0.391 P 
HETATM   37  O   UNL     1     -21.215  -9.817  -5.938  1.00  0.00    -0.632 OA
BRANCH  36  38
HETATM   38  O   UNL     1     -19.563 -11.569  -6.928  1.00  0.00    -0.307 OA
HETATM   39  H   UNL     1     -19.936 -11.704  -7.818  1.00  0.00     0.222 HD
ENDBRANCH  36  38
BRANCH  36  40
HETATM   40  O   UNL     1     -21.818 -12.306  -6.237  1.00  0.00    -0.307 OA
HETATM   41  H   UNL     1     -21.474 -13.009  -6.815  1.00  0.00     0.222 HD
ENDBRANCH  36  40
ENDBRANCH  35  36
ENDBRANCH   5  35
BRANCH   4  42
HETATM   42  O   UNL     1     -17.370 -10.995  -4.816  1.00  0.00    -0.286 OA
BRANCH  42  43
HETATM   43  P   UNL     1     -15.983 -10.225  -5.026  1.00  0.00     0.391 P 
HETATM   44  O   UNL     1     -15.885  -9.366  -6.238  1.00  0.00    -0.632 OA
BRANCH  43  45
HETATM   45  O   UNL     1     -15.721  -9.395  -3.685  1.00  0.00    -0.307 OA
HETATM   46  H   UNL     1     -14.879  -9.669  -3.276  1.00  0.00     0.222 HD
ENDBRANCH  43  45
BRANCH  43  47
HETATM   47  O   UNL     1     -14.827 -11.321  -4.978  1.00  0.00    -0.307 OA
HETATM   48  H   UNL     1     -13.946 -10.920  -5.081  1.00  0.00     0.222 HD
ENDBRANCH  43  47
ENDBRANCH  42  43
ENDBRANCH   4  42
TORSDOF 24
BEGIN_RES ARG D 557
REMARK  4 active torsions:
REMARK  status: ('A' for Active; 'I' for Inactive)
REMARK    1  A    between atoms: CA   and  CB  
REMARK    2  A    between atoms: CB   and  CG  
REMARK    3  A    between atoms: CG   and  CD  
REMARK    4  A    between atoms: CD   and  NE  
REMARK       I    between atoms: NE   and  CZ  
REMARK       I    between atoms: CZ   and  NH1 
REMARK       I    between atoms: CZ   and  NH2 
ROOT
ATOM      1  CA  ARG D 557     -26.217   2.705 -17.014  1.00 35.49     0.159 C 
ENDROOT
BRANCH   1   2
ATOM      2  CB  ARG D 557     -26.789   1.319 -17.183  1.00 35.49     0.034 C 
BRANCH   2   3
ATOM      3  CG  ARG D 557     -28.231   1.226 -17.440  1.00 35.49     0.027 C 
BRANCH   3   4
ATOM      4  CD  ARG D 557     -28.913   0.302 -16.505  1.00 35.49     0.116 C 
BRANCH   4   5
ATOM      5  NE  ARG D 557     -28.133  -0.879 -16.244  1.00 35.49    -0.212 N 
ATOM      6  CZ  ARG D 557     -28.377  -2.080 -16.718  1.00 35.49     0.666 C 
ATOM      7  NH1 ARG D 557     -29.409  -2.338 -17.500  1.00 35.49    -0.235 N 
ATOM      8  NH2 ARG D 557     -27.550  -3.032 -16.395  1.00 35.49    -0.235 N 
ATOM      9  HH  ARG D 557     -29.965  -1.726 -17.727  1.00 35.49     0.174 HD
ATOM     10  HH  ARG D 557     -29.516  -3.140 -17.781  1.00 35.49     0.174 HD
ATOM     11  HH  ARG D 557     -26.888  -2.834 -15.895  1.00 35.49     0.174 HD
ATOM     12  HH  ARG D 557     -27.673  -3.819 -16.685  1.00 35.49     0.174 HD
ATOM     13  HE  ARG D 557     -27.490  -0.819 -15.691  1.00 35.49     0.178 HD
ENDBRANCH   4   5
ENDBRANCH   3   4
ENDBRANCH   2   3
ENDBRANCH   1   2
END_RES ARG D 557
BEGIN_RES GLU D 570
REMARK  3 active torsions:
REMARK  status: ('A' for Active; 'I' for Inactive)
REMARK    5  A    between atoms: CA   and  CB  
REMARK    6  A    between atoms: CB   and  CG  
REMARK    7  A    between atoms: CG   and  CD  
ROOT
ATOM     14  CA  GLU D 570     -18.033  -6.348 -13.375  1.00 32.92     0.160 C 
ENDROOT
BRANCH  14  15
ATOM     15  CB  GLU D 570     -19.500  -6.345 -13.794  1.00 32.92     0.043 C 
BRANCH  15  16
ATOM     16  CG  GLU D 570     -20.075  -7.625 -14.283  1.00 32.92     0.100 C 
BRANCH  16  17
ATOM     17  CD  GLU D 570     -20.730  -7.497 -15.638  1.00 32.92     0.185 C 
ATOM     18  OE1 GLU D 570     -20.557  -6.454 -16.298  1.00 32.92    -0.647 OA
ATOM     19  OE2 GLU D 570     -21.438  -8.443 -16.037  1.00 32.92    -0.647 OA
ENDBRANCH  16  17
ENDBRANCH  15  16
ENDBRANCH  14  15
END_RES GLU D 570
ENDMDL
MODEL 7
REMARK VINA RESULT:      -3.9      1.469      5.792
REMARK  24 active torsions:
REMARK  status: ('A' for Active; 'I' for Inactive)
REMARK    1  A    between atoms: C_1  and  O_32 
REMARK    2  A    between atoms: C_2  and  O_27 
REMARK    3  A    between atoms: C_3  and  O_22 
REMARK    4  A    between atoms: C_4  and  O_17 
REMARK    5  A    between atoms: C_5  and  O_12 
REMARK    6  A    between atoms: C_6  and  O_7 
REMARK    7  A    between atoms: O_7  and  P_8 
REMARK    8  A    between atoms: P_8  and  O_10 
REMARK    9  A    between atoms: P_8  and  O_11 
REMARK   10  A    between atoms: O_12  and  P_13 
REMARK   11  A    between atoms: P_13  and  O_15 
REMARK   12  A    between atoms: P_13  and  O_16 
REMARK   13  A    between atoms: O_17  and  P_18 
REMARK   14  A    between atoms: P_18  and  O_20 
REMARK   15  A    between atoms: P_18  and  O_21 
REMARK   16  A    between atoms: O_22  and  P_23 
REMARK   17  A    between atoms: P_23  and  O_25 
REMARK   18  A    between atoms: P_23  and  O_26 
REMARK   19  A    between atoms: O_27  and  P_28 
REMARK   20  A    between atoms: P_28  and  O_30 
REMARK   21  A    between atoms: P_28  and  O_31 
REMARK   22  A    between atoms: O_32  and  P_33 
REMARK   23  A    between atoms: P_33  and  O_35 
REMARK   24  A    between atoms: P_33  and  O_36 
ROOT
HETATM    1  C   UNL     1     -19.293 -12.778  -3.651  1.00  0.00     0.198 C 
HETATM    2  C   UNL     1     -20.726 -12.214  -3.688  1.00  0.00     0.198 C 
HETATM    3  C   UNL     1     -21.166 -11.884  -2.230  1.00  0.00     0.198 C 
HETATM    4  C   UNL     1     -20.297 -10.738  -1.715  1.00  0.00     0.198 C 
HETATM    5  C   UNL     1     -18.804 -11.139  -1.710  1.00  0.00     0.198 C 
HETATM    6  C   UNL     1     -18.372 -11.678  -3.104  1.00  0.00     0.198 C 
ENDROOT
BRANCH   1   7
HETATM    7  O   UNL     1     -18.949 -13.178  -4.977  1.00  0.00    -0.286 OA
BRANCH   7   8
HETATM    8  P   UNL     1     -18.113 -14.503  -5.284  1.00  0.00     0.391 P 
HETATM    9  O   UNL     1     -18.808 -15.517  -6.120  1.00  0.00    -0.632 OA
BRANCH   8  10
HETATM   10  O   UNL     1     -16.785 -13.947  -5.967  1.00  0.00    -0.307 OA
HETATM   11  H   UNL     1     -16.392 -13.221  -5.446  1.00  0.00     0.222 HD
ENDBRANCH   8  10
BRANCH   8  12
HETATM   12  O   UNL     1     -17.557 -15.059  -3.897  1.00  0.00    -0.307 OA
HETATM   13  H   UNL     1     -18.288 -15.432  -3.368  1.00  0.00     0.222 HD
ENDBRANCH   8  12
ENDBRANCH   7   8
ENDBRANCH   1   7
BRANCH   2  14
HETATM   14  O   UNL     1     -21.604 -13.166  -4.296  1.00  0.00    -0.286 OA
BRANCH  14  15
HETATM   15  P   UNL     1     -22.107 -12.908  -5.798  1.00  0.00     0.391 P 
HETATM   16  O   UNL     1     -23.581 -12.899  -6.001  1.00  0.00    -0.632 OA
BRANCH  15  17
HETATM   17  O   UNL     1     -21.311 -11.678  -6.411  1.00  0.00    -0.307 OA
HETATM   18  H   UNL     1     -21.021 -11.850  -7.325  1.00  0.00     0.222 HD
ENDBRANCH  15  17
BRANCH  15  19
HETATM   19  O   UNL     1     -21.444 -14.127  -6.587  1.00  0.00    -0.307 OA
HETATM   20  H   UNL     1     -21.298 -14.878  -5.980  1.00  0.00     0.222 HD
ENDBRANCH  15  19
ENDBRANCH  14  15
ENDBRANCH   2  14
BRANCH   6  21
HETATM   21  O   UNL     1     -18.397 -10.629  -4.068  1.00  0.00    -0.286 OA
BRANCH  21  22
HETATM   22  P   UNL     1     -16.801 -10.226  -4.597  1.00  0.00     0.391 P 
HETATM   23  O   UNL     1     -16.559  -9.341  -3.377  1.00  0.00    -0.632 OA
BRANCH  22  24
HETATM   24  O   UNL     1     -16.269 -11.682  -4.096  1.00  0.00    -0.307 OA
HETATM   25  H   UNL     1     -16.986 -12.323  -4.266  1.00  0.00     0.222 HD
ENDBRANCH  22  24
BRANCH  22  26
HETATM   26  O   UNL     1     -15.204  -9.824  -5.127  1.00  0.00    -0.307 OA
HETATM   27  H   UNL     1     -15.213 -10.058  -6.077  1.00  0.00     0.222 HD
ENDBRANCH  22  26
ENDBRANCH  21  22
ENDBRANCH   6  21
BRANCH   3  28
HETATM   28  O   UNL     1     -20.995 -13.017  -1.349  1.00  0.00    -0.286 OA
BRANCH  28  29
HETATM   29  P   UNL     1     -22.579 -13.537  -0.886  1.00  0.00     0.391 P 
HETATM   30  O   UNL     1     -22.398 -12.883   0.479  1.00  0.00    -0.632 OA
BRANCH  29  31
HETATM   31  O   UNL     1     -23.251 -12.409  -1.840  1.00  0.00    -0.307 OA
HETATM   32  H   UNL     1     -24.013 -12.058  -1.339  1.00  0.00     0.222 HD
ENDBRANCH  29  31
BRANCH  29  33
HETATM   33  O   UNL     1     -24.163 -14.057  -0.422  1.00  0.00    -0.307 OA
HETATM   34  H   UNL     1     -24.822 -13.668  -1.022  1.00  0.00     0.222 HD
ENDBRANCH  29  33
ENDBRANCH  28  29
ENDBRANCH   3  28
BRANCH   5  35
HETATM   35  O   UNL     1     -18.518 -12.103  -0.708  1.00  0.00    -0.286 OA
BRANCH  35  36
HETATM   36  P   UNL     1     -16.987 -12.393  -0.364  1.00  0.00     0.391 P 
HETATM   37  O   UNL     1     -16.493 -13.765  -0.691  1.00  0.00    -0.632 OA
BRANCH  36  38
HETATM   38  O   UNL     1     -16.192 -11.206  -1.061  1.00  0.00    -0.307 OA
HETATM   39  H   UNL     1     -16.554 -11.022  -1.947  1.00  0.00     0.222 HD
ENDBRANCH  36  38
BRANCH  36  40
HETATM   40  O   UNL     1     -16.856 -12.023   1.175  1.00  0.00    -0.307 OA
HETATM   41  H   UNL     1     -17.710 -12.075   1.640  1.00  0.00     0.222 HD
ENDBRANCH  36  40
ENDBRANCH  35  36
ENDBRANCH   5  35
BRANCH   4  42
HETATM   42  O   UNL     1     -20.702 -10.265  -0.435  1.00  0.00    -0.286 OA
BRANCH  42  43
HETATM   43  P   UNL     1     -21.864  -9.168  -0.351  1.00  0.00     0.391 P 
HETATM   44  O   UNL     1     -21.977  -8.239  -1.508  1.00  0.00    -0.632 OA
BRANCH  43  45
HETATM   45  O   UNL     1     -23.223  -9.972  -0.098  1.00  0.00    -0.307 OA
HETATM   46  H   UNL     1     -23.993  -9.387  -0.230  1.00  0.00     0.222 HD
ENDBRANCH  43  45
BRANCH  43  47
HETATM   47  O   UNL     1     -21.672  -8.387   1.024  1.00  0.00    -0.307 OA
HETATM   48  H   UNL     1     -21.488  -7.441   0.878  1.00  0.00     0.222 HD
ENDBRANCH  43  47
ENDBRANCH  42  43
ENDBRANCH   4  42
TORSDOF 24
BEGIN_RES ARG D 557
REMARK  4 active torsions:
REMARK  status: ('A' for Active; 'I' for Inactive)
REMARK    1  A    between atoms: CA   and  CB  
REMARK    2  A    between atoms: CB   and  CG  
REMARK    3  A    between atoms: CG   and  CD  
REMARK    4  A    between atoms: CD   and  NE  
REMARK       I    between atoms: NE   and  CZ  
REMARK       I    between atoms: CZ   and  NH1 
REMARK       I    between atoms: CZ   and  NH2 
ROOT
ATOM      1  CA  ARG D 557     -26.217   2.705 -17.014  1.00 35.49     0.159 C 
ENDROOT
BRANCH   1   2
ATOM      2  CB  ARG D 557     -26.789   1.319 -17.183  1.00 35.49     0.034 C 
BRANCH   2   3
ATOM      3  CG  ARG D 557     -25.836   0.203 -17.154  1.00 35.49     0.027 C 
BRANCH   3   4
ATOM      4  CD  ARG D 557     -24.753   0.411 -16.165  1.00 35.49     0.116 C 
BRANCH   4   5
ATOM      5  NE  ARG D 557     -24.902  -0.437 -15.012  1.00 35.49    -0.212 N 
ATOM      6  CZ  ARG D 557     -24.091  -1.412 -14.666  1.00 35.49     0.666 C 
ATOM      7  NH1 ARG D 557     -23.026  -1.734 -15.376  1.00 35.49    -0.235 N 
ATOM      8  NH2 ARG D 557     -24.368  -2.065 -13.575  1.00 35.49    -0.235 N 
ATOM      9  HH  ARG D 557     -22.823  -1.316 -16.097  1.00 35.49     0.174 HD
ATOM     10  HH  ARG D 557     -22.532  -2.378 -15.101  1.00 35.49     0.174 HD
ATOM     11  HH  ARG D 557     -25.059  -1.830 -13.133  1.00 35.49     0.174 HD
ATOM     12  HH  ARG D 557     -23.866  -2.698 -13.318  1.00 35.49     0.174 HD
ATOM     13  HE  ARG D 557     -25.601  -0.347 -14.537  1.00 35.49     0.178 HD
ENDBRANCH   4   5
ENDBRANCH   3   4
ENDBRANCH   2   3
ENDBRANCH   1   2
END_RES ARG D 557
BEGIN_RES GLU D 570
REMARK  3 active torsions:
REMARK  status: ('A' for Active; 'I' for Inactive)
REMARK    5  A    between atoms: CA   and  CB  
REMARK    6  A    between atoms: CB   and  CG  
REMARK    7  A    between atoms: CG   and  CD  
ROOT
ATOM     14  CA  GLU D 570     -18.033  -6.348 -13.375  1.00 32.92     0.160 C 
ENDROOT
BRANCH  14  15
ATOM     15  CB  GLU D 570     -19.500  -6.345 -13.794  1.00 32.92     0.043 C 
BRANCH  15  16
ATOM     16  CG  GLU D 570     -20.443  -5.535 -12.980  1.00 32.92     0.100 C 
BRANCH  16  17
ATOM     17  CD  GLU D 570     -21.740  -5.243 -13.697  1.00 32.92     0.185 C 
ATOM     18  OE1 GLU D 570     -22.212  -6.101 -14.468  1.00 32.92    -0.647 OA
ATOM     19  OE2 GLU D 570     -22.283  -4.138 -13.498  1.00 32.92    -0.647 OA
ENDBRANCH  16  17
ENDBRANCH  15  16
ENDBRANCH  14  15
END_RES GLU D 570
ENDMDL
MODEL 8
REMARK VINA RESULT:      -3.8      1.689      5.545
REMARK  24 active torsions:
REMARK  status: ('A' for Active; 'I' for Inactive)
REMARK    1  A    between atoms: C_1  and  O_32 
REMARK    2  A    between atoms: C_2  and  O_27 
REMARK    3  A    between atoms: C_3  and  O_22 
REMARK    4  A    between atoms: C_4  and  O_17 
REMARK    5  A    between atoms: C_5  and  O_12 
REMARK    6  A    between atoms: C_6  and  O_7 
REMARK    7  A    between atoms: O_7  and  P_8 
REMARK    8  A    between atoms: P_8  and  O_10 
REMARK    9  A    between atoms: P_8  and  O_11 
REMARK   10  A    between atoms: O_12  and  P_13 
REMARK   11  A    between atoms: P_13  and  O_15 
REMARK   12  A    between atoms: P_13  and  O_16 
REMARK   13  A    between atoms: O_17  and  P_18 
REMARK   14  A    between atoms: P_18  and  O_20 
REMARK   15  A    between atoms: P_18  and  O_21 
REMARK   16  A    between atoms: O_22  and  P_23 
REMARK   17  A    between atoms: P_23  and  O_25 
REMARK   18  A    between atoms: P_23  and  O_26 
REMARK   19  A    between atoms: O_27  and  P_28 
REMARK   20  A    between atoms: P_28  and  O_30 
REMARK   21  A    between atoms: P_28  and  O_31 
REMARK   22  A    between atoms: O_32  and  P_33 
REMARK   23  A    between atoms: P_33  and  O_35 
REMARK   24  A    between atoms: P_33  and  O_36 
ROOT
HETATM    1  C   UNL     1     -17.559 -12.777  -2.407  1.00  0.00     0.198 C 
HETATM    2  C   UNL     1     -17.783 -11.381  -3.019  1.00  0.00     0.198 C 
HETATM    3  C   UNL     1     -19.308 -11.064  -2.985  1.00  0.00     0.198 C 
HETATM    4  C   UNL     1     -19.739 -10.936  -1.525  1.00  0.00     0.198 C 
HETATM    5  C   UNL     1     -19.483 -12.254  -0.758  1.00  0.00     0.198 C 
HETATM    6  C   UNL     1     -18.011 -12.721  -0.941  1.00  0.00     0.198 C 
ENDROOT
BRANCH   1   7
HETATM    7  O   UNL     1     -16.175 -13.096  -2.548  1.00  0.00    -0.286 OA
BRANCH   7   8
HETATM    8  P   UNL     1     -15.664 -14.571  -2.879  1.00  0.00     0.391 P 
HETATM    9  O   UNL     1     -14.503 -14.652  -3.803  1.00  0.00    -0.632 OA
BRANCH   8  10
HETATM   10  O   UNL     1     -15.349 -15.180  -1.440  1.00  0.00    -0.307 OA
HETATM   11  H   UNL     1     -15.705 -16.085  -1.348  1.00  0.00     0.222 HD
ENDBRANCH   8  10
BRANCH   8  12
HETATM   12  O   UNL     1     -16.928 -15.434  -3.327  1.00  0.00    -0.307 OA
HETATM   13  H   UNL     1     -16.973 -15.481  -4.301  1.00  0.00     0.222 HD
ENDBRANCH   8  12
ENDBRANCH   7   8
ENDBRANCH   1   7
BRANCH   2  14
HETATM   14  O   UNL     1     -17.272 -11.351  -4.354  1.00  0.00    -0.286 OA
BRANCH  14  15
HETATM   15  P   UNL     1     -16.015 -10.409  -4.684  1.00  0.00     0.391 P 
HETATM   16  O   UNL     1     -16.016  -9.764  -6.025  1.00  0.00    -0.632 OA
BRANCH  15  17
HETATM   17  O   UNL     1     -15.745  -9.449  -3.449  1.00  0.00    -0.307 OA
HETATM   18  H   UNL     1     -15.544  -8.538  -3.731  1.00  0.00     0.222 HD
ENDBRANCH  15  17
BRANCH  15  19
HETATM   19  O   UNL     1     -14.792 -11.426  -4.557  1.00  0.00    -0.307 OA
HETATM   20  H   UNL     1     -14.144 -11.261  -5.269  1.00  0.00     0.222 HD
ENDBRANCH  15  19
ENDBRANCH  14  15
ENDBRANCH   2  14
BRANCH   6  21
HETATM   21  O   UNL     1     -17.122 -11.818  -0.289  1.00  0.00    -0.286 OA
BRANCH  21  22
HETATM   22  P   UNL     1     -16.379 -12.555   1.089  1.00  0.00     0.391 P 
HETATM   23  O   UNL     1     -17.100 -13.877   0.840  1.00  0.00    -0.632 OA
BRANCH  22  24
HETATM   24  O   UNL     1     -14.997 -12.734   0.246  1.00  0.00    -0.307 OA
HETATM   25  H   UNL     1     -14.509 -13.476   0.650  1.00  0.00     0.222 HD
ENDBRANCH  22  24
BRANCH  22  26
HETATM   26  O   UNL     1     -15.636 -13.291   2.466  1.00  0.00    -0.307 OA
HETATM   27  H   UNL     1     -16.047 -12.825   3.223  1.00  0.00     0.222 HD
ENDBRANCH  22  26
ENDBRANCH  21  22
ENDBRANCH   6  21
BRANCH   3  28
HETATM   28  O   UNL     1     -20.087 -12.115  -3.600  1.00  0.00    -0.286 OA
BRANCH  28  29
HETATM   29  P   UNL     1     -20.731 -11.469  -5.070  1.00  0.00     0.391 P 
HETATM   30  O   UNL     1     -20.312 -10.067  -4.641  1.00  0.00    -0.632 OA
BRANCH  29  31
HETATM   31  O   UNL     1     -19.482 -12.076  -5.909  1.00  0.00    -0.307 OA
HETATM   32  H   UNL     1     -19.476 -13.035  -5.718  1.00  0.00     0.222 HD
ENDBRANCH  29  31
BRANCH  29  33
HETATM   33  O   UNL     1     -21.376 -10.822  -6.539  1.00  0.00    -0.307 OA
HETATM   34  H   UNL     1     -20.647 -10.565  -7.130  1.00  0.00     0.222 HD
ENDBRANCH  29  33
ENDBRANCH  28  29
ENDBRANCH   3  28
BRANCH   5  35
HETATM   35  O   UNL     1     -20.372 -13.284  -1.163  1.00  0.00    -0.286 OA
BRANCH  35  36
HETATM   36  P   UNL     1     -21.271 -13.980  -0.044  1.00  0.00     0.391 P 
HETATM   37  O   UNL     1     -22.331 -14.907  -0.541  1.00  0.00    -0.632 OA
BRANCH  36  38
HETATM   38  O   UNL     1     -20.223 -14.628   0.960  1.00  0.00    -0.307 OA
HETATM   39  H   UNL     1     -20.048 -15.558   0.723  1.00  0.00     0.222 HD
ENDBRANCH  36  38
BRANCH  36  40
HETATM   40  O   UNL     1     -21.840 -12.766   0.809  1.00  0.00    -0.307 OA
HETATM   41  H   UNL     1     -22.090 -13.035   1.711  1.00  0.00     0.222 HD
ENDBRANCH  36  40
ENDBRANCH  35  36
ENDBRANCH   5  35
BRANCH   4  42
HETATM   42  O   UNL     1     -21.091 -10.516  -1.379  1.00  0.00    -0.286 OA
BRANCH  42  43
HETATM   43  P   UNL     1     -21.423  -9.324  -0.364  1.00  0.00     0.391 P 
HETATM   44  O   UNL     1     -20.836  -7.997  -0.693  1.00  0.00    -0.632 OA
BRANCH  43  45
HETATM   45  O   UNL     1     -23.017  -9.260  -0.253  1.00  0.00    -0.307 OA
HETATM   46  H   UNL     1     -23.321  -9.732   0.544  1.00  0.00     0.222 HD
ENDBRANCH  43  45
BRANCH  43  47
HETATM   47  O   UNL     1     -21.002  -9.819   1.091  1.00  0.00    -0.307 OA
HETATM   48  H   UNL     1     -20.293 -10.485   1.054  1.00  0.00     0.222 HD
ENDBRANCH  43  47
ENDBRANCH  42  43
ENDBRANCH   4  42
TORSDOF 24
BEGIN_RES ARG D 557
REMARK  4 active torsions:
REMARK  status: ('A' for Active; 'I' for Inactive)
REMARK    1  A    between atoms: CA   and  CB  
REMARK    2  A    between atoms: CB   and  CG  
REMARK    3  A    between atoms: CG   and  CD  
REMARK    4  A    between atoms: CD   and  NE  
REMARK       I    between atoms: NE   and  CZ  
REMARK       I    between atoms: CZ   and  NH1 
REMARK       I    between atoms: CZ   and  NH2 
ROOT
ATOM      1  CA  ARG D 557     -26.217   2.705 -17.014  1.00 35.49     0.159 C 
ENDROOT
BRANCH   1   2
ATOM      2  CB  ARG D 557     -26.789   1.319 -17.183  1.00 35.49     0.034 C 
BRANCH   2   3
ATOM      3  CG  ARG D 557     -25.932   0.197 -16.782  1.00 35.49     0.027 C 
BRANCH   3   4
ATOM      4  CD  ARG D 557     -26.686  -0.868 -16.082  1.00 35.49     0.116 C 
BRANCH   4   5
ATOM      5  NE  ARG D 557     -25.944  -1.424 -14.982  1.00 35.49    -0.212 N 
ATOM      6  CZ  ARG D 557     -25.916  -2.692 -14.637  1.00 35.49     0.666 C 
ATOM      7  NH1 ARG D 557     -26.604  -3.617 -15.282  1.00 35.49    -0.235 N 
ATOM      8  NH2 ARG D 557     -25.170  -3.023 -13.623  1.00 35.49    -0.235 N 
ATOM      9  HH  ARG D 557     -27.099  -3.423 -15.953  1.00 35.49     0.174 HD
ATOM     10  HH  ARG D 557     -26.545  -4.429 -15.014  1.00 35.49     0.174 HD
ATOM     11  HH  ARG D 557     -24.732  -2.406 -13.231  1.00 35.49     0.174 HD
ATOM     12  HH  ARG D 557     -25.124  -3.832 -13.374  1.00 35.49     0.174 HD
ATOM     13  HE  ARG D 557     -25.530  -0.889 -14.467  1.00 35.49     0.178 HD
ENDBRANCH   4   5
ENDBRANCH   3   4
ENDBRANCH   2   3
ENDBRANCH   1   2
END_RES ARG D 557
BEGIN_RES GLU D 570
REMARK  3 active torsions:
REMARK  status: ('A' for Active; 'I' for Inactive)
REMARK    5  A    between atoms: CA   and  CB  
REMARK    6  A    between atoms: CB   and  CG  
REMARK    7  A    between atoms: CG   and  CD  
ROOT
ATOM     14  CA  GLU D 570     -18.033  -6.348 -13.375  1.00 32.92     0.160 C 
ENDROOT
BRANCH  14  15
ATOM     15  CB  GLU D 570     -19.500  -6.345 -13.794  1.00 32.92     0.043 C 
BRANCH  15  16
ATOM     16  CG  GLU D 570     -20.439  -5.519 -12.992  1.00 32.92     0.100 C 
BRANCH  16  17
ATOM     17  CD  GLU D 570     -21.744  -5.251 -13.705  1.00 32.92     0.185 C 
ATOM     18  OE1 GLU D 570     -22.188  -6.104 -14.497  1.00 32.92    -0.647 OA
ATOM     19  OE2 GLU D 570     -22.320  -4.168 -13.482  1.00 32.92    -0.647 OA
ENDBRANCH  16  17
ENDBRANCH  15  16
ENDBRANCH  14  15
END_RES GLU D 570
ENDMDL
MODEL 9
REMARK VINA RESULT:      -3.8      1.695      5.373
REMARK  24 active torsions:
REMARK  status: ('A' for Active; 'I' for Inactive)
REMARK    1  A    between atoms: C_1  and  O_32 
REMARK    2  A    between atoms: C_2  and  O_27 
REMARK    3  A    between atoms: C_3  and  O_22 
REMARK    4  A    between atoms: C_4  and  O_17 
REMARK    5  A    between atoms: C_5  and  O_12 
REMARK    6  A    between atoms: C_6  and  O_7 
REMARK    7  A    between atoms: O_7  and  P_8 
REMARK    8  A    between atoms: P_8  and  O_10 
REMARK    9  A    between atoms: P_8  and  O_11 
REMARK   10  A    between atoms: O_12  and  P_13 
REMARK   11  A    between atoms: P_13  and  O_15 
REMARK   12  A    between atoms: P_13  and  O_16 
REMARK   13  A    between atoms: O_17  and  P_18 
REMARK   14  A    between atoms: P_18  and  O_20 
REMARK   15  A    between atoms: P_18  and  O_21 
REMARK   16  A    between atoms: O_22  and  P_23 
REMARK   17  A    between atoms: P_23  and  O_25 
REMARK   18  A    between atoms: P_23  and  O_26 
REMARK   19  A    between atoms: O_27  and  P_28 
REMARK   20  A    between atoms: P_28  and  O_30 
REMARK   21  A    between atoms: P_28  and  O_31 
REMARK   22  A    between atoms: O_32  and  P_33 
REMARK   23  A    between atoms: P_33  and  O_35 
REMARK   24  A    between atoms: P_33  and  O_36 
ROOT
HETATM    1  C   UNL     1     -17.975 -12.619  -1.213  1.00  0.00     0.198 C 
HETATM    2  C   UNL     1     -19.508 -12.548  -1.350  1.00  0.00     0.198 C 
HETATM    3  C   UNL     1     -19.857 -11.526  -2.472  1.00  0.00     0.198 C 
HETATM    4  C   UNL     1     -19.360 -12.085  -3.804  1.00  0.00     0.198 C 
HETATM    5  C   UNL     1     -17.829 -12.295  -3.775  1.00  0.00     0.198 C 
HETATM    6  C   UNL     1     -17.411 -13.143  -2.541  1.00  0.00     0.198 C 
ENDROOT
BRANCH   1   7
HETATM    7  O   UNL     1     -17.677 -13.474  -0.109  1.00  0.00    -0.286 OA
BRANCH   7   8
HETATM    8  P   UNL     1     -16.434 -13.221   0.860  1.00  0.00     0.391 P 
HETATM    9  O   UNL     1     -16.493 -13.922   2.170  1.00  0.00    -0.632 OA
BRANCH   8  10
HETATM   10  O   UNL     1     -15.186 -13.671  -0.023  1.00  0.00    -0.307 OA
HETATM   11  H   UNL     1     -14.501 -14.105   0.522  1.00  0.00     0.222 HD
ENDBRANCH   8  10
BRANCH   8  12
HETATM   12  O   UNL     1     -16.210 -11.646   0.963  1.00  0.00    -0.307 OA
HETATM   13  H   UNL     1     -17.014 -11.173   0.677  1.00  0.00     0.222 HD
ENDBRANCH   8  12
ENDBRANCH   7   8
ENDBRANCH   1   7
BRANCH   2  14
HETATM   14  O   UNL     1     -20.088 -12.171  -0.099  1.00  0.00    -0.286 OA
BRANCH  14  15
HETATM   15  P   UNL     1     -21.672 -12.337   0.104  1.00  0.00     0.391 P 
HETATM   16  O   UNL     1     -22.465 -11.078   0.113  1.00  0.00    -0.632 OA
BRANCH  15  17
HETATM   17  O   UNL     1     -22.202 -13.489  -0.852  1.00  0.00    -0.307 OA
HETATM   18  H   UNL     1     -23.042 -13.248  -1.282  1.00  0.00     0.222 HD
ENDBRANCH  15  17
BRANCH  15  19
HETATM   19  O   UNL     1     -21.753 -13.056   1.526  1.00  0.00    -0.307 OA
HETATM   20  H   UNL     1     -20.994 -12.789   2.080  1.00  0.00     0.222 HD
ENDBRANCH  15  19
ENDBRANCH  14  15
ENDBRANCH   2  14
BRANCH   6  21
HETATM   21  O   UNL     1     -17.893 -14.478  -2.674  1.00  0.00    -0.286 OA
BRANCH  21  22
HETATM   22  P   UNL     1     -16.590 -15.597  -2.876  1.00  0.00     0.391 P 
HETATM   23  O   UNL     1     -15.548 -14.484  -2.797  1.00  0.00    -0.632 OA
BRANCH  22  24
HETATM   24  O   UNL     1     -16.746 -16.058  -1.322  1.00  0.00    -0.307 OA
HETATM   25  H   UNL     1     -16.184 -16.847  -1.199  1.00  0.00     0.222 HD
ENDBRANCH  22  24
BRANCH  22  26
HETATM   26  O   UNL     1     -15.287 -16.717  -3.079  1.00  0.00    -0.307 OA
HETATM   27  H   UNL     1     -15.735 -17.588  -3.091  1.00  0.00     0.222 HD
ENDBRANCH  22  26
ENDBRANCH  21  22
ENDBRANCH   6  21
BRANCH   3  28
HETATM   28  O   UNL     1     -19.221 -10.247  -2.248  1.00  0.00    -0.286 OA
BRANCH  28  29
HETATM   29  P   UNL     1     -20.473  -9.052  -2.262  1.00  0.00     0.391 P 
HETATM   30  O   UNL     1     -19.871  -8.432  -3.518  1.00  0.00    -0.632 OA
BRANCH  29  31
HETATM   31  O   UNL     1     -21.548 -10.155  -2.774  1.00  0.00    -0.307 OA
HETATM   32  H   UNL     1     -22.428  -9.771  -2.592  1.00  0.00     0.222 HD
ENDBRANCH  29  31
BRANCH  29  33
HETATM   33  O   UNL     1     -21.724  -7.858  -2.275  1.00  0.00    -0.307 OA
HETATM   34  H   UNL     1     -22.586  -8.288  -2.145  1.00  0.00     0.222 HD
ENDBRANCH  29  33
ENDBRANCH  28  29
ENDBRANCH   3  28
BRANCH   5  35
HETATM   35  O   UNL     1     -17.126 -11.061  -3.775  1.00  0.00    -0.286 OA
BRANCH  35  36
HETATM   36  P   UNL     1     -16.617 -10.490  -5.176  1.00  0.00     0.391 P 
HETATM   37  O   UNL     1     -16.278 -11.511  -6.213  1.00  0.00    -0.632 OA
BRANCH  36  38
HETATM   38  O   UNL     1     -17.730  -9.438  -5.603  1.00  0.00    -0.307 OA
HETATM   39  H   UNL     1     -17.852  -9.440  -6.570  1.00  0.00     0.222 HD
ENDBRANCH  36  38
BRANCH  36  40
HETATM   40  O   UNL     1     -15.398  -9.548  -4.793  1.00  0.00    -0.307 OA
HETATM   41  H   UNL     1     -15.674  -8.623  -4.661  1.00  0.00     0.222 HD
ENDBRANCH  36  40
ENDBRANCH  35  36
ENDBRANCH   5  35
BRANCH   4  42
HETATM   42  O   UNL     1     -19.746 -11.290  -4.919  1.00  0.00    -0.286 OA
BRANCH  42  43
HETATM   43  P   UNL     1     -20.179 -12.021  -6.275  1.00  0.00     0.391 P 
HETATM   44  O   UNL     1     -20.386 -13.493  -6.192  1.00  0.00    -0.632 OA
BRANCH  43  45
HETATM   45  O   UNL     1     -21.488 -11.265  -6.795  1.00  0.00    -0.307 OA
HETATM   46  H   UNL     1     -21.927 -11.787  -7.493  1.00  0.00     0.222 HD
ENDBRANCH  43  45
BRANCH  43  47
HETATM   47  O   UNL     1     -19.101 -11.633  -7.382  1.00  0.00    -0.307 OA
HETATM   48  H   UNL     1     -18.199 -11.613  -7.014  1.00  0.00     0.222 HD
ENDBRANCH  43  47
ENDBRANCH  42  43
ENDBRANCH   4  42
TORSDOF 24
BEGIN_RES ARG D 557
REMARK  4 active torsions:
REMARK  status: ('A' for Active; 'I' for Inactive)
REMARK    1  A    between atoms: CA   and  CB  
REMARK    2  A    between atoms: CB   and  CG  
REMARK    3  A    between atoms: CG   and  CD  
REMARK    4  A    between atoms: CD   and  NE  
REMARK       I    between atoms: NE   and  CZ  
REMARK       I    between atoms: CZ   and  NH1 
REMARK       I    between atoms: CZ   and  NH2 
ROOT
ATOM      1  CA  ARG D 557     -26.217   2.705 -17.014  1.00 35.49     0.159 C 
ENDROOT
BRANCH   1   2
ATOM      2  CB  ARG D 557     -26.789   1.319 -17.183  1.00 35.49     0.034 C 
BRANCH   2   3
ATOM      3  CG  ARG D 557     -25.839   0.201 -17.128  1.00 35.49     0.027 C 
BRANCH   3   4
ATOM      4  CD  ARG D 557     -24.762   0.424 -16.137  1.00 35.49     0.116 C 
BRANCH   4   5
ATOM      5  NE  ARG D 557     -24.876  -0.457 -15.005  1.00 35.49    -0.212 N 
ATOM      6  CZ  ARG D 557     -24.037  -1.418 -14.691  1.00 35.49     0.666 C 
ATOM      7  NH1 ARG D 557     -22.970  -1.693 -15.419  1.00 35.49    -0.235 N 
ATOM      8  NH2 ARG D 557     -24.286  -2.106 -13.615  1.00 35.49    -0.235 N 
ATOM      9  HH  ARG D 557     -22.785  -1.252 -16.130  1.00 35.49     0.174 HD
ATOM     10  HH  ARG D 557     -22.456  -2.330 -15.164  1.00 35.49     0.174 HD
ATOM     11  HH  ARG D 557     -24.978  -1.901 -13.161  1.00 35.49     0.174 HD
ATOM     12  HH  ARG D 557     -23.765  -2.732 -13.378  1.00 35.49     0.174 HD
ATOM     13  HE  ARG D 557     -25.574  -0.398 -14.522  1.00 35.49     0.178 HD
ENDBRANCH   4   5
ENDBRANCH   3   4
ENDBRANCH   2   3
ENDBRANCH   1   2
END_RES ARG D 557
BEGIN_RES GLU D 570
REMARK  3 active torsions:
REMARK  status: ('A' for Active; 'I' for Inactive)
REMARK    5  A    between atoms: CA   and  CB  
REMARK    6  A    between atoms: CB   and  CG  
REMARK    7  A    between atoms: CG   and  CD  
ROOT
ATOM     14  CA  GLU D 570     -18.033  -6.348 -13.375  1.00 32.92     0.160 C 
ENDROOT
BRANCH  14  15
ATOM     15  CB  GLU D 570     -19.500  -6.345 -13.794  1.00 32.92     0.043 C 
BRANCH  15  16
ATOM     16  CG  GLU D 570     -20.446  -5.552 -12.967  1.00 32.92     0.100 C 
BRANCH  16  17
ATOM     17  CD  GLU D 570     -21.645  -5.065 -13.748  1.00 32.92     0.185 C 
ATOM     18  OE1 GLU D 570     -22.667  -4.712 -13.129  1.00 32.92    -0.647 OA
ATOM     19  OE2 GLU D 570     -21.567  -5.053 -14.992  1.00 32.92    -0.647 OA
ENDBRANCH  16  17
ENDBRANCH  15  16
ENDBRANCH  14  15
END_RES GLU D 570
ENDMDL
