MODEL 1
REMARK VINA RESULT:      -7.7      0.000      0.000
REMARK  21 active torsions:
REMARK  status: ('A' for Active; 'I' for Inactive)
REMARK    1  A    between atoms: C_2  and  C_4 
REMARK    2  A    between atoms: C_4  and  C_5 
REMARK    3  A    between atoms: C_5  and  C_6 
REMARK    4  A    between atoms: C_6  and  C_7 
REMARK    5  A    between atoms: C_7  and  C_8 
REMARK    6  A    between atoms: C_8  and  C_9 
REMARK    7  A    between atoms: C_9  and  C_10 
REMARK    8  A    between atoms: C_10  and  C_11 
REMARK    9  A    between atoms: C_11  and  C_12 
REMARK   10  A    between atoms: C_12  and  C_13 
REMARK   11  A    between atoms: C_13  and  C_14 
REMARK   12  A    between atoms: C_14  and  C_15 
REMARK   13  A    between atoms: C_15  and  C_16 
REMARK   14  A    between atoms: C_16  and  C_17 
REMARK   15  A    between atoms: C_17  and  C_18 
REMARK   16  A    between atoms: C_18  and  O_20 
REMARK   17  A    between atoms: O_20  and  C_21 
REMARK   18  A    between atoms: C_21  and  C_22 
REMARK   19  A    between atoms: C_22  and  C_23 
REMARK   20  A    between atoms: C_22  and  O_25 
REMARK   21  A    between atoms: C_23  and  O_24 
ROOT
HETATM    1  C   UNL     1     -20.156  -4.181  -8.594  1.00  0.00     0.000 C 
ENDROOT
BRANCH   1   2
HETATM    2  C   UNL     1     -20.906  -3.715  -7.357  1.00  0.00     0.000 C 
BRANCH   2   3
HETATM    3  C   UNL     1     -20.527  -4.573  -6.159  1.00  0.00     0.000 C 
BRANCH   3   4
HETATM    4  C   UNL     1     -21.601  -5.619  -5.901  1.00  0.00     0.000 C 
BRANCH   4   5
HETATM    5  C   UNL     1     -20.985  -7.008  -5.867  1.00  0.00     0.000 C 
BRANCH   5   6
HETATM    6  C   UNL     1     -21.351  -7.712  -4.572  1.00  0.00     0.000 C 
BRANCH   6   7
HETATM    7  C   UNL     1     -21.902  -6.710  -3.569  1.00  0.00     0.000 C 
BRANCH   7   8
HETATM    8  C   UNL     1     -21.242  -6.910  -2.216  1.00  0.00     0.000 C 
BRANCH   8   9
HETATM    9  C   UNL     1     -22.264  -6.767  -1.097  1.00  0.00     0.000 C 
BRANCH   9  10
HETATM   10  C   UNL     1     -22.028  -7.843  -0.048  1.00  0.00     0.000 C 
BRANCH  10  11
HETATM   11  C   UNL     1     -23.198  -8.819   0.015  1.00  0.00     0.004 C 
BRANCH  11  12
HETATM   12  C   UNL     1     -22.797 -10.248  -0.384  1.00  0.00    -0.023 C 
HETATM   13  C   UNL     1     -23.903 -11.223   0.017  1.00  0.00     0.009 C 
HETATM   14  C   UNL     1     -22.512 -10.375  -1.883  1.00  0.00     0.009 C 
ENDBRANCH  11  12
ENDBRANCH  10  11
ENDBRANCH   9  10
ENDBRANCH   8   9
ENDBRANCH   7   8
ENDBRANCH   6   7
ENDBRANCH   5   6
ENDBRANCH   4   5
ENDBRANCH   3   4
ENDBRANCH   2   3
ENDBRANCH   1   2
BRANCH   1  15
HETATM   15  C   UNL     1     -21.101  -4.332  -9.782  1.00  0.00     0.000 C 
BRANCH  15  16
HETATM   16  C   UNL     1     -22.543  -4.298  -9.295  1.00  0.00     0.010 C 
BRANCH  16  17
HETATM   17  C   UNL     1     -23.530  -4.489 -10.435  1.00  0.00     0.111 C 
BRANCH  17  18
HETATM   18  C   UNL     1     -24.581  -3.399 -10.391  1.00  0.00     0.258 C 
HETATM   19  O   UNL     1     -25.087  -2.949  -9.382  1.00  0.00    -0.265 OA
BRANCH  18  20
HETATM   20  O   UNL     1     -24.947  -3.082 -11.671  1.00  0.00    -0.319 OA
BRANCH  20  21
HETATM   21  C   UNL     1     -23.853  -3.177 -12.589  1.00  0.00     0.212 C 
BRANCH  21  22
HETATM   22  C   UNL     1     -24.267  -3.013 -14.050  1.00  0.00     0.166 C 
BRANCH  22  23
HETATM   23  C   UNL     1     -23.452  -1.959 -14.809  1.00  0.00     0.198 C 
BRANCH  23  24
HETATM   24  O   UNL     1     -22.342  -2.549 -15.473  1.00  0.00    -0.398 OA
HETATM   25  H   UNL     1     -21.962  -1.898 -16.087  1.00  0.00     0.209 HD
ENDBRANCH  23  24
ENDBRANCH  22  23
BRANCH  22  26
HETATM   26  O   UNL     1     -24.179  -4.285 -14.690  1.00  0.00    -0.391 OA
HETATM   27  H   UNL     1     -23.237  -4.466 -14.884  1.00  0.00     0.210 HD
ENDBRANCH  22  26
ENDBRANCH  21  22
ENDBRANCH  20  21
ENDBRANCH  18  20
ENDBRANCH  17  18
ENDBRANCH  16  17
ENDBRANCH  15  16
ENDBRANCH   1  15
TORSDOF 21
BEGIN_RES ARG D 557
REMARK  4 active torsions:
REMARK  status: ('A' for Active; 'I' for Inactive)
REMARK    1  A    between atoms: CA   and  CB  
REMARK    2  A    between atoms: CB   and  CG  
REMARK    3  A    between atoms: CG   and  CD  
REMARK    4  A    between atoms: CD   and  NE  
REMARK       I    between atoms: NE   and  CZ  
REMARK       I    between atoms: CZ   and  NH1 
REMARK       I    between atoms: CZ   and  NH2 
ROOT
ATOM      1  CA  ARG D 557     -26.217   2.705 -17.014  1.00 35.49     0.159 C 
ENDROOT
BRANCH   1   2
ATOM      2  CB  ARG D 557     -26.789   1.319 -17.183  1.00 35.49     0.034 C 
BRANCH   2   3
ATOM      3  CG  ARG D 557     -28.238   1.224 -17.396  1.00 35.49     0.027 C 
BRANCH   3   4
ATOM      4  CD  ARG D 557     -28.882   0.261 -16.473  1.00 35.49     0.116 C 
BRANCH   4   5
ATOM      5  NE  ARG D 557     -29.236  -0.969 -17.133  1.00 35.49    -0.212 N 
ATOM      6  CZ  ARG D 557     -28.596  -2.111 -17.022  1.00 35.49     0.666 C 
ATOM      7  NH1 ARG D 557     -27.515  -2.249 -16.277  1.00 35.49    -0.235 N 
ATOM      8  NH2 ARG D 557     -29.071  -3.131 -17.676  1.00 35.49    -0.235 N 
ATOM      9  HH  ARG D 557     -27.186  -1.592 -15.836  1.00 35.49     0.174 HD
ATOM     10  HH  ARG D 557     -27.141  -3.020 -16.240  1.00 35.49     0.174 HD
ATOM     11  HH  ARG D 557     -29.775  -3.014 -18.144  1.00 35.49     0.174 HD
ATOM     12  HH  ARG D 557     -28.687  -3.886 -17.626  1.00 35.49     0.174 HD
ATOM     13  HE  ARG D 557     -29.878  -0.953 -17.690  1.00 35.49     0.178 HD
ENDBRANCH   4   5
ENDBRANCH   3   4
ENDBRANCH   2   3
ENDBRANCH   1   2
END_RES ARG D 557
BEGIN_RES GLU D 570
REMARK  3 active torsions:
REMARK  status: ('A' for Active; 'I' for Inactive)
REMARK    5  A    between atoms: CA   and  CB  
REMARK    6  A    between atoms: CB   and  CG  
REMARK    7  A    between atoms: CG   and  CD  
ROOT
ATOM     14  CA  GLU D 570     -18.033  -6.348 -13.375  1.00 32.92     0.160 C 
ENDROOT
BRANCH  14  15
ATOM     15  CB  GLU D 570     -19.500  -6.345 -13.794  1.00 32.92     0.043 C 
BRANCH  15  16
ATOM     16  CG  GLU D 570     -19.824  -5.826 -15.148  1.00 32.92     0.100 C 
BRANCH  16  17
ATOM     17  CD  GLU D 570     -21.260  -6.075 -15.546  1.00 32.92     0.185 C 
ATOM     18  OE1 GLU D 570     -21.848  -5.232 -16.251  1.00 32.92    -0.647 OA
ATOM     19  OE2 GLU D 570     -21.808  -7.117 -15.136  1.00 32.92    -0.647 OA
ENDBRANCH  16  17
ENDBRANCH  15  16
ENDBRANCH  14  15
END_RES GLU D 570
ENDMDL
MODEL 2
REMARK VINA RESULT:      -7.6      1.480      2.596
REMARK  21 active torsions:
REMARK  status: ('A' for Active; 'I' for Inactive)
REMARK    1  A    between atoms: C_2  and  C_4 
REMARK    2  A    between atoms: C_4  and  C_5 
REMARK    3  A    between atoms: C_5  and  C_6 
REMARK    4  A    between atoms: C_6  and  C_7 
REMARK    5  A    between atoms: C_7  and  C_8 
REMARK    6  A    between atoms: C_8  and  C_9 
REMARK    7  A    between atoms: C_9  and  C_10 
REMARK    8  A    between atoms: C_10  and  C_11 
REMARK    9  A    between atoms: C_11  and  C_12 
REMARK   10  A    between atoms: C_12  and  C_13 
REMARK   11  A    between atoms: C_13  and  C_14 
REMARK   12  A    between atoms: C_14  and  C_15 
REMARK   13  A    between atoms: C_15  and  C_16 
REMARK   14  A    between atoms: C_16  and  C_17 
REMARK   15  A    between atoms: C_17  and  C_18 
REMARK   16  A    between atoms: C_18  and  O_20 
REMARK   17  A    between atoms: O_20  and  C_21 
REMARK   18  A    between atoms: C_21  and  C_22 
REMARK   19  A    between atoms: C_22  and  C_23 
REMARK   20  A    between atoms: C_22  and  O_25 
REMARK   21  A    between atoms: C_23  and  O_24 
ROOT
HETATM    1  C   UNL     1     -21.332  -3.887 -11.083  1.00  0.00     0.000 C 
ENDROOT
BRANCH   1   2
HETATM    2  C   UNL     1     -20.549  -3.932  -9.782  1.00  0.00     0.000 C 
BRANCH   2   3
HETATM    3  C   UNL     1     -21.430  -4.455  -8.656  1.00  0.00     0.000 C 
BRANCH   3   4
HETATM    4  C   UNL     1     -20.833  -4.087  -7.307  1.00  0.00     0.000 C 
BRANCH   4   5
HETATM    5  C   UNL     1     -19.715  -5.052  -6.946  1.00  0.00     0.000 C 
BRANCH   5   6
HETATM    6  C   UNL     1     -20.192  -6.035  -5.890  1.00  0.00     0.000 C 
BRANCH   6   7
HETATM    7  C   UNL     1     -21.684  -5.860  -5.649  1.00  0.00     0.000 C 
BRANCH   7   8
HETATM    8  C   UNL     1     -22.099  -6.599  -4.389  1.00  0.00     0.000 C 
BRANCH   8   9
HETATM    9  C   UNL     1     -21.354  -6.051  -3.180  1.00  0.00     0.000 C 
BRANCH   9  10
HETATM   10  C   UNL     1     -22.125  -6.381  -1.910  1.00  0.00     0.000 C 
BRANCH  10  11
HETATM   11  C   UNL     1     -21.599  -7.655  -1.258  1.00  0.00     0.004 C 
BRANCH  11  12
HETATM   12  C   UNL     1     -22.510  -8.160  -0.129  1.00  0.00    -0.023 C 
HETATM   13  C   UNL     1     -22.932  -9.601  -0.416  1.00  0.00     0.009 C 
HETATM   14  C   UNL     1     -21.835  -8.081   1.243  1.00  0.00     0.009 C 
ENDBRANCH  11  12
ENDBRANCH  10  11
ENDBRANCH   9  10
ENDBRANCH   8   9
ENDBRANCH   7   8
ENDBRANCH   6   7
ENDBRANCH   5   6
ENDBRANCH   4   5
ENDBRANCH   3   4
ENDBRANCH   2   3
ENDBRANCH   1   2
BRANCH   1  15
HETATM   15  C   UNL     1     -22.834  -3.929 -10.818  1.00  0.00     0.000 C 
BRANCH  15  16
HETATM   16  C   UNL     1     -23.477  -4.999 -11.690  1.00  0.00     0.010 C 
BRANCH  16  17
HETATM   17  C   UNL     1     -22.747  -5.167 -13.012  1.00  0.00     0.111 C 
BRANCH  17  18
HETATM   18  C   UNL     1     -23.745  -5.422 -14.121  1.00  0.00     0.258 C 
HETATM   19  O   UNL     1     -24.130  -6.516 -14.484  1.00  0.00    -0.265 OA
BRANCH  18  20
HETATM   20  O   UNL     1     -24.059  -4.233 -14.720  1.00  0.00    -0.319 OA
BRANCH  20  21
HETATM   21  C   UNL     1     -22.991  -3.283 -14.636  1.00  0.00     0.212 C 
BRANCH  21  22
HETATM   22  C   UNL     1     -23.429  -1.919 -14.104  1.00  0.00     0.166 C 
BRANCH  22  23
HETATM   23  C   UNL     1     -23.671  -0.877 -15.202  1.00  0.00     0.198 C 
BRANCH  23  24
HETATM   24  O   UNL     1     -24.852  -0.127 -14.946  1.00  0.00    -0.398 OA
HETATM   25  H   UNL     1     -25.115  -0.264 -14.020  1.00  0.00     0.209 HD
ENDBRANCH  23  24
ENDBRANCH  22  23
BRANCH  22  26
HETATM   26  O   UNL     1     -24.596  -2.100 -13.304  1.00  0.00    -0.391 OA
HETATM   27  H   UNL     1     -24.316  -2.223 -12.375  1.00  0.00     0.210 HD
ENDBRANCH  22  26
ENDBRANCH  21  22
ENDBRANCH  20  21
ENDBRANCH  18  20
ENDBRANCH  17  18
ENDBRANCH  16  17
ENDBRANCH  15  16
ENDBRANCH   1  15
TORSDOF 21
BEGIN_RES ARG D 557
REMARK  4 active torsions:
REMARK  status: ('A' for Active; 'I' for Inactive)
REMARK    1  A    between atoms: CA   and  CB  
REMARK    2  A    between atoms: CB   and  CG  
REMARK    3  A    between atoms: CG   and  CD  
REMARK    4  A    between atoms: CD   and  NE  
REMARK       I    between atoms: NE   and  CZ  
REMARK       I    between atoms: CZ   and  NH1 
REMARK       I    between atoms: CZ   and  NH2 
ROOT
ATOM      1  CA  ARG D 557     -26.217   2.705 -17.014  1.00 35.49     0.159 C 
ENDROOT
BRANCH   1   2
ATOM      2  CB  ARG D 557     -26.789   1.319 -17.183  1.00 35.49     0.034 C 
BRANCH   2   3
ATOM      3  CG  ARG D 557     -28.245   1.185 -17.055  1.00 35.49     0.027 C 
BRANCH   3   4
ATOM      4  CD  ARG D 557     -28.665  -0.217 -16.830  1.00 35.49     0.116 C 
BRANCH   4   5
ATOM      5  NE  ARG D 557     -27.667  -0.975 -16.123  1.00 35.49    -0.212 N 
ATOM      6  CZ  ARG D 557     -27.515  -2.280 -16.173  1.00 35.49     0.666 C 
ATOM      7  NH1 ARG D 557     -28.303  -3.058 -16.892  1.00 35.49    -0.235 N 
ATOM      8  NH2 ARG D 557     -26.541  -2.798 -15.483  1.00 35.49    -0.235 N 
ATOM      9  HH  ARG D 557     -28.949  -2.738 -17.356  1.00 35.49     0.174 HD
ATOM     10  HH  ARG D 557     -28.154  -3.902 -16.888  1.00 35.49     0.174 HD
ATOM     11  HH  ARG D 557     -26.044  -2.270 -15.034  1.00 35.49     0.174 HD
ATOM     12  HH  ARG D 557     -26.410  -3.635 -15.493  1.00 35.49     0.174 HD
ATOM     13  HE  ARG D 557     -27.162  -0.561 -15.579  1.00 35.49     0.178 HD
ENDBRANCH   4   5
ENDBRANCH   3   4
ENDBRANCH   2   3
ENDBRANCH   1   2
END_RES ARG D 557
BEGIN_RES GLU D 570
REMARK  3 active torsions:
REMARK  status: ('A' for Active; 'I' for Inactive)
REMARK    5  A    between atoms: CA   and  CB  
REMARK    6  A    between atoms: CB   and  CG  
REMARK    7  A    between atoms: CG   and  CD  
ROOT
ATOM     14  CA  GLU D 570     -18.033  -6.348 -13.375  1.00 32.92     0.160 C 
ENDROOT
BRANCH  14  15
ATOM     15  CB  GLU D 570     -19.500  -6.345 -13.794  1.00 32.92     0.043 C 
BRANCH  15  16
ATOM     16  CG  GLU D 570     -20.077  -7.626 -14.277  1.00 32.92     0.100 C 
BRANCH  16  17
ATOM     17  CD  GLU D 570     -20.854  -7.475 -15.563  1.00 32.92     0.185 C 
ATOM     18  OE1 GLU D 570     -20.925  -6.353 -16.100  1.00 32.92    -0.647 OA
ATOM     19  OE2 GLU D 570     -21.414  -8.487 -16.031  1.00 32.92    -0.647 OA
ENDBRANCH  16  17
ENDBRANCH  15  16
ENDBRANCH  14  15
END_RES GLU D 570
ENDMDL
MODEL 3
REMARK VINA RESULT:      -7.6      1.384      1.877
REMARK  21 active torsions:
REMARK  status: ('A' for Active; 'I' for Inactive)
REMARK    1  A    between atoms: C_2  and  C_4 
REMARK    2  A    between atoms: C_4  and  C_5 
REMARK    3  A    between atoms: C_5  and  C_6 
REMARK    4  A    between atoms: C_6  and  C_7 
REMARK    5  A    between atoms: C_7  and  C_8 
REMARK    6  A    between atoms: C_8  and  C_9 
REMARK    7  A    between atoms: C_9  and  C_10 
REMARK    8  A    between atoms: C_10  and  C_11 
REMARK    9  A    between atoms: C_11  and  C_12 
REMARK   10  A    between atoms: C_12  and  C_13 
REMARK   11  A    between atoms: C_13  and  C_14 
REMARK   12  A    between atoms: C_14  and  C_15 
REMARK   13  A    between atoms: C_15  and  C_16 
REMARK   14  A    between atoms: C_16  and  C_17 
REMARK   15  A    between atoms: C_17  and  C_18 
REMARK   16  A    between atoms: C_18  and  O_20 
REMARK   17  A    between atoms: O_20  and  C_21 
REMARK   18  A    between atoms: C_21  and  C_22 
REMARK   19  A    between atoms: C_22  and  C_23 
REMARK   20  A    between atoms: C_22  and  O_25 
REMARK   21  A    between atoms: C_23  and  O_24 
ROOT
HETATM    1  C   UNL     1     -21.030  -4.099  -7.899  1.00  0.00     0.000 C 
ENDROOT
BRANCH   1   2
HETATM    2  C   UNL     1     -19.895  -4.408  -6.936  1.00  0.00     0.000 C 
BRANCH   2   3
HETATM    3  C   UNL     1     -20.444  -5.028  -5.659  1.00  0.00     0.000 C 
BRANCH   3   4
HETATM    4  C   UNL     1     -21.600  -5.962  -5.983  1.00  0.00     0.000 C 
BRANCH   4   5
HETATM    5  C   UNL     1     -22.184  -6.538  -4.704  1.00  0.00     0.000 C 
BRANCH   5   6
HETATM    6  C   UNL     1     -21.302  -6.184  -3.519  1.00  0.00     0.000 C 
BRANCH   6   7
HETATM    7  C   UNL     1     -22.123  -6.178  -2.238  1.00  0.00     0.000 C 
BRANCH   7   8
HETATM    8  C   UNL     1     -21.925  -7.483  -1.486  1.00  0.00     0.000 C 
BRANCH   8   9
HETATM    9  C   UNL     1     -22.336  -7.326  -0.029  1.00  0.00     0.000 C 
BRANCH   9  10
HETATM   10  C   UNL     1     -23.211  -8.499   0.386  1.00  0.00     0.000 C 
BRANCH  10  11
HETATM   11  C   UNL     1     -22.574  -9.829  -0.003  1.00  0.00     0.004 C 
BRANCH  11  12
HETATM   12  C   UNL     1     -23.609 -10.868  -0.462  1.00  0.00    -0.023 C 
HETATM   13  C   UNL     1     -23.387 -11.197  -1.938  1.00  0.00     0.009 C 
HETATM   14  C   UNL     1     -23.553 -12.152   0.370  1.00  0.00     0.009 C 
ENDBRANCH  11  12
ENDBRANCH  10  11
ENDBRANCH   9  10
ENDBRANCH   8   9
ENDBRANCH   7   8
ENDBRANCH   6   7
ENDBRANCH   5   6
ENDBRANCH   4   5
ENDBRANCH   3   4
ENDBRANCH   2   3
ENDBRANCH   1   2
BRANCH   1  15
HETATM   15  C   UNL     1     -20.657  -4.486  -9.326  1.00  0.00     0.000 C 
BRANCH  15  16
HETATM   16  C   UNL     1     -21.762  -4.053 -10.279  1.00  0.00     0.010 C 
BRANCH  16  17
HETATM   17  C   UNL     1     -23.086  -3.857  -9.560  1.00  0.00     0.111 C 
BRANCH  17  18
HETATM   18  C   UNL     1     -24.168  -3.513 -10.561  1.00  0.00     0.258 C 
HETATM   19  O   UNL     1     -25.292  -3.144 -10.284  1.00  0.00    -0.265 OA
BRANCH  18  20
HETATM   20  O   UNL     1     -23.713  -3.790 -11.821  1.00  0.00    -0.319 OA
BRANCH  20  21
HETATM   21  C   UNL     1     -23.998  -2.736 -12.747  1.00  0.00     0.212 C 
BRANCH  21  22
HETATM   22  C   UNL     1     -23.074  -2.726 -13.964  1.00  0.00     0.166 C 
BRANCH  22  23
HETATM   23  C   UNL     1     -22.578  -4.119 -14.372  1.00  0.00     0.198 C 
BRANCH  23  24
HETATM   24  O   UNL     1     -21.784  -4.056 -15.550  1.00  0.00    -0.398 OA
HETATM   25  H   UNL     1     -22.367  -3.902 -16.312  1.00  0.00     0.209 HD
ENDBRANCH  23  24
ENDBRANCH  22  23
BRANCH  22  26
HETATM   26  O   UNL     1     -23.755  -2.090 -15.044  1.00  0.00    -0.391 OA
HETATM   27  H   UNL     1     -23.088  -1.661 -15.617  1.00  0.00     0.210 HD
ENDBRANCH  22  26
ENDBRANCH  21  22
ENDBRANCH  20  21
ENDBRANCH  18  20
ENDBRANCH  17  18
ENDBRANCH  16  17
ENDBRANCH  15  16
ENDBRANCH   1  15
TORSDOF 21
BEGIN_RES ARG D 557
REMARK  4 active torsions:
REMARK  status: ('A' for Active; 'I' for Inactive)
REMARK    1  A    between atoms: CA   and  CB  
REMARK    2  A    between atoms: CB   and  CG  
REMARK    3  A    between atoms: CG   and  CD  
REMARK    4  A    between atoms: CD   and  NE  
REMARK       I    between atoms: NE   and  CZ  
REMARK       I    between atoms: CZ   and  NH1 
REMARK       I    between atoms: CZ   and  NH2 
ROOT
ATOM      1  CA  ARG D 557     -26.217   2.705 -17.014  1.00 35.49     0.159 C 
ENDROOT
BRANCH   1   2
ATOM      2  CB  ARG D 557     -26.789   1.319 -17.183  1.00 35.49     0.034 C 
BRANCH   2   3
ATOM      3  CG  ARG D 557     -26.213   0.260 -16.345  1.00 35.49     0.027 C 
BRANCH   3   4
ATOM      4  CD  ARG D 557     -27.162  -0.853 -16.112  1.00 35.49     0.116 C 
BRANCH   4   5
ATOM      5  NE  ARG D 557     -26.512  -2.013 -15.561  1.00 35.49    -0.212 N 
ATOM      6  CZ  ARG D 557     -26.883  -3.260 -15.742  1.00 35.49     0.666 C 
ATOM      7  NH1 ARG D 557     -27.938  -3.588 -16.465  1.00 35.49    -0.235 N 
ATOM      8  NH2 ARG D 557     -26.162  -4.189 -15.183  1.00 35.49    -0.235 N 
ATOM      9  HH  ARG D 557     -28.425  -2.994 -16.844  1.00 35.49     0.174 HD
ATOM     10  HH  ARG D 557     -28.130  -4.419 -16.551  1.00 35.49     0.174 HD
ATOM     11  HH  ARG D 557     -25.482  -3.948 -14.728  1.00 35.49     0.174 HD
ATOM     12  HH  ARG D 557     -26.368  -5.005 -15.281  1.00 35.49     0.174 HD
ATOM     13  HE  ARG D 557     -25.865  -1.890 -15.022  1.00 35.49     0.178 HD
ENDBRANCH   4   5
ENDBRANCH   3   4
ENDBRANCH   2   3
ENDBRANCH   1   2
END_RES ARG D 557
BEGIN_RES GLU D 570
REMARK  3 active torsions:
REMARK  status: ('A' for Active; 'I' for Inactive)
REMARK    5  A    between atoms: CA   and  CB  
REMARK    6  A    between atoms: CB   and  CG  
REMARK    7  A    between atoms: CG   and  CD  
ROOT
ATOM     14  CA  GLU D 570     -18.033  -6.348 -13.375  1.00 32.92     0.160 C 
ENDROOT
BRANCH  14  15
ATOM     15  CB  GLU D 570     -19.500  -6.345 -13.794  1.00 32.92     0.043 C 
BRANCH  15  16
ATOM     16  CG  GLU D 570     -20.117  -7.653 -14.135  1.00 32.92     0.100 C 
BRANCH  16  17
ATOM     17  CD  GLU D 570     -20.614  -7.716 -15.561  1.00 32.92     0.185 C 
ATOM     18  OE1 GLU D 570     -20.651  -8.819 -16.140  1.00 32.92    -0.647 OA
ATOM     19  OE2 GLU D 570     -20.953  -6.649 -16.110  1.00 32.92    -0.647 OA
ENDBRANCH  16  17
ENDBRANCH  15  16
ENDBRANCH  14  15
END_RES GLU D 570
ENDMDL
MODEL 4
REMARK VINA RESULT:      -7.1      1.402      1.935
REMARK  21 active torsions:
REMARK  status: ('A' for Active; 'I' for Inactive)
REMARK    1  A    between atoms: C_2  and  C_4 
REMARK    2  A    between atoms: C_4  and  C_5 
REMARK    3  A    between atoms: C_5  and  C_6 
REMARK    4  A    between atoms: C_6  and  C_7 
REMARK    5  A    between atoms: C_7  and  C_8 
REMARK    6  A    between atoms: C_8  and  C_9 
REMARK    7  A    between atoms: C_9  and  C_10 
REMARK    8  A    between atoms: C_10  and  C_11 
REMARK    9  A    between atoms: C_11  and  C_12 
REMARK   10  A    between atoms: C_12  and  C_13 
REMARK   11  A    between atoms: C_13  and  C_14 
REMARK   12  A    between atoms: C_14  and  C_15 
REMARK   13  A    between atoms: C_15  and  C_16 
REMARK   14  A    between atoms: C_16  and  C_17 
REMARK   15  A    between atoms: C_17  and  C_18 
REMARK   16  A    between atoms: C_18  and  O_20 
REMARK   17  A    between atoms: O_20  and  C_21 
REMARK   18  A    between atoms: C_21  and  C_22 
REMARK   19  A    between atoms: C_22  and  C_23 
REMARK   20  A    between atoms: C_22  and  O_25 
REMARK   21  A    between atoms: C_23  and  O_24 
ROOT
HETATM    1  C   UNL     1     -20.541  -4.126  -7.138  1.00  0.00     0.000 C 
ENDROOT
BRANCH   1   2
HETATM    2  C   UNL     1     -20.639  -4.917  -5.844  1.00  0.00     0.000 C 
BRANCH   2   3
HETATM    3  C   UNL     1     -21.493  -6.160  -6.051  1.00  0.00     0.000 C 
BRANCH   3   4
HETATM    4  C   UNL     1     -22.157  -6.564  -4.744  1.00  0.00     0.000 C 
BRANCH   4   5
HETATM    5  C   UNL     1     -21.302  -6.133  -3.564  1.00  0.00     0.000 C 
BRANCH   5   6
HETATM    6  C   UNL     1     -22.103  -6.226  -2.276  1.00  0.00     0.000 C 
BRANCH   6   7
HETATM    7  C   UNL     1     -21.512  -7.295  -1.369  1.00  0.00     0.000 C 
BRANCH   7   8
HETATM    8  C   UNL     1     -22.374  -7.462  -0.130  1.00  0.00     0.000 C 
BRANCH   8   9
HETATM    9  C   UNL     1     -21.755  -8.480   0.817  1.00  0.00     0.000 C 
BRANCH   9  10
HETATM   10  C   UNL     1     -21.082  -9.583   0.014  1.00  0.00     0.000 C 
BRANCH  10  11
HETATM   11  C   UNL     1     -21.676 -10.948   0.343  1.00  0.00     0.004 C 
BRANCH  11  12
HETATM   12  C   UNL     1     -22.734 -11.394  -0.678  1.00  0.00    -0.023 C 
HETATM   13  C   UNL     1     -24.130 -11.073  -0.145  1.00  0.00     0.009 C 
HETATM   14  C   UNL     1     -22.536 -10.734  -2.046  1.00  0.00     0.009 C 
ENDBRANCH  11  12
ENDBRANCH  10  11
ENDBRANCH   9  10
ENDBRANCH   8   9
ENDBRANCH   7   8
ENDBRANCH   6   7
ENDBRANCH   5   6
ENDBRANCH   4   5
ENDBRANCH   3   4
ENDBRANCH   2   3
ENDBRANCH   1   2
BRANCH   1  15
HETATM   15  C   UNL     1     -21.893  -4.062  -7.842  1.00  0.00     0.000 C 
BRANCH  15  16
HETATM   16  C   UNL     1     -21.725  -4.442  -9.307  1.00  0.00     0.010 C 
BRANCH  16  17
HETATM   17  C   UNL     1     -22.871  -3.925 -10.161  1.00  0.00     0.111 C 
BRANCH  17  18
HETATM   18  C   UNL     1     -22.332  -3.385 -11.469  1.00  0.00     0.258 C 
HETATM   19  O   UNL     1     -21.385  -2.633 -11.584  1.00  0.00    -0.265 OA
BRANCH  18  20
HETATM   20  O   UNL     1     -23.149  -3.793 -12.489  1.00  0.00    -0.319 OA
BRANCH  20  21
HETATM   21  C   UNL     1     -24.419  -3.133 -12.465  1.00  0.00     0.212 C 
BRANCH  21  22
HETATM   22  C   UNL     1     -25.008  -2.894 -13.855  1.00  0.00     0.166 C 
BRANCH  22  23
HETATM   23  C   UNL     1     -24.355  -1.728 -14.608  1.00  0.00     0.198 C 
BRANCH  23  24
HETATM   24  O   UNL     1     -25.336  -0.898 -15.216  1.00  0.00    -0.398 OA
HETATM   25  H   UNL     1     -24.960  -0.507 -16.023  1.00  0.00     0.209 HD
ENDBRANCH  23  24
ENDBRANCH  22  23
BRANCH  22  26
HETATM   26  O   UNL     1     -24.908  -4.104 -14.602  1.00  0.00    -0.391 OA
HETATM   27  H   UNL     1     -24.244  -4.678 -14.171  1.00  0.00     0.210 HD
ENDBRANCH  22  26
ENDBRANCH  21  22
ENDBRANCH  20  21
ENDBRANCH  18  20
ENDBRANCH  17  18
ENDBRANCH  16  17
ENDBRANCH  15  16
ENDBRANCH   1  15
TORSDOF 21
BEGIN_RES ARG D 557
REMARK  4 active torsions:
REMARK  status: ('A' for Active; 'I' for Inactive)
REMARK    1  A    between atoms: CA   and  CB  
REMARK    2  A    between atoms: CB   and  CG  
REMARK    3  A    between atoms: CG   and  CD  
REMARK    4  A    between atoms: CD   and  NE  
REMARK       I    between atoms: NE   and  CZ  
REMARK       I    between atoms: CZ   and  NH1 
REMARK       I    between atoms: CZ   and  NH2 
ROOT
ATOM      1  CA  ARG D 557     -26.217   2.705 -17.014  1.00 35.49     0.159 C 
ENDROOT
BRANCH   1   2
ATOM      2  CB  ARG D 557     -26.789   1.319 -17.183  1.00 35.49     0.034 C 
BRANCH   2   3
ATOM      3  CG  ARG D 557     -28.228   1.227 -17.456  1.00 35.49     0.027 C 
BRANCH   3   4
ATOM      4  CD  ARG D 557     -28.913   0.269 -16.558  1.00 35.49     0.116 C 
BRANCH   4   5
ATOM      5  NE  ARG D 557     -28.102  -0.886 -16.278  1.00 35.49    -0.212 N 
ATOM      6  CZ  ARG D 557     -28.333  -2.108 -16.702  1.00 35.49     0.666 C 
ATOM      7  NH1 ARG D 557     -29.380  -2.415 -17.445  1.00 35.49    -0.235 N 
ATOM      8  NH2 ARG D 557     -27.478  -3.031 -16.368  1.00 35.49    -0.235 N 
ATOM      9  HH  ARG D 557     -29.954  -1.823 -17.678  1.00 35.49     0.174 HD
ATOM     10  HH  ARG D 557     -29.478  -3.229 -17.695  1.00 35.49     0.174 HD
ATOM     11  HH  ARG D 557     -26.807  -2.803 -15.894  1.00 35.49     0.174 HD
ATOM     12  HH  ARG D 557     -27.592  -3.831 -16.626  1.00 35.49     0.174 HD
ATOM     13  HE  ARG D 557     -27.446  -0.793 -15.745  1.00 35.49     0.178 HD
ENDBRANCH   4   5
ENDBRANCH   3   4
ENDBRANCH   2   3
ENDBRANCH   1   2
END_RES ARG D 557
BEGIN_RES GLU D 570
REMARK  3 active torsions:
REMARK  status: ('A' for Active; 'I' for Inactive)
REMARK    5  A    between atoms: CA   and  CB  
REMARK    6  A    between atoms: CB   and  CG  
REMARK    7  A    between atoms: CG   and  CD  
ROOT
ATOM     14  CA  GLU D 570     -18.033  -6.348 -13.375  1.00 32.92     0.160 C 
ENDROOT
BRANCH  14  15
ATOM     15  CB  GLU D 570     -19.500  -6.345 -13.794  1.00 32.92     0.043 C 
BRANCH  15  16
ATOM     16  CG  GLU D 570     -20.087  -7.635 -14.240  1.00 32.92     0.100 C 
BRANCH  16  17
ATOM     17  CD  GLU D 570     -20.673  -7.566 -15.631  1.00 32.92     0.185 C 
ATOM     18  OE1 GLU D 570     -20.664  -6.477 -16.238  1.00 32.92    -0.647 OA
ATOM     19  OE2 GLU D 570     -21.161  -8.607 -16.113  1.00 32.92    -0.647 OA
ENDBRANCH  16  17
ENDBRANCH  15  16
ENDBRANCH  14  15
END_RES GLU D 570
ENDMDL
MODEL 5
REMARK VINA RESULT:      -7.1      1.318      2.235
REMARK  21 active torsions:
REMARK  status: ('A' for Active; 'I' for Inactive)
REMARK    1  A    between atoms: C_2  and  C_4 
REMARK    2  A    between atoms: C_4  and  C_5 
REMARK    3  A    between atoms: C_5  and  C_6 
REMARK    4  A    between atoms: C_6  and  C_7 
REMARK    5  A    between atoms: C_7  and  C_8 
REMARK    6  A    between atoms: C_8  and  C_9 
REMARK    7  A    between atoms: C_9  and  C_10 
REMARK    8  A    between atoms: C_10  and  C_11 
REMARK    9  A    between atoms: C_11  and  C_12 
REMARK   10  A    between atoms: C_12  and  C_13 
REMARK   11  A    between atoms: C_13  and  C_14 
REMARK   12  A    between atoms: C_14  and  C_15 
REMARK   13  A    between atoms: C_15  and  C_16 
REMARK   14  A    between atoms: C_16  and  C_17 
REMARK   15  A    between atoms: C_17  and  C_18 
REMARK   16  A    between atoms: C_18  and  O_20 
REMARK   17  A    between atoms: O_20  and  C_21 
REMARK   18  A    between atoms: C_21  and  C_22 
REMARK   19  A    between atoms: C_22  and  C_23 
REMARK   20  A    between atoms: C_22  and  O_25 
REMARK   21  A    between atoms: C_23  and  O_24 
ROOT
HETATM    1  C   UNL     1     -21.004  -4.826  -8.243  1.00  0.00     0.000 C 
ENDROOT
BRANCH   1   2
HETATM    2  C   UNL     1     -21.120  -4.035  -6.950  1.00  0.00     0.000 C 
BRANCH   2   3
HETATM    3  C   UNL     1     -20.527  -4.828  -5.794  1.00  0.00     0.000 C 
BRANCH   3   4
HETATM    4  C   UNL     1     -21.504  -5.901  -5.338  1.00  0.00     0.000 C 
BRANCH   4   5
HETATM    5  C   UNL     1     -20.848  -6.806  -4.308  1.00  0.00     0.000 C 
BRANCH   5   6
HETATM    6  C   UNL     1     -20.748  -8.224  -4.844  1.00  0.00     0.000 C 
BRANCH   6   7
HETATM    7  C   UNL     1     -19.550  -8.932  -4.230  1.00  0.00     0.000 C 
BRANCH   7   8
HETATM    8  C   UNL     1     -19.947  -9.587  -2.919  1.00  0.00     0.000 C 
BRANCH   8   9
HETATM    9  C   UNL     1     -21.414  -9.991  -2.946  1.00  0.00     0.000 C 
BRANCH   9  10
HETATM   10  C   UNL     1     -22.031  -9.774  -1.573  1.00  0.00     0.000 C 
BRANCH  10  11
HETATM   11  C   UNL     1     -21.168  -8.853  -0.718  1.00  0.00     0.004 C 
BRANCH  11  12
HETATM   12  C   UNL     1     -21.959  -7.667  -0.143  1.00  0.00    -0.023 C 
HETATM   13  C   UNL     1     -22.337  -6.708  -1.271  1.00  0.00     0.009 C 
HETATM   14  C   UNL     1     -23.219  -8.115   0.602  1.00  0.00     0.009 C 
ENDBRANCH  11  12
ENDBRANCH  10  11
ENDBRANCH   9  10
ENDBRANCH   8   9
ENDBRANCH   7   8
ENDBRANCH   6   7
ENDBRANCH   5   6
ENDBRANCH   4   5
ENDBRANCH   3   4
ENDBRANCH   2   3
ENDBRANCH   1   2
BRANCH   1  15
HETATM   15  C   UNL     1     -20.024  -4.161  -9.204  1.00  0.00     0.000 C 
BRANCH  15  16
HETATM   16  C   UNL     1     -20.396  -4.512 -10.638  1.00  0.00     0.010 C 
BRANCH  16  17
HETATM   17  C   UNL     1     -21.385  -3.521 -11.225  1.00  0.00     0.111 C 
BRANCH  17  18
HETATM   18  C   UNL     1     -22.661  -4.238 -11.616  1.00  0.00     0.258 C 
HETATM   19  O   UNL     1     -23.311  -4.964 -10.890  1.00  0.00    -0.265 OA
BRANCH  18  20
HETATM   20  O   UNL     1     -22.902  -4.025 -12.946  1.00  0.00    -0.319 OA
BRANCH  20  21
HETATM   21  C   UNL     1     -23.227  -2.660 -13.228  1.00  0.00     0.212 C 
BRANCH  21  22
HETATM   22  C   UNL     1     -23.507  -2.394 -14.707  1.00  0.00     0.166 C 
BRANCH  22  23
HETATM   23  C   UNL     1     -24.119  -1.014 -14.980  1.00  0.00     0.198 C 
BRANCH  23  24
HETATM   24  O   UNL     1     -25.529  -1.101 -15.136  1.00  0.00    -0.398 OA
HETATM   25  H   UNL     1     -25.917  -0.225 -14.967  1.00  0.00     0.209 HD
ENDBRANCH  23  24
ENDBRANCH  22  23
BRANCH  22  26
HETATM   26  O   UNL     1     -22.293  -2.567 -15.435  1.00  0.00    -0.391 OA
HETATM   27  H   UNL     1     -21.569  -2.144 -14.931  1.00  0.00     0.210 HD
ENDBRANCH  22  26
ENDBRANCH  21  22
ENDBRANCH  20  21
ENDBRANCH  18  20
ENDBRANCH  17  18
ENDBRANCH  16  17
ENDBRANCH  15  16
ENDBRANCH   1  15
TORSDOF 21
BEGIN_RES ARG D 557
REMARK  4 active torsions:
REMARK  status: ('A' for Active; 'I' for Inactive)
REMARK    1  A    between atoms: CA   and  CB  
REMARK    2  A    between atoms: CB   and  CG  
REMARK    3  A    between atoms: CG   and  CD  
REMARK    4  A    between atoms: CD   and  NE  
REMARK       I    between atoms: NE   and  CZ  
REMARK       I    between atoms: CZ   and  NH1 
REMARK       I    between atoms: CZ   and  NH2 
ROOT
ATOM      1  CA  ARG D 557     -26.217   2.705 -17.014  1.00 35.49     0.159 C 
ENDROOT
BRANCH   1   2
ATOM      2  CB  ARG D 557     -26.789   1.319 -17.183  1.00 35.49     0.034 C 
BRANCH   2   3
ATOM      3  CG  ARG D 557     -28.224   1.228 -17.479  1.00 35.49     0.027 C 
BRANCH   3   4
ATOM      4  CD  ARG D 557     -28.931   0.302 -16.565  1.00 35.49     0.116 C 
BRANCH   4   5
ATOM      5  NE  ARG D 557     -28.159  -0.881 -16.288  1.00 35.49    -0.212 N 
ATOM      6  CZ  ARG D 557     -28.421  -2.090 -16.732  1.00 35.49     0.666 C 
ATOM      7  NH1 ARG D 557     -29.465  -2.355 -17.495  1.00 35.49    -0.235 N 
ATOM      8  NH2 ARG D 557     -27.599  -3.043 -16.398  1.00 35.49    -0.235 N 
ATOM      9  HH  ARG D 557     -30.017  -1.743 -17.728  1.00 35.49     0.174 HD
ATOM     10  HH  ARG D 557     -29.584  -3.162 -17.757  1.00 35.49     0.174 HD
ATOM     11  HH  ARG D 557     -26.929  -2.841 -15.911  1.00 35.49     0.174 HD
ATOM     12  HH  ARG D 557     -27.733  -3.835 -16.669  1.00 35.49     0.174 HD
ATOM     13  HE  ARG D 557     -27.508  -0.815 -15.744  1.00 35.49     0.178 HD
ENDBRANCH   4   5
ENDBRANCH   3   4
ENDBRANCH   2   3
ENDBRANCH   1   2
END_RES ARG D 557
BEGIN_RES GLU D 570
REMARK  3 active torsions:
REMARK  status: ('A' for Active; 'I' for Inactive)
REMARK    5  A    between atoms: CA   and  CB  
REMARK    6  A    between atoms: CB   and  CG  
REMARK    7  A    between atoms: CG   and  CD  
ROOT
ATOM     14  CA  GLU D 570     -18.033  -6.348 -13.375  1.00 32.92     0.160 C 
ENDROOT
BRANCH  14  15
ATOM     15  CB  GLU D 570     -19.500  -6.345 -13.794  1.00 32.92     0.043 C 
BRANCH  15  16
ATOM     16  CG  GLU D 570     -19.796  -6.308 -15.250  1.00 32.92     0.100 C 
BRANCH  16  17
ATOM     17  CD  GLU D 570     -21.234  -5.956 -15.550  1.00 32.92     0.185 C 
ATOM     18  OE1 GLU D 570     -22.144  -6.590 -14.982  1.00 32.92    -0.647 OA
ATOM     19  OE2 GLU D 570     -21.453  -5.047 -16.374  1.00 32.92    -0.647 OA
ENDBRANCH  16  17
ENDBRANCH  15  16
ENDBRANCH  14  15
END_RES GLU D 570
ENDMDL
MODEL 6
REMARK VINA RESULT:      -6.8      2.269      5.018
REMARK  21 active torsions:
REMARK  status: ('A' for Active; 'I' for Inactive)
REMARK    1  A    between atoms: C_2  and  C_4 
REMARK    2  A    between atoms: C_4  and  C_5 
REMARK    3  A    between atoms: C_5  and  C_6 
REMARK    4  A    between atoms: C_6  and  C_7 
REMARK    5  A    between atoms: C_7  and  C_8 
REMARK    6  A    between atoms: C_8  and  C_9 
REMARK    7  A    between atoms: C_9  and  C_10 
REMARK    8  A    between atoms: C_10  and  C_11 
REMARK    9  A    between atoms: C_11  and  C_12 
REMARK   10  A    between atoms: C_12  and  C_13 
REMARK   11  A    between atoms: C_13  and  C_14 
REMARK   12  A    between atoms: C_14  and  C_15 
REMARK   13  A    between atoms: C_15  and  C_16 
REMARK   14  A    between atoms: C_16  and  C_17 
REMARK   15  A    between atoms: C_17  and  C_18 
REMARK   16  A    between atoms: C_18  and  O_20 
REMARK   17  A    between atoms: O_20  and  C_21 
REMARK   18  A    between atoms: C_21  and  C_22 
REMARK   19  A    between atoms: C_22  and  C_23 
REMARK   20  A    between atoms: C_22  and  O_25 
REMARK   21  A    between atoms: C_23  and  O_24 
ROOT
HETATM    1  C   UNL     1     -21.435  -6.078  -2.524  1.00  0.00     0.000 C 
ENDROOT
BRANCH   1   2
HETATM    2  C   UNL     1     -22.326  -6.676  -1.447  1.00  0.00     0.000 C 
BRANCH   2   3
HETATM    3  C   UNL     1     -21.608  -7.821  -0.748  1.00  0.00     0.000 C 
BRANCH   3   4
HETATM    4  C   UNL     1     -22.328  -8.184   0.541  1.00  0.00     0.000 C 
BRANCH   4   5
HETATM    5  C   UNL     1     -23.459  -9.158   0.255  1.00  0.00     0.000 C 
BRANCH   5   6
HETATM    6  C   UNL     1     -22.898 -10.532  -0.070  1.00  0.00     0.000 C 
BRANCH   6   7
HETATM    7  C   UNL     1     -23.653 -11.143  -1.240  1.00  0.00     0.000 C 
BRANCH   7   8
HETATM    8  C   UNL     1     -22.685 -11.513  -2.350  1.00  0.00     0.000 C 
BRANCH   8   9
HETATM    9  C   UNL     1     -22.640 -10.418  -3.405  1.00  0.00     0.000 C 
BRANCH   9  10
HETATM   10  C   UNL     1     -21.280 -10.419  -4.087  1.00  0.00     0.000 C 
BRANCH  10  11
HETATM   11  C   UNL     1     -20.153 -10.246  -3.074  1.00  0.00     0.004 C 
BRANCH  11  12
HETATM   12  C   UNL     1     -18.785 -10.037  -3.742  1.00  0.00    -0.023 C 
HETATM   13  C   UNL     1     -18.958  -9.220  -5.022  1.00  0.00     0.009 C 
HETATM   14  C   UNL     1     -17.785  -9.342  -2.814  1.00  0.00     0.009 C 
ENDBRANCH  11  12
ENDBRANCH  10  11
ENDBRANCH   9  10
ENDBRANCH   8   9
ENDBRANCH   7   8
ENDBRANCH   6   7
ENDBRANCH   5   6
ENDBRANCH   4   5
ENDBRANCH   3   4
ENDBRANCH   2   3
ENDBRANCH   1   2
BRANCH   1  15
HETATM   15  C   UNL     1     -21.600  -6.822  -3.845  1.00  0.00     0.000 C 
BRANCH  15  16
HETATM   16  C   UNL     1     -20.970  -6.013  -4.971  1.00  0.00     0.010 C 
BRANCH  16  17
HETATM   17  C   UNL     1     -21.993  -5.612  -6.020  1.00  0.00     0.111 C 
BRANCH  17  18
HETATM   18  C   UNL     1     -21.396  -4.574  -6.948  1.00  0.00     0.258 C 
HETATM   19  O   UNL     1     -20.251  -4.169  -6.907  1.00  0.00    -0.265 OA
BRANCH  18  20
HETATM   20  O   UNL     1     -22.380  -4.088  -7.764  1.00  0.00    -0.319 OA
BRANCH  20  21
HETATM   21  C   UNL     1     -21.885  -3.726  -9.057  1.00  0.00     0.212 C 
BRANCH  21  22
HETATM   22  C   UNL     1     -22.898  -3.946 -10.181  1.00  0.00     0.166 C 
BRANCH  22  23
HETATM   23  C   UNL     1     -24.357  -3.802  -9.733  1.00  0.00     0.198 C 
BRANCH  23  24
HETATM   24  O   UNL     1     -25.142  -3.170 -10.736  1.00  0.00    -0.398 OA
HETATM   25  H   UNL     1     -25.482  -2.329 -10.384  1.00  0.00     0.209 HD
ENDBRANCH  23  24
ENDBRANCH  22  23
BRANCH  22  26
HETATM   26  O   UNL     1     -22.598  -3.042 -11.243  1.00  0.00    -0.391 OA
HETATM   27  H   UNL     1     -21.626  -3.011 -11.355  1.00  0.00     0.210 HD
ENDBRANCH  22  26
ENDBRANCH  21  22
ENDBRANCH  20  21
ENDBRANCH  18  20
ENDBRANCH  17  18
ENDBRANCH  16  17
ENDBRANCH  15  16
ENDBRANCH   1  15
TORSDOF 21
BEGIN_RES ARG D 557
REMARK  4 active torsions:
REMARK  status: ('A' for Active; 'I' for Inactive)
REMARK    1  A    between atoms: CA   and  CB  
REMARK    2  A    between atoms: CB   and  CG  
REMARK    3  A    between atoms: CG   and  CD  
REMARK    4  A    between atoms: CD   and  NE  
REMARK       I    between atoms: NE   and  CZ  
REMARK       I    between atoms: CZ   and  NH1 
REMARK       I    between atoms: CZ   and  NH2 
ROOT
ATOM      1  CA  ARG D 557     -26.217   2.705 -17.014  1.00 35.49     0.159 C 
ENDROOT
BRANCH   1   2
ATOM      2  CB  ARG D 557     -26.789   1.319 -17.183  1.00 35.49     0.034 C 
BRANCH   2   3
ATOM      3  CG  ARG D 557     -25.875   0.194 -16.949  1.00 35.49     0.027 C 
BRANCH   3   4
ATOM      4  CD  ARG D 557     -26.345  -0.698 -15.865  1.00 35.49     0.116 C 
BRANCH   4   5
ATOM      5  NE  ARG D 557     -25.307  -0.984 -14.910  1.00 35.49    -0.212 N 
ATOM      6  CZ  ARG D 557     -25.079  -2.150 -14.349  1.00 35.49     0.666 C 
ATOM      7  NH1 ARG D 557     -25.815  -3.215 -14.603  1.00 35.49    -0.235 N 
ATOM      8  NH2 ARG D 557     -24.079  -2.232 -13.519  1.00 35.49    -0.235 N 
ATOM      9  HH  ARG D 557     -26.477  -3.185 -15.147  1.00 35.49     0.174 HD
ATOM     10  HH  ARG D 557     -25.618  -3.950 -14.209  1.00 35.49     0.174 HD
ATOM     11  HH  ARG D 557     -23.616  -1.529 -13.380  1.00 35.49     0.174 HD
ATOM     12  HH  ARG D 557     -23.898  -2.969 -13.141  1.00 35.49     0.174 HD
ATOM     13  HE  ARG D 557     -24.830  -0.336 -14.633  1.00 35.49     0.178 HD
ENDBRANCH   4   5
ENDBRANCH   3   4
ENDBRANCH   2   3
ENDBRANCH   1   2
END_RES ARG D 557
BEGIN_RES GLU D 570
REMARK  3 active torsions:
REMARK  status: ('A' for Active; 'I' for Inactive)
REMARK    5  A    between atoms: CA   and  CB  
REMARK    6  A    between atoms: CB   and  CG  
REMARK    7  A    between atoms: CG   and  CD  
ROOT
ATOM     14  CA  GLU D 570     -18.033  -6.348 -13.375  1.00 32.92     0.160 C 
ENDROOT
BRANCH  14  15
ATOM     15  CB  GLU D 570     -19.500  -6.345 -13.794  1.00 32.92     0.043 C 
BRANCH  15  16
ATOM     16  CG  GLU D 570     -20.412  -5.409 -13.087  1.00 32.92     0.100 C 
BRANCH  16  17
ATOM     17  CD  GLU D 570     -21.674  -5.117 -13.864  1.00 32.92     0.185 C 
ATOM     18  OE1 GLU D 570     -22.773  -5.185 -13.281  1.00 32.92    -0.647 OA
ATOM     19  OE2 GLU D 570     -21.564  -4.833 -15.073  1.00 32.92    -0.647 OA
ENDBRANCH  16  17
ENDBRANCH  15  16
ENDBRANCH  14  15
END_RES GLU D 570
ENDMDL
MODEL 7
REMARK VINA RESULT:      -6.7      1.903      2.636
REMARK  21 active torsions:
REMARK  status: ('A' for Active; 'I' for Inactive)
REMARK    1  A    between atoms: C_2  and  C_4 
REMARK    2  A    between atoms: C_4  and  C_5 
REMARK    3  A    between atoms: C_5  and  C_6 
REMARK    4  A    between atoms: C_6  and  C_7 
REMARK    5  A    between atoms: C_7  and  C_8 
REMARK    6  A    between atoms: C_8  and  C_9 
REMARK    7  A    between atoms: C_9  and  C_10 
REMARK    8  A    between atoms: C_10  and  C_11 
REMARK    9  A    between atoms: C_11  and  C_12 
REMARK   10  A    between atoms: C_12  and  C_13 
REMARK   11  A    between atoms: C_13  and  C_14 
REMARK   12  A    between atoms: C_14  and  C_15 
REMARK   13  A    between atoms: C_15  and  C_16 
REMARK   14  A    between atoms: C_16  and  C_17 
REMARK   15  A    between atoms: C_17  and  C_18 
REMARK   16  A    between atoms: C_18  and  O_20 
REMARK   17  A    between atoms: O_20  and  C_21 
REMARK   18  A    between atoms: C_21  and  C_22 
REMARK   19  A    between atoms: C_22  and  C_23 
REMARK   20  A    between atoms: C_22  and  O_25 
REMARK   21  A    between atoms: C_23  and  O_24 
ROOT
HETATM    1  C   UNL     1     -20.896  -3.695  -8.821  1.00  0.00     0.000 C 
ENDROOT
BRANCH   1   2
HETATM    2  C   UNL     1     -20.621  -4.124  -7.390  1.00  0.00     0.000 C 
BRANCH   2   3
HETATM    3  C   UNL     1     -19.747  -5.370  -7.374  1.00  0.00     0.000 C 
BRANCH   3   4
HETATM    4  C   UNL     1     -20.191  -6.310  -6.264  1.00  0.00     0.000 C 
BRANCH   4   5
HETATM    5  C   UNL     1     -21.135  -5.592  -5.314  1.00  0.00     0.000 C 
BRANCH   5   6
HETATM    6  C   UNL     1     -21.741  -6.580  -4.331  1.00  0.00     0.000 C 
BRANCH   6   7
HETATM    7  C   UNL     1     -21.350  -6.209  -2.909  1.00  0.00     0.000 C 
BRANCH   7   8
HETATM    8  C   UNL     1     -21.023  -7.461  -2.114  1.00  0.00     0.000 C 
BRANCH   8   9
HETATM    9  C   UNL     1     -21.475  -8.704  -2.867  1.00  0.00     0.000 C 
BRANCH   9  10
HETATM   10  C   UNL     1     -20.373  -9.752  -2.835  1.00  0.00     0.000 C 
BRANCH  10  11
HETATM   11  C   UNL     1     -19.001  -9.107  -2.669  1.00  0.00     0.004 C 
BRANCH  11  12
HETATM   12  C   UNL     1     -17.889  -9.895  -3.378  1.00  0.00    -0.023 C 
HETATM   13  C   UNL     1     -18.015  -9.715  -4.890  1.00  0.00     0.009 C 
HETATM   14  C   UNL     1     -16.491  -9.469  -2.920  1.00  0.00     0.009 C 
ENDBRANCH  11  12
ENDBRANCH  10  11
ENDBRANCH   9  10
ENDBRANCH   8   9
ENDBRANCH   7   8
ENDBRANCH   6   7
ENDBRANCH   5   6
ENDBRANCH   4   5
ENDBRANCH   3   4
ENDBRANCH   2   3
ENDBRANCH   1   2
BRANCH   1  15
HETATM   15  C   UNL     1     -20.239  -4.648  -9.814  1.00  0.00     0.000 C 
BRANCH  15  16
HETATM   16  C   UNL     1     -20.806  -4.408 -11.206  1.00  0.00     0.010 C 
BRANCH  16  17
HETATM   17  C   UNL     1     -22.008  -3.479 -11.176  1.00  0.00     0.111 C 
BRANCH  17  18
HETATM   18  C   UNL     1     -23.274  -4.268 -11.435  1.00  0.00     0.258 C 
HETATM   19  O   UNL     1     -23.735  -5.120 -10.702  1.00  0.00    -0.265 OA
BRANCH  18  20
HETATM   20  O   UNL     1     -23.753  -3.946 -12.675  1.00  0.00    -0.319 OA
BRANCH  20  21
HETATM   21  C   UNL     1     -23.323  -2.650 -13.105  1.00  0.00     0.212 C 
BRANCH  21  22
HETATM   22  C   UNL     1     -23.436  -2.440 -14.615  1.00  0.00     0.166 C 
BRANCH  22  23
HETATM   23  C   UNL     1     -23.726  -0.988 -15.015  1.00  0.00     0.198 C 
BRANCH  23  24
HETATM   24  O   UNL     1     -25.055  -0.617 -14.672  1.00  0.00    -0.398 OA
HETATM   25  H   UNL     1     -25.622  -0.722 -15.455  1.00  0.00     0.209 HD
ENDBRANCH  23  24
ENDBRANCH  22  23
BRANCH  22  26
HETATM   26  O   UNL     1     -22.236  -2.908 -15.227  1.00  0.00    -0.391 OA
HETATM   27  H   UNL     1     -21.664  -3.288 -14.530  1.00  0.00     0.210 HD
ENDBRANCH  22  26
ENDBRANCH  21  22
ENDBRANCH  20  21
ENDBRANCH  18  20
ENDBRANCH  17  18
ENDBRANCH  16  17
ENDBRANCH  15  16
ENDBRANCH   1  15
TORSDOF 21
BEGIN_RES ARG D 557
REMARK  4 active torsions:
REMARK  status: ('A' for Active; 'I' for Inactive)
REMARK    1  A    between atoms: CA   and  CB  
REMARK    2  A    between atoms: CB   and  CG  
REMARK    3  A    between atoms: CG   and  CD  
REMARK    4  A    between atoms: CD   and  NE  
REMARK       I    between atoms: NE   and  CZ  
REMARK       I    between atoms: CZ   and  NH1 
REMARK       I    between atoms: CZ   and  NH2 
ROOT
ATOM      1  CA  ARG D 557     -26.217   2.705 -17.014  1.00 35.49     0.159 C 
ENDROOT
BRANCH   1   2
ATOM      2  CB  ARG D 557     -26.789   1.319 -17.183  1.00 35.49     0.034 C 
BRANCH   2   3
ATOM      3  CG  ARG D 557     -28.228   1.227 -17.458  1.00 35.49     0.027 C 
BRANCH   3   4
ATOM      4  CD  ARG D 557     -28.924   0.314 -16.522  1.00 35.49     0.116 C 
BRANCH   4   5
ATOM      5  NE  ARG D 557     -29.211  -0.962 -17.122  1.00 35.49    -0.212 N 
ATOM      6  CZ  ARG D 557     -28.513  -2.063 -16.957  1.00 35.49     0.666 C 
ATOM      7  NH1 ARG D 557     -27.428  -2.109 -16.206  1.00 35.49    -0.235 N 
ATOM      8  NH2 ARG D 557     -28.933  -3.136 -17.562  1.00 35.49    -0.235 N 
ATOM      9  HH  ARG D 557     -27.135  -1.415 -15.797  1.00 35.49     0.174 HD
ATOM     10  HH  ARG D 557     -27.015  -2.856 -16.133  1.00 35.49     0.174 HD
ATOM     11  HH  ARG D 557     -29.640  -3.078 -18.035  1.00 35.49     0.174 HD
ATOM     12  HH  ARG D 557     -28.511  -3.866 -17.476  1.00 35.49     0.174 HD
ATOM     13  HE  ARG D 557     -29.852  -1.006 -17.680  1.00 35.49     0.178 HD
ENDBRANCH   4   5
ENDBRANCH   3   4
ENDBRANCH   2   3
ENDBRANCH   1   2
END_RES ARG D 557
BEGIN_RES GLU D 570
REMARK  3 active torsions:
REMARK  status: ('A' for Active; 'I' for Inactive)
REMARK    5  A    between atoms: CA   and  CB  
REMARK    6  A    between atoms: CB   and  CG  
REMARK    7  A    between atoms: CG   and  CD  
ROOT
ATOM     14  CA  GLU D 570     -18.033  -6.348 -13.375  1.00 32.92     0.160 C 
ENDROOT
BRANCH  14  15
ATOM     15  CB  GLU D 570     -19.500  -6.345 -13.794  1.00 32.92     0.043 C 
BRANCH  15  16
ATOM     16  CG  GLU D 570     -19.814  -6.749 -15.189  1.00 32.92     0.100 C 
BRANCH  16  17
ATOM     17  CD  GLU D 570     -21.199  -6.331 -15.625  1.00 32.92     0.185 C 
ATOM     18  OE1 GLU D 570     -21.575  -6.597 -16.783  1.00 32.92    -0.647 OA
ATOM     19  OE2 GLU D 570     -21.910  -5.717 -14.806  1.00 32.92    -0.647 OA
ENDBRANCH  16  17
ENDBRANCH  15  16
ENDBRANCH  14  15
END_RES GLU D 570
ENDMDL
MODEL 8
REMARK VINA RESULT:      -6.6      1.771      3.733
REMARK  21 active torsions:
REMARK  status: ('A' for Active; 'I' for Inactive)
REMARK    1  A    between atoms: C_2  and  C_4 
REMARK    2  A    between atoms: C_4  and  C_5 
REMARK    3  A    between atoms: C_5  and  C_6 
REMARK    4  A    between atoms: C_6  and  C_7 
REMARK    5  A    between atoms: C_7  and  C_8 
REMARK    6  A    between atoms: C_8  and  C_9 
REMARK    7  A    between atoms: C_9  and  C_10 
REMARK    8  A    between atoms: C_10  and  C_11 
REMARK    9  A    between atoms: C_11  and  C_12 
REMARK   10  A    between atoms: C_12  and  C_13 
REMARK   11  A    between atoms: C_13  and  C_14 
REMARK   12  A    between atoms: C_14  and  C_15 
REMARK   13  A    between atoms: C_15  and  C_16 
REMARK   14  A    between atoms: C_16  and  C_17 
REMARK   15  A    between atoms: C_17  and  C_18 
REMARK   16  A    between atoms: C_18  and  O_20 
REMARK   17  A    between atoms: O_20  and  C_21 
REMARK   18  A    between atoms: C_21  and  C_22 
REMARK   19  A    between atoms: C_22  and  C_23 
REMARK   20  A    between atoms: C_22  and  O_25 
REMARK   21  A    between atoms: C_23  and  O_24 
ROOT
HETATM    1  C   UNL     1     -21.428  -6.927  -5.249  1.00  0.00     0.000 C 
ENDROOT
BRANCH   1   2
HETATM    2  C   UNL     1     -21.214  -5.998  -4.064  1.00  0.00     0.000 C 
BRANCH   2   3
HETATM    3  C   UNL     1     -21.226  -6.792  -2.766  1.00  0.00     0.000 C 
BRANCH   3   4
HETATM    4  C   UNL     1     -22.301  -6.258  -1.833  1.00  0.00     0.000 C 
BRANCH   4   5
HETATM    5  C   UNL     1     -22.330  -7.067  -0.547  1.00  0.00     0.000 C 
BRANCH   5   6
HETATM    6  C   UNL     1     -21.214  -8.098  -0.550  1.00  0.00     0.000 C 
BRANCH   6   7
HETATM    7  C   UNL     1     -21.781  -9.485  -0.291  1.00  0.00     0.000 C 
BRANCH   7   8
HETATM    8  C   UNL     1     -20.973 -10.186   0.787  1.00  0.00     0.000 C 
BRANCH   8   9
HETATM    9  C   UNL     1     -20.167 -11.331   0.190  1.00  0.00     0.000 C 
BRANCH   9  10
HETATM   10  C   UNL     1     -21.058 -12.553   0.026  1.00  0.00     0.000 C 
BRANCH  10  11
HETATM   11  C   UNL     1     -21.807 -12.869   1.316  1.00  0.00     0.004 C 
BRANCH  11  12
HETATM   12  C   UNL     1     -23.299 -13.150   1.081  1.00  0.00    -0.023 C 
HETATM   13  C   UNL     1     -23.700 -12.658  -0.310  1.00  0.00     0.009 C 
HETATM   14  C   UNL     1     -23.642 -14.635   1.225  1.00  0.00     0.009 C 
ENDBRANCH  11  12
ENDBRANCH  10  11
ENDBRANCH   9  10
ENDBRANCH   8   9
ENDBRANCH   7   8
ENDBRANCH   6   7
ENDBRANCH   5   6
ENDBRANCH   4   5
ENDBRANCH   3   4
ENDBRANCH   2   3
ENDBRANCH   1   2
BRANCH   1  15
HETATM   15  C   UNL     1     -20.667  -6.432  -6.475  1.00  0.00     0.000 C 
BRANCH  15  16
HETATM   16  C   UNL     1     -20.381  -4.944  -6.333  1.00  0.00     0.010 C 
BRANCH  16  17
HETATM   17  C   UNL     1     -20.650  -4.190  -7.624  1.00  0.00     0.111 C 
BRANCH  17  18
HETATM   18  C   UNL     1     -22.097  -4.369  -8.031  1.00  0.00     0.258 C 
HETATM   19  O   UNL     1     -23.050  -4.338  -7.278  1.00  0.00    -0.265 OA
BRANCH  18  20
HETATM   20  O   UNL     1     -22.150  -4.680  -9.363  1.00  0.00    -0.319 OA
BRANCH  20  21
HETATM   21  C   UNL     1     -22.323  -3.521 -10.186  1.00  0.00     0.212 C 
BRANCH  21  22
HETATM   22  C   UNL     1     -23.638  -3.516 -10.964  1.00  0.00     0.166 C 
BRANCH  22  23
HETATM   23  C   UNL     1     -24.879  -3.357 -10.076  1.00  0.00     0.198 C 
BRANCH  23  24
HETATM   24  O   UNL     1     -25.248  -4.596  -9.485  1.00  0.00    -0.398 OA
HETATM   25  H   UNL     1     -26.138  -4.507  -9.102  1.00  0.00     0.209 HD
ENDBRANCH  23  24
ENDBRANCH  22  23
BRANCH  22  26
HETATM   26  O   UNL     1     -23.578  -2.485 -11.947  1.00  0.00    -0.391 OA
HETATM   27  H   UNL     1     -23.437  -1.632 -11.489  1.00  0.00     0.210 HD
ENDBRANCH  22  26
ENDBRANCH  21  22
ENDBRANCH  20  21
ENDBRANCH  18  20
ENDBRANCH  17  18
ENDBRANCH  16  17
ENDBRANCH  15  16
ENDBRANCH   1  15
TORSDOF 21
BEGIN_RES ARG D 557
REMARK  4 active torsions:
REMARK  status: ('A' for Active; 'I' for Inactive)
REMARK    1  A    between atoms: CA   and  CB  
REMARK    2  A    between atoms: CB   and  CG  
REMARK    3  A    between atoms: CG   and  CD  
REMARK    4  A    between atoms: CD   and  NE  
REMARK       I    between atoms: NE   and  CZ  
REMARK       I    between atoms: CZ   and  NH1 
REMARK       I    between atoms: CZ   and  NH2 
ROOT
ATOM      1  CA  ARG D 557     -26.217   2.705 -17.014  1.00 35.49     0.159 C 
ENDROOT
BRANCH   1   2
ATOM      2  CB  ARG D 557     -26.789   1.319 -17.183  1.00 35.49     0.034 C 
BRANCH   2   3
ATOM      3  CG  ARG D 557     -28.186   1.127 -16.775  1.00 35.49     0.027 C 
BRANCH   3   4
ATOM      4  CD  ARG D 557     -28.727  -0.180 -17.213  1.00 35.49     0.116 C 
BRANCH   4   5
ATOM      5  NE  ARG D 557     -27.995  -1.286 -16.653  1.00 35.49    -0.212 N 
ATOM      6  CZ  ARG D 557     -28.276  -2.558 -16.823  1.00 35.49     0.666 C 
ATOM      7  NH1 ARG D 557     -29.306  -2.967 -17.541  1.00 35.49    -0.235 N 
ATOM      8  NH2 ARG D 557     -27.490  -3.427 -16.257  1.00 35.49    -0.235 N 
ATOM      9  HH  ARG D 557     -29.835  -2.413 -17.924  1.00 35.49     0.174 HD
ATOM     10  HH  ARG D 557     -29.439  -3.810 -17.619  1.00 35.49     0.174 HD
ATOM     11  HH  ARG D 557     -26.829  -3.134 -15.806  1.00 35.49     0.174 HD
ATOM     12  HH  ARG D 557     -27.637  -4.258 -16.347  1.00 35.49     0.174 HD
ATOM     13  HE  ARG D 557     -27.358  -1.112 -16.117  1.00 35.49     0.178 HD
ENDBRANCH   4   5
ENDBRANCH   3   4
ENDBRANCH   2   3
ENDBRANCH   1   2
END_RES ARG D 557
BEGIN_RES GLU D 570
REMARK  3 active torsions:
REMARK  status: ('A' for Active; 'I' for Inactive)
REMARK    5  A    between atoms: CA   and  CB  
REMARK    6  A    between atoms: CB   and  CG  
REMARK    7  A    between atoms: CG   and  CD  
ROOT
ATOM     14  CA  GLU D 570     -18.033  -6.348 -13.375  1.00 32.92     0.160 C 
ENDROOT
BRANCH  14  15
ATOM     15  CB  GLU D 570     -19.500  -6.345 -13.794  1.00 32.92     0.043 C 
BRANCH  15  16
ATOM     16  CG  GLU D 570     -20.416  -5.422 -13.074  1.00 32.92     0.100 C 
BRANCH  16  17
ATOM     17  CD  GLU D 570     -21.721  -5.201 -13.802  1.00 32.92     0.185 C 
ATOM     18  OE1 GLU D 570     -22.174  -4.044 -13.894  1.00 32.92    -0.647 OA
ATOM     19  OE2 GLU D 570     -22.306  -6.198 -14.270  1.00 32.92    -0.647 OA
ENDBRANCH  16  17
ENDBRANCH  15  16
ENDBRANCH  14  15
END_RES GLU D 570
ENDMDL
MODEL 9
REMARK VINA RESULT:      -6.5      2.320      4.400
REMARK  21 active torsions:
REMARK  status: ('A' for Active; 'I' for Inactive)
REMARK    1  A    between atoms: C_2  and  C_4 
REMARK    2  A    between atoms: C_4  and  C_5 
REMARK    3  A    between atoms: C_5  and  C_6 
REMARK    4  A    between atoms: C_6  and  C_7 
REMARK    5  A    between atoms: C_7  and  C_8 
REMARK    6  A    between atoms: C_8  and  C_9 
REMARK    7  A    between atoms: C_9  and  C_10 
REMARK    8  A    between atoms: C_10  and  C_11 
REMARK    9  A    between atoms: C_11  and  C_12 
REMARK   10  A    between atoms: C_12  and  C_13 
REMARK   11  A    between atoms: C_13  and  C_14 
REMARK   12  A    between atoms: C_14  and  C_15 
REMARK   13  A    between atoms: C_15  and  C_16 
REMARK   14  A    between atoms: C_16  and  C_17 
REMARK   15  A    between atoms: C_17  and  C_18 
REMARK   16  A    between atoms: C_18  and  O_20 
REMARK   17  A    between atoms: O_20  and  C_21 
REMARK   18  A    between atoms: C_21  and  C_22 
REMARK   19  A    between atoms: C_22  and  C_23 
REMARK   20  A    between atoms: C_22  and  O_25 
REMARK   21  A    between atoms: C_23  and  O_24 
ROOT
HETATM    1  C   UNL     1     -21.853  -6.973  -4.505  1.00  0.00     0.000 C 
ENDROOT
BRANCH   1   2
HETATM    2  C   UNL     1     -21.249  -7.043  -3.112  1.00  0.00     0.000 C 
BRANCH   2   3
HETATM    3  C   UNL     1     -22.045  -6.172  -2.150  1.00  0.00     0.000 C 
BRANCH   3   4
HETATM    4  C   UNL     1     -22.411  -6.964  -0.905  1.00  0.00     0.000 C 
BRANCH   4   5
HETATM    5  C   UNL     1     -21.303  -7.947  -0.563  1.00  0.00     0.000 C 
BRANCH   5   6
HETATM    6  C   UNL     1     -21.704  -8.794   0.633  1.00  0.00     0.000 C 
BRANCH   6   7
HETATM    7  C   UNL     1     -21.267 -10.235   0.424  1.00  0.00     0.000 C 
BRANCH   7   8
HETATM    8  C   UNL     1     -21.982 -10.828  -0.778  1.00  0.00     0.000 C 
BRANCH   8   9
HETATM    9  C   UNL     1     -23.444 -11.098  -0.449  1.00  0.00     0.000 C 
BRANCH   9  10
HETATM   10  C   UNL     1     -23.629 -12.569  -0.109  1.00  0.00     0.000 C 
BRANCH  10  11
HETATM   11  C   UNL     1     -23.292 -12.846   1.352  1.00  0.00     0.004 C 
BRANCH  11  12
HETATM   12  C   UNL     1     -23.511 -14.317   1.740  1.00  0.00    -0.023 C 
HETATM   13  C   UNL     1     -23.230 -15.213   0.535  1.00  0.00     0.009 C 
HETATM   14  C   UNL     1     -22.634 -14.744   2.920  1.00  0.00     0.009 C 
ENDBRANCH  11  12
ENDBRANCH  10  11
ENDBRANCH   9  10
ENDBRANCH   8   9
ENDBRANCH   7   8
ENDBRANCH   6   7
ENDBRANCH   5   6
ENDBRANCH   4   5
ENDBRANCH   3   4
ENDBRANCH   2   3
ENDBRANCH   1   2
BRANCH   1  15
HETATM   15  C   UNL     1     -20.811  -6.539  -5.531  1.00  0.00     0.000 C 
BRANCH  15  16
HETATM   16  C   UNL     1     -20.567  -5.041  -5.410  1.00  0.00     0.010 C 
BRANCH  16  17
HETATM   17  C   UNL     1     -20.800  -4.321  -6.728  1.00  0.00     0.111 C 
BRANCH  17  18
HETATM   18  C   UNL     1     -22.200  -4.608  -7.229  1.00  0.00     0.258 C 
HETATM   19  O   UNL     1     -23.209  -4.577  -6.554  1.00  0.00    -0.265 OA
BRANCH  18  20
HETATM   20  O   UNL     1     -22.131  -5.014  -8.534  1.00  0.00    -0.319 OA
BRANCH  20  21
HETATM   21  C   UNL     1     -22.919  -4.193  -9.401  1.00  0.00     0.212 C 
BRANCH  21  22
HETATM   22  C   UNL     1     -22.170  -3.729 -10.649  1.00  0.00     0.166 C 
BRANCH  22  23
HETATM   23  C   UNL     1     -20.668  -4.042 -10.619  1.00  0.00     0.198 C 
BRANCH  23  24
HETATM   24  O   UNL     1     -20.066  -3.786 -11.881  1.00  0.00    -0.398 OA
HETATM   25  H   UNL     1     -19.304  -4.380 -11.991  1.00  0.00     0.209 HD
ENDBRANCH  23  24
ENDBRANCH  22  23
BRANCH  22  26
HETATM   26  O   UNL     1     -22.790  -4.314 -11.793  1.00  0.00    -0.391 OA
HETATM   27  H   UNL     1     -22.096  -4.502 -12.456  1.00  0.00     0.210 HD
ENDBRANCH  22  26
ENDBRANCH  21  22
ENDBRANCH  20  21
ENDBRANCH  18  20
ENDBRANCH  17  18
ENDBRANCH  16  17
ENDBRANCH  15  16
ENDBRANCH   1  15
TORSDOF 21
BEGIN_RES ARG D 557
REMARK  4 active torsions:
REMARK  status: ('A' for Active; 'I' for Inactive)
REMARK    1  A    between atoms: CA   and  CB  
REMARK    2  A    between atoms: CB   and  CG  
REMARK    3  A    between atoms: CG   and  CD  
REMARK    4  A    between atoms: CD   and  NE  
REMARK       I    between atoms: NE   and  CZ  
REMARK       I    between atoms: CZ   and  NH1 
REMARK       I    between atoms: CZ   and  NH2 
ROOT
ATOM      1  CA  ARG D 557     -26.217   2.705 -17.014  1.00 35.49     0.159 C 
ENDROOT
BRANCH   1   2
ATOM      2  CB  ARG D 557     -26.789   1.319 -17.183  1.00 35.49     0.034 C 
BRANCH   2   3
ATOM      3  CG  ARG D 557     -25.865   0.195 -16.989  1.00 35.49     0.027 C 
BRANCH   3   4
ATOM      4  CD  ARG D 557     -26.244  -0.655 -15.838  1.00 35.49     0.116 C 
BRANCH   4   5
ATOM      5  NE  ARG D 557     -25.133  -0.903 -14.957  1.00 35.49    -0.212 N 
ATOM      6  CZ  ARG D 557     -24.837  -2.055 -14.399  1.00 35.49     0.666 C 
ATOM      7  NH1 ARG D 557     -25.565  -3.141 -14.586  1.00 35.49    -0.235 N 
ATOM      8  NH2 ARG D 557     -23.778  -2.102 -13.644  1.00 35.49    -0.235 N 
ATOM      9  HH  ARG D 557     -26.264  -3.134 -15.080  1.00 35.49     0.174 HD
ATOM     10  HH  ARG D 557     -25.322  -3.865 -14.198  1.00 35.49     0.174 HD
ATOM     11  HH  ARG D 557     -23.324  -1.387 -13.548  1.00 35.49     0.174 HD
ATOM     12  HH  ARG D 557     -23.553  -2.829 -13.270  1.00 35.49     0.174 HD
ATOM     13  HE  ARG D 557     -24.653  -0.241 -14.724  1.00 35.49     0.178 HD
ENDBRANCH   4   5
ENDBRANCH   3   4
ENDBRANCH   2   3
ENDBRANCH   1   2
END_RES ARG D 557
BEGIN_RES GLU D 570
REMARK  3 active torsions:
REMARK  status: ('A' for Active; 'I' for Inactive)
REMARK    5  A    between atoms: CA   and  CB  
REMARK    6  A    between atoms: CB   and  CG  
REMARK    7  A    between atoms: CG   and  CD  
ROOT
ATOM     14  CA  GLU D 570     -18.033  -6.348 -13.375  1.00 32.92     0.160 C 
ENDROOT
BRANCH  14  15
ATOM     15  CB  GLU D 570     -19.500  -6.345 -13.794  1.00 32.92     0.043 C 
BRANCH  15  16
ATOM     16  CG  GLU D 570     -19.820  -5.863 -15.162  1.00 32.92     0.100 C 
BRANCH  16  17
ATOM     17  CD  GLU D 570     -21.204  -5.266 -15.268  1.00 32.92     0.185 C 
ATOM     18  OE1 GLU D 570     -21.691  -4.687 -14.278  1.00 32.92    -0.647 OA
ATOM     19  OE2 GLU D 570     -21.815  -5.393 -16.348  1.00 32.92    -0.647 OA
ENDBRANCH  16  17
ENDBRANCH  15  16
ENDBRANCH  14  15
END_RES GLU D 570
ENDMDL
