MODEL 1
REMARK VINA RESULT:      -8.2      0.000      0.000
REMARK  23 active torsions:
REMARK  status: ('A' for Active; 'I' for Inactive)
REMARK    1  A    between atoms: C_2  and  C_3 
REMARK    2  A    between atoms: C_3  and  C_4 
REMARK    3  A    between atoms: C_4  and  C_5 
REMARK    4  A    between atoms: C_5  and  C_6 
REMARK    5  A    between atoms: C_6  and  C_7 
REMARK    6  A    between atoms: C_7  and  C_8 
REMARK    7  A    between atoms: C_8  and  C_9 
REMARK    8  A    between atoms: C_9  and  C_10 
REMARK    9  A    between atoms: C_10  and  C_11 
REMARK   10  A    between atoms: C_11  and  C_12 
REMARK   11  A    between atoms: C_12  and  C_13 
REMARK   12  A    between atoms: C_13  and  C_14 
REMARK   13  A    between atoms: C_14  and  C_15 
REMARK   14  A    between atoms: C_15  and  C_16 
REMARK   15  A    between atoms: C_16  and  C_17 
REMARK   16  A    between atoms: C_17  and  C_18 
REMARK   17  A    between atoms: C_18  and  O_20 
REMARK   18  A    between atoms: O_20  and  C_21 
REMARK   19  A    between atoms: C_21  and  C_22 
REMARK   20  A    between atoms: C_22  and  C_23 
REMARK   21  A    between atoms: C_22  and  O_30 
REMARK   22  A    between atoms: C_24  and  O_29 
REMARK   23  A    between atoms: C_25  and  O_28 
ROOT
HETATM    1  C   UNL     1     -20.261  -5.050  -8.091  1.00  0.00     0.111 C 
ENDROOT
BRANCH   1   2
HETATM    2  C   UNL     1     -20.464  -4.202  -6.839  1.00  0.00     0.010 C 
BRANCH   2   3
HETATM    3  C   UNL     1     -20.434  -5.030  -5.562  1.00  0.00     0.000 C 
BRANCH   3   4
HETATM    4  C   UNL     1     -20.981  -6.431  -5.812  1.00  0.00     0.000 C 
BRANCH   4   5
HETATM    5  C   UNL     1     -21.869  -6.867  -4.666  1.00  0.00     0.000 C 
BRANCH   5   6
HETATM    6  C   UNL     1     -21.479  -6.133  -3.396  1.00  0.00     0.000 C 
BRANCH   6   7
HETATM    7  C   UNL     1     -21.302  -7.124  -2.261  1.00  0.00     0.000 C 
BRANCH   7   8
HETATM    8  C   UNL     1     -22.305  -6.834  -1.160  1.00  0.00     0.000 C 
BRANCH   8   9
HETATM    9  C   UNL     1     -22.517  -8.076  -0.315  1.00  0.00     0.000 C 
BRANCH   9  10
HETATM   10  C   UNL     1     -21.930  -7.866   1.069  1.00  0.00     0.000 C 
BRANCH  10  11
HETATM   11  C   UNL     1     -21.028  -9.033   1.429  1.00  0.00     0.000 C 
BRANCH  11  12
HETATM   12  C   UNL     1     -20.853  -9.940   0.224  1.00  0.00     0.000 C 
BRANCH  12  13
HETATM   13  C   UNL     1     -20.717 -11.384   0.678  1.00  0.00     0.000 C 
BRANCH  13  14
HETATM   14  C   UNL     1     -21.677 -12.265  -0.101  1.00  0.00     0.000 C 
BRANCH  14  15
HETATM   15  C   UNL     1     -23.011 -12.350   0.623  1.00  0.00    -0.000 C 
BRANCH  15  16
HETATM   16  C   UNL     1     -24.020 -11.403  -0.011  1.00  0.00    -0.005 C 
HETATM   17  C   UNL     1     -23.842 -11.376  -1.516  1.00  0.00     0.005 C 
ENDBRANCH  15  16
ENDBRANCH  14  15
ENDBRANCH  13  14
ENDBRANCH  12  13
ENDBRANCH  11  12
ENDBRANCH  10  11
ENDBRANCH   9  10
ENDBRANCH   8   9
ENDBRANCH   7   8
ENDBRANCH   6   7
ENDBRANCH   5   6
ENDBRANCH   4   5
ENDBRANCH   3   4
ENDBRANCH   2   3
ENDBRANCH   1   2
BRANCH   1  18
HETATM   18  C   UNL     1     -20.976  -4.426  -9.259  1.00  0.00     0.258 C 
HETATM   19  O   UNL     1     -20.451  -4.311 -10.366  1.00  0.00    -0.265 OA
BRANCH  18  20
HETATM   20  O   UNL     1     -22.206  -3.959  -8.899  1.00  0.00    -0.319 OA
BRANCH  20  21
HETATM   21  C   UNL     1     -23.338  -4.455  -9.659  1.00  0.00     0.213 C 
BRANCH  21  22
HETATM   22  C   UNL     1     -24.144  -3.350 -10.342  1.00  0.00     0.174 C 
BRANCH  22  23
HETATM   23  C   UNL     1     -24.153  -3.496 -11.866  1.00  0.00     0.183 C 
HETATM   24  C   UNL     1     -23.001  -2.730 -12.523  1.00  0.00     0.180 C 
HETATM   25  C   UNL     1     -23.570  -2.260 -13.859  1.00  0.00     0.173 C 
HETATM   26  C   UNL     1     -25.012  -2.755 -13.854  1.00  0.00     0.202 C 
HETATM   27  O   UNL     1     -25.356  -2.972 -12.480  1.00  0.00    -0.378 OA
BRANCH  24  28
HETATM   28  O   UNL     1     -21.822  -3.510 -12.670  1.00  0.00    -0.390 OA
HETATM   29  H   UNL     1     -21.845  -4.255 -12.038  1.00  0.00     0.210 HD
ENDBRANCH  24  28
BRANCH  25  30
HETATM   30  O   UNL     1     -22.839  -2.715 -14.997  1.00  0.00    -0.391 OA
HETATM   31  H   UNL     1     -21.887  -2.679 -14.792  1.00  0.00     0.210 HD
ENDBRANCH  25  30
ENDBRANCH  22  23
BRANCH  22  32
HETATM   32  O   UNL     1     -25.483  -3.269  -9.834  1.00  0.00    -0.391 OA
HETATM   33  H   UNL     1     -25.589  -3.997  -9.212  1.00  0.00     0.210 HD
ENDBRANCH  22  32
ENDBRANCH  21  22
ENDBRANCH  20  21
ENDBRANCH  18  20
ENDBRANCH   1  18
TORSDOF 23
BEGIN_RES ARG D 557
REMARK  4 active torsions:
REMARK  status: ('A' for Active; 'I' for Inactive)
REMARK    1  A    between atoms: CA   and  CB  
REMARK    2  A    between atoms: CB   and  CG  
REMARK    3  A    between atoms: CG   and  CD  
REMARK    4  A    between atoms: CD   and  NE  
REMARK       I    between atoms: NE   and  CZ  
REMARK       I    between atoms: CZ   and  NH1 
REMARK       I    between atoms: CZ   and  NH2 
ROOT
ATOM      1  CA  ARG D 557     -26.217   2.705 -17.014  1.00 35.49     0.159 C 
ENDROOT
BRANCH   1   2
ATOM      2  CB  ARG D 557     -26.789   1.319 -17.183  1.00 35.49     0.034 C 
BRANCH   2   3
ATOM      3  CG  ARG D 557     -28.230   1.227 -17.446  1.00 35.49     0.027 C 
BRANCH   3   4
ATOM      4  CD  ARG D 557     -28.920   0.323 -16.497  1.00 35.49     0.116 C 
BRANCH   4   5
ATOM      5  NE  ARG D 557     -29.319  -0.912 -17.117  1.00 35.49    -0.212 N 
ATOM      6  CZ  ARG D 557     -28.678  -2.056 -17.034  1.00 35.49     0.666 C 
ATOM      7  NH1 ARG D 557     -27.551  -2.189 -16.358  1.00 35.49    -0.235 N 
ATOM      8  NH2 ARG D 557     -29.197  -3.082 -17.644  1.00 35.49    -0.235 N 
ATOM      9  HH  ARG D 557     -27.193  -1.528 -15.947  1.00 35.49     0.174 HD
ATOM     10  HH  ARG D 557     -27.178  -2.961 -16.337  1.00 35.49     0.174 HD
ATOM     11  HH  ARG D 557     -29.929  -2.968 -18.066  1.00 35.49     0.174 HD
ATOM     12  HH  ARG D 557     -28.813  -3.837 -17.609  1.00 35.49     0.174 HD
ATOM     13  HE  ARG D 557     -29.996  -0.901 -17.632  1.00 35.49     0.178 HD
ENDBRANCH   4   5
ENDBRANCH   3   4
ENDBRANCH   2   3
ENDBRANCH   1   2
END_RES ARG D 557
BEGIN_RES GLU D 570
REMARK  3 active torsions:
REMARK  status: ('A' for Active; 'I' for Inactive)
REMARK    5  A    between atoms: CA   and  CB  
REMARK    6  A    between atoms: CB   and  CG  
REMARK    7  A    between atoms: CG   and  CD  
ROOT
ATOM     14  CA  GLU D 570     -18.033  -6.348 -13.375  1.00 32.92     0.160 C 
ENDROOT
BRANCH  14  15
ATOM     15  CB  GLU D 570     -19.500  -6.345 -13.794  1.00 32.92     0.043 C 
BRANCH  15  16
ATOM     16  CG  GLU D 570     -19.802  -6.104 -15.229  1.00 32.92     0.100 C 
BRANCH  16  17
ATOM     17  CD  GLU D 570     -21.196  -5.568 -15.456  1.00 32.92     0.185 C 
ATOM     18  OE1 GLU D 570     -21.470  -5.039 -16.550  1.00 32.92    -0.647 OA
ATOM     19  OE2 GLU D 570     -22.018  -5.664 -14.524  1.00 32.92    -0.647 OA
ENDBRANCH  16  17
ENDBRANCH  15  16
ENDBRANCH  14  15
END_RES GLU D 570
ENDMDL
MODEL 2
REMARK VINA RESULT:      -7.9      1.303      2.831
REMARK  23 active torsions:
REMARK  status: ('A' for Active; 'I' for Inactive)
REMARK    1  A    between atoms: C_2  and  C_3 
REMARK    2  A    between atoms: C_3  and  C_4 
REMARK    3  A    between atoms: C_4  and  C_5 
REMARK    4  A    between atoms: C_5  and  C_6 
REMARK    5  A    between atoms: C_6  and  C_7 
REMARK    6  A    between atoms: C_7  and  C_8 
REMARK    7  A    between atoms: C_8  and  C_9 
REMARK    8  A    between atoms: C_9  and  C_10 
REMARK    9  A    between atoms: C_10  and  C_11 
REMARK   10  A    between atoms: C_11  and  C_12 
REMARK   11  A    between atoms: C_12  and  C_13 
REMARK   12  A    between atoms: C_13  and  C_14 
REMARK   13  A    between atoms: C_14  and  C_15 
REMARK   14  A    between atoms: C_15  and  C_16 
REMARK   15  A    between atoms: C_16  and  C_17 
REMARK   16  A    between atoms: C_17  and  C_18 
REMARK   17  A    between atoms: C_18  and  O_20 
REMARK   18  A    between atoms: O_20  and  C_21 
REMARK   19  A    between atoms: C_21  and  C_22 
REMARK   20  A    between atoms: C_22  and  C_23 
REMARK   21  A    between atoms: C_22  and  O_30 
REMARK   22  A    between atoms: C_24  and  O_29 
REMARK   23  A    between atoms: C_25  and  O_28 
ROOT
HETATM    1  C   UNL     1     -23.441  -4.459  -9.204  1.00  0.00     0.111 C 
ENDROOT
BRANCH   1   2
HETATM    2  C   UNL     1     -22.260  -3.684  -8.626  1.00  0.00     0.010 C 
BRANCH   2   3
HETATM    3  C   UNL     1     -20.918  -4.254  -9.063  1.00  0.00     0.000 C 
BRANCH   3   4
HETATM    4  C   UNL     1     -19.865  -4.051  -7.980  1.00  0.00     0.000 C 
BRANCH   4   5
HETATM    5  C   UNL     1     -20.412  -4.444  -6.625  1.00  0.00     0.000 C 
BRANCH   5   6
HETATM    6  C   UNL     1     -19.937  -5.837  -6.254  1.00  0.00     0.000 C 
BRANCH   6   7
HETATM    7  C   UNL     1     -21.117  -6.789  -6.210  1.00  0.00     0.000 C 
BRANCH   7   8
HETATM    8  C   UNL     1     -21.265  -7.363  -4.813  1.00  0.00     0.000 C 
BRANCH   8   9
HETATM    9  C   UNL     1     -22.275  -6.551  -4.026  1.00  0.00     0.000 C 
BRANCH   9  10
HETATM   10  C   UNL     1     -21.668  -6.109  -2.707  1.00  0.00     0.000 C 
BRANCH  10  11
HETATM   11  C   UNL     1     -21.196  -7.321  -1.924  1.00  0.00     0.000 C 
BRANCH  11  12
HETATM   12  C   UNL     1     -22.084  -7.530  -0.711  1.00  0.00     0.000 C 
BRANCH  12  13
HETATM   13  C   UNL     1     -21.351  -8.359   0.330  1.00  0.00     0.000 C 
BRANCH  13  14
HETATM   14  C   UNL     1     -21.927  -9.763   0.374  1.00  0.00     0.000 C 
BRANCH  14  15
HETATM   15  C   UNL     1     -23.375  -9.748  -0.086  1.00  0.00    -0.000 C 
BRANCH  15  16
HETATM   16  C   UNL     1     -23.689 -10.998  -0.896  1.00  0.00    -0.005 C 
HETATM   17  C   UNL     1     -23.681 -12.220   0.001  1.00  0.00     0.005 C 
ENDBRANCH  15  16
ENDBRANCH  14  15
ENDBRANCH  13  14
ENDBRANCH  12  13
ENDBRANCH  11  12
ENDBRANCH  10  11
ENDBRANCH   9  10
ENDBRANCH   8   9
ENDBRANCH   7   8
ENDBRANCH   6   7
ENDBRANCH   5   6
ENDBRANCH   4   5
ENDBRANCH   3   4
ENDBRANCH   2   3
ENDBRANCH   1   2
BRANCH   1  18
HETATM   18  C   UNL     1     -24.147  -3.627 -10.239  1.00  0.00     0.258 C 
HETATM   19  O   UNL     1     -25.327  -3.295 -10.124  1.00  0.00    -0.265 OA
BRANCH  18  20
HETATM   20  O   UNL     1     -23.342  -3.374 -11.311  1.00  0.00    -0.319 OA
BRANCH  20  21
HETATM   21  C   UNL     1     -22.992  -4.508 -12.144  1.00  0.00     0.213 C 
BRANCH  21  22
HETATM   22  C   UNL     1     -24.048  -4.835 -13.202  1.00  0.00     0.174 C 
BRANCH  22  23
HETATM   23  C   UNL     1     -24.150  -3.746 -14.273  1.00  0.00     0.183 C 
HETATM   24  C   UNL     1     -22.813  -3.033 -14.496  1.00  0.00     0.180 C 
HETATM   25  C   UNL     1     -23.201  -1.598 -14.842  1.00  0.00     0.173 C 
HETATM   26  C   UNL     1     -24.724  -1.583 -14.754  1.00  0.00     0.202 C 
HETATM   27  O   UNL     1     -25.087  -2.696 -13.929  1.00  0.00    -0.378 OA
BRANCH  24  28
HETATM   28  O   UNL     1     -22.013  -3.644 -15.501  1.00  0.00    -0.390 OA
HETATM   29  H   UNL     1     -22.565  -3.831 -16.285  1.00  0.00     0.210 HD
ENDBRANCH  24  28
BRANCH  25  30
HETATM   30  O   UNL     1     -22.722  -1.153 -16.110  1.00  0.00    -0.391 OA
HETATM   31  H   UNL     1     -22.100  -0.416 -15.968  1.00  0.00     0.210 HD
ENDBRANCH  25  30
ENDBRANCH  22  23
BRANCH  22  32
HETATM   32  O   UNL     1     -23.825  -6.117 -13.804  1.00  0.00    -0.391 OA
HETATM   33  H   UNL     1     -22.991  -6.060 -14.282  1.00  0.00     0.210 HD
ENDBRANCH  22  32
ENDBRANCH  21  22
ENDBRANCH  20  21
ENDBRANCH  18  20
ENDBRANCH   1  18
TORSDOF 23
BEGIN_RES ARG D 557
REMARK  4 active torsions:
REMARK  status: ('A' for Active; 'I' for Inactive)
REMARK    1  A    between atoms: CA   and  CB  
REMARK    2  A    between atoms: CB   and  CG  
REMARK    3  A    between atoms: CG   and  CD  
REMARK    4  A    between atoms: CD   and  NE  
REMARK       I    between atoms: NE   and  CZ  
REMARK       I    between atoms: CZ   and  NH1 
REMARK       I    between atoms: CZ   and  NH2 
ROOT
ATOM      1  CA  ARG D 557     -26.217   2.705 -17.014  1.00 35.49     0.159 C 
ENDROOT
BRANCH   1   2
ATOM      2  CB  ARG D 557     -26.789   1.319 -17.183  1.00 35.49     0.034 C 
BRANCH   2   3
ATOM      3  CG  ARG D 557     -28.230   1.227 -17.450  1.00 35.49     0.027 C 
BRANCH   3   4
ATOM      4  CD  ARG D 557     -28.915   0.290 -16.530  1.00 35.49     0.116 C 
BRANCH   4   5
ATOM      5  NE  ARG D 557     -28.105  -0.859 -16.224  1.00 35.49    -0.212 N 
ATOM      6  CZ  ARG D 557     -28.306  -2.080 -16.667  1.00 35.49     0.666 C 
ATOM      7  NH1 ARG D 557     -29.317  -2.391 -17.456  1.00 35.49    -0.235 N 
ATOM      8  NH2 ARG D 557     -27.457  -2.998 -16.303  1.00 35.49    -0.235 N 
ATOM      9  HH  ARG D 557     -29.887  -1.803 -17.709  1.00 35.49     0.174 HD
ATOM     10  HH  ARG D 557     -29.396  -3.203 -17.716  1.00 35.49     0.174 HD
ATOM     11  HH  ARG D 557     -26.809  -2.766 -15.799  1.00 35.49     0.174 HD
ATOM     12  HH  ARG D 557     -27.551  -3.796 -16.572  1.00 35.49     0.174 HD
ATOM     13  HE  ARG D 557     -27.473  -0.765 -15.663  1.00 35.49     0.178 HD
ENDBRANCH   4   5
ENDBRANCH   3   4
ENDBRANCH   2   3
ENDBRANCH   1   2
END_RES ARG D 557
BEGIN_RES GLU D 570
REMARK  3 active torsions:
REMARK  status: ('A' for Active; 'I' for Inactive)
REMARK    5  A    between atoms: CA   and  CB  
REMARK    6  A    between atoms: CB   and  CG  
REMARK    7  A    between atoms: CG   and  CD  
ROOT
ATOM     14  CA  GLU D 570     -18.033  -6.348 -13.375  1.00 32.92     0.160 C 
ENDROOT
BRANCH  14  15
ATOM     15  CB  GLU D 570     -19.500  -6.345 -13.794  1.00 32.92     0.043 C 
BRANCH  15  16
ATOM     16  CG  GLU D 570     -19.798  -6.184 -15.241  1.00 32.92     0.100 C 
BRANCH  16  17
ATOM     17  CD  GLU D 570     -20.937  -7.060 -15.709  1.00 32.92     0.185 C 
ATOM     18  OE1 GLU D 570     -21.931  -6.529 -16.239  1.00 32.92    -0.647 OA
ATOM     19  OE2 GLU D 570     -20.841  -8.290 -15.528  1.00 32.92    -0.647 OA
ENDBRANCH  16  17
ENDBRANCH  15  16
ENDBRANCH  14  15
END_RES GLU D 570
ENDMDL
MODEL 3
REMARK VINA RESULT:      -7.9      1.122      2.030
REMARK  23 active torsions:
REMARK  status: ('A' for Active; 'I' for Inactive)
REMARK    1  A    between atoms: C_2  and  C_3 
REMARK    2  A    between atoms: C_3  and  C_4 
REMARK    3  A    between atoms: C_4  and  C_5 
REMARK    4  A    between atoms: C_5  and  C_6 
REMARK    5  A    between atoms: C_6  and  C_7 
REMARK    6  A    between atoms: C_7  and  C_8 
REMARK    7  A    between atoms: C_8  and  C_9 
REMARK    8  A    between atoms: C_9  and  C_10 
REMARK    9  A    between atoms: C_10  and  C_11 
REMARK   10  A    between atoms: C_11  and  C_12 
REMARK   11  A    between atoms: C_12  and  C_13 
REMARK   12  A    between atoms: C_13  and  C_14 
REMARK   13  A    between atoms: C_14  and  C_15 
REMARK   14  A    between atoms: C_15  and  C_16 
REMARK   15  A    between atoms: C_16  and  C_17 
REMARK   16  A    between atoms: C_17  and  C_18 
REMARK   17  A    between atoms: C_18  and  O_20 
REMARK   18  A    between atoms: O_20  and  C_21 
REMARK   19  A    between atoms: C_21  and  C_22 
REMARK   20  A    between atoms: C_22  and  C_23 
REMARK   21  A    between atoms: C_22  and  O_30 
REMARK   22  A    between atoms: C_24  and  O_29 
REMARK   23  A    between atoms: C_25  and  O_28 
ROOT
HETATM    1  C   UNL     1     -20.343  -5.347  -8.344  1.00  0.00     0.111 C 
ENDROOT
BRANCH   1   2
HETATM    2  C   UNL     1     -19.408  -4.566  -7.425  1.00  0.00     0.010 C 
BRANCH   2   3
HETATM    3  C   UNL     1     -19.875  -4.572  -5.976  1.00  0.00     0.000 C 
BRANCH   3   4
HETATM    4  C   UNL     1     -21.157  -5.381  -5.823  1.00  0.00     0.000 C 
BRANCH   4   5
HETATM    5  C   UNL     1     -21.020  -6.389  -4.702  1.00  0.00     0.000 C 
BRANCH   5   6
HETATM    6  C   UNL     1     -21.936  -7.573  -4.950  1.00  0.00     0.000 C 
BRANCH   6   7
HETATM    7  C   UNL     1     -21.112  -8.838  -5.108  1.00  0.00     0.000 C 
BRANCH   7   8
HETATM    8  C   UNL     1     -19.635  -8.507  -5.013  1.00  0.00     0.000 C 
BRANCH   8   9
HETATM    9  C   UNL     1     -19.070  -9.033  -3.707  1.00  0.00     0.000 C 
BRANCH   9  10
HETATM   10  C   UNL     1     -20.006 -10.075  -3.123  1.00  0.00     0.000 C 
BRANCH  10  11
HETATM   11  C   UNL     1     -20.288  -9.756  -1.665  1.00  0.00     0.000 C 
BRANCH  11  12
HETATM   12  C   UNL     1     -20.430  -8.256  -1.484  1.00  0.00     0.000 C 
BRANCH  12  13
HETATM   13  C   UNL     1     -21.865  -7.911  -1.126  1.00  0.00     0.000 C 
BRANCH  13  14
HETATM   14  C   UNL     1     -22.203  -8.462   0.248  1.00  0.00     0.000 C 
BRANCH  14  15
HETATM   15  C   UNL     1     -23.498  -9.256   0.188  1.00  0.00    -0.000 C 
BRANCH  15  16
HETATM   16  C   UNL     1     -23.203 -10.741   0.030  1.00  0.00    -0.005 C 
HETATM   17  C   UNL     1     -24.009 -11.318  -1.118  1.00  0.00     0.005 C 
ENDBRANCH  15  16
ENDBRANCH  14  15
ENDBRANCH  13  14
ENDBRANCH  12  13
ENDBRANCH  11  12
ENDBRANCH  10  11
ENDBRANCH   9  10
ENDBRANCH   8   9
ENDBRANCH   7   8
ENDBRANCH   6   7
ENDBRANCH   5   6
ENDBRANCH   4   5
ENDBRANCH   3   4
ENDBRANCH   2   3
ENDBRANCH   1   2
BRANCH   1  18
HETATM   18  C   UNL     1     -20.824  -4.464  -9.463  1.00  0.00     0.258 C 
HETATM   19  O   UNL     1     -20.198  -4.335 -10.515  1.00  0.00    -0.265 OA
BRANCH  18  20
HETATM   20  O   UNL     1     -21.965  -3.801  -9.120  1.00  0.00    -0.319 OA
BRANCH  20  21
HETATM   21  C   UNL     1     -23.211  -4.344  -9.626  1.00  0.00     0.213 C 
BRANCH  21  22
HETATM   22  C   UNL     1     -24.093  -3.302 -10.316  1.00  0.00     0.174 C 
BRANCH  22  23
HETATM   23  C   UNL     1     -24.113  -3.477 -11.837  1.00  0.00     0.183 C 
HETATM   24  C   UNL     1     -22.988  -2.692 -12.519  1.00  0.00     0.180 C 
HETATM   25  C   UNL     1     -23.583  -2.262 -13.857  1.00  0.00     0.173 C 
HETATM   26  C   UNL     1     -25.011  -2.794 -13.829  1.00  0.00     0.202 C 
HETATM   27  O   UNL     1     -25.336  -2.995 -12.448  1.00  0.00    -0.378 OA
BRANCH  24  28
HETATM   28  O   UNL     1     -21.790  -3.444 -12.664  1.00  0.00    -0.390 OA
HETATM   29  H   UNL     1     -21.478  -3.730 -11.784  1.00  0.00     0.210 HD
ENDBRANCH  24  28
BRANCH  25  30
HETATM   30  O   UNL     1     -22.851  -2.717 -14.994  1.00  0.00    -0.391 OA
HETATM   31  H   UNL     1     -22.708  -1.964 -15.596  1.00  0.00     0.210 HD
ENDBRANCH  25  30
ENDBRANCH  22  23
BRANCH  22  32
HETATM   32  O   UNL     1     -25.428  -3.296  -9.790  1.00  0.00    -0.391 OA
HETATM   33  H   UNL     1     -25.388  -3.720  -8.926  1.00  0.00     0.210 HD
ENDBRANCH  22  32
ENDBRANCH  21  22
ENDBRANCH  20  21
ENDBRANCH  18  20
ENDBRANCH   1  18
TORSDOF 23
BEGIN_RES ARG D 557
REMARK  4 active torsions:
REMARK  status: ('A' for Active; 'I' for Inactive)
REMARK    1  A    between atoms: CA   and  CB  
REMARK    2  A    between atoms: CB   and  CG  
REMARK    3  A    between atoms: CG   and  CD  
REMARK    4  A    between atoms: CD   and  NE  
REMARK       I    between atoms: NE   and  CZ  
REMARK       I    between atoms: CZ   and  NH1 
REMARK       I    between atoms: CZ   and  NH2 
ROOT
ATOM      1  CA  ARG D 557     -26.217   2.705 -17.014  1.00 35.49     0.159 C 
ENDROOT
BRANCH   1   2
ATOM      2  CB  ARG D 557     -26.789   1.319 -17.183  1.00 35.49     0.034 C 
BRANCH   2   3
ATOM      3  CG  ARG D 557     -28.217   1.229 -17.511  1.00 35.49     0.027 C 
BRANCH   3   4
ATOM      4  CD  ARG D 557     -28.961   0.370 -16.562  1.00 35.49     0.116 C 
BRANCH   4   5
ATOM      5  NE  ARG D 557     -29.333  -0.890 -17.148  1.00 35.49    -0.212 N 
ATOM      6  CZ  ARG D 557     -28.662  -2.015 -17.041  1.00 35.49     0.666 C 
ATOM      7  NH1 ARG D 557     -27.528  -2.103 -16.371  1.00 35.49    -0.235 N 
ATOM      8  NH2 ARG D 557     -29.159  -3.069 -17.621  1.00 35.49    -0.235 N 
ATOM      9  HH  ARG D 557     -27.183  -1.423 -15.980  1.00 35.49     0.174 HD
ATOM     10  HH  ARG D 557     -27.135  -2.864 -16.334  1.00 35.49     0.174 HD
ATOM     11  HH  ARG D 557     -29.897  -2.984 -18.041  1.00 35.49     0.174 HD
ATOM     12  HH  ARG D 557     -28.757  -3.813 -17.571  1.00 35.49     0.174 HD
ATOM     13  HE  ARG D 557     -30.014  -0.909 -17.658  1.00 35.49     0.178 HD
ENDBRANCH   4   5
ENDBRANCH   3   4
ENDBRANCH   2   3
ENDBRANCH   1   2
END_RES ARG D 557
BEGIN_RES GLU D 570
REMARK  3 active torsions:
REMARK  status: ('A' for Active; 'I' for Inactive)
REMARK    5  A    between atoms: CA   and  CB  
REMARK    6  A    between atoms: CB   and  CG  
REMARK    7  A    between atoms: CG   and  CD  
ROOT
ATOM     14  CA  GLU D 570     -18.033  -6.348 -13.375  1.00 32.92     0.160 C 
ENDROOT
BRANCH  14  15
ATOM     15  CB  GLU D 570     -19.500  -6.345 -13.794  1.00 32.92     0.043 C 
BRANCH  15  16
ATOM     16  CG  GLU D 570     -19.799  -6.157 -15.237  1.00 32.92     0.100 C 
BRANCH  16  17
ATOM     17  CD  GLU D 570     -21.150  -5.525 -15.481  1.00 32.92     0.185 C 
ATOM     18  OE1 GLU D 570     -22.024  -5.604 -14.596  1.00 32.92    -0.647 OA
ATOM     19  OE2 GLU D 570     -21.342  -4.960 -16.576  1.00 32.92    -0.647 OA
ENDBRANCH  16  17
ENDBRANCH  15  16
ENDBRANCH  14  15
END_RES GLU D 570
ENDMDL
MODEL 4
REMARK VINA RESULT:      -7.7      2.569      5.365
REMARK  23 active torsions:
REMARK  status: ('A' for Active; 'I' for Inactive)
REMARK    1  A    between atoms: C_2  and  C_3 
REMARK    2  A    between atoms: C_3  and  C_4 
REMARK    3  A    between atoms: C_4  and  C_5 
REMARK    4  A    between atoms: C_5  and  C_6 
REMARK    5  A    between atoms: C_6  and  C_7 
REMARK    6  A    between atoms: C_7  and  C_8 
REMARK    7  A    between atoms: C_8  and  C_9 
REMARK    8  A    between atoms: C_9  and  C_10 
REMARK    9  A    between atoms: C_10  and  C_11 
REMARK   10  A    between atoms: C_11  and  C_12 
REMARK   11  A    between atoms: C_12  and  C_13 
REMARK   12  A    between atoms: C_13  and  C_14 
REMARK   13  A    between atoms: C_14  and  C_15 
REMARK   14  A    between atoms: C_15  and  C_16 
REMARK   15  A    between atoms: C_16  and  C_17 
REMARK   16  A    between atoms: C_17  and  C_18 
REMARK   17  A    between atoms: C_18  and  O_20 
REMARK   18  A    between atoms: O_20  and  C_21 
REMARK   19  A    between atoms: C_21  and  C_22 
REMARK   20  A    between atoms: C_22  and  C_23 
REMARK   21  A    between atoms: C_22  and  O_30 
REMARK   22  A    between atoms: C_24  and  O_29 
REMARK   23  A    between atoms: C_25  and  O_28 
ROOT
HETATM    1  C   UNL     1     -24.111  -3.085 -13.013  1.00  0.00     0.111 C 
ENDROOT
BRANCH   1   2
HETATM    2  C   UNL     1     -22.840  -2.864 -12.199  1.00  0.00     0.010 C 
BRANCH   2   3
HETATM    3  C   UNL     1     -22.465  -4.078 -11.361  1.00  0.00     0.000 C 
BRANCH   3   4
HETATM    4  C   UNL     1     -20.961  -4.126 -11.119  1.00  0.00     0.000 C 
BRANCH   4   5
HETATM    5  C   UNL     1     -20.662  -4.185  -9.636  1.00  0.00     0.000 C 
BRANCH   5   6
HETATM    6  C   UNL     1     -21.935  -3.967  -8.839  1.00  0.00     0.000 C 
BRANCH   6   7
HETATM    7  C   UNL     1     -21.596  -3.758  -7.374  1.00  0.00     0.000 C 
BRANCH   7   8
HETATM    8  C   UNL     1     -20.501  -4.722  -6.955  1.00  0.00     0.000 C 
BRANCH   8   9
HETATM    9  C   UNL     1     -20.822  -5.307  -5.593  1.00  0.00     0.000 C 
BRANCH   9  10
HETATM   10  C   UNL     1     -21.481  -6.665  -5.755  1.00  0.00     0.000 C 
BRANCH  10  11
HETATM   11  C   UNL     1     -21.799  -7.250  -4.391  1.00  0.00     0.000 C 
BRANCH  11  12
HETATM   12  C   UNL     1     -21.264  -6.338  -3.301  1.00  0.00     0.000 C 
BRANCH  12  13
HETATM   13  C   UNL     1     -21.184  -7.095  -1.986  1.00  0.00     0.000 C 
BRANCH  13  14
HETATM   14  C   UNL     1     -22.354  -6.715  -1.097  1.00  0.00     0.000 C 
BRANCH  14  15
HETATM   15  C   UNL     1     -22.709  -7.874  -0.179  1.00  0.00    -0.000 C 
BRANCH  15  16
HETATM   16  C   UNL     1     -21.556  -8.171   0.770  1.00  0.00    -0.005 C 
HETATM   17  C   UNL     1     -21.194  -9.643   0.711  1.00  0.00     0.005 C 
ENDBRANCH  15  16
ENDBRANCH  14  15
ENDBRANCH  13  14
ENDBRANCH  12  13
ENDBRANCH  11  12
ENDBRANCH  10  11
ENDBRANCH   9  10
ENDBRANCH   8   9
ENDBRANCH   7   8
ENDBRANCH   6   7
ENDBRANCH   5   6
ENDBRANCH   4   5
ENDBRANCH   3   4
ENDBRANCH   2   3
ENDBRANCH   1   2
BRANCH   1  18
HETATM   18  C   UNL     1     -23.765  -3.623 -14.375  1.00  0.00     0.258 C 
HETATM   19  O   UNL     1     -22.792  -3.222 -15.014  1.00  0.00    -0.265 OA
BRANCH  18  20
HETATM   20  O   UNL     1     -24.693  -4.525 -14.806  1.00  0.00    -0.319 OA
BRANCH  20  21
HETATM   21  C   UNL     1     -24.290  -5.918 -14.819  1.00  0.00     0.213 C 
BRANCH  21  22
HETATM   22  C   UNL     1     -25.300  -6.838 -15.508  1.00  0.00     0.174 C 
BRANCH  22  23
HETATM   23  C   UNL     1     -26.218  -6.076 -16.466  1.00  0.00     0.183 C 
HETATM   24  C   UNL     1     -27.696  -6.398 -16.223  1.00  0.00     0.180 C 
HETATM   25  C   UNL     1     -28.334  -6.321 -17.608  1.00  0.00     0.173 C 
HETATM   26  C   UNL     1     -27.175  -6.000 -18.545  1.00  0.00     0.202 C 
HETATM   27  O   UNL     1     -25.983  -6.402 -17.859  1.00  0.00    -0.378 OA
BRANCH  24  28
HETATM   28  O   UNL     1     -28.312  -5.527 -15.284  1.00  0.00    -0.390 OA
HETATM   29  H   UNL     1     -28.158  -5.865 -14.380  1.00  0.00     0.210 HD
ENDBRANCH  24  28
BRANCH  25  30
HETATM   30  O   UNL     1     -29.397  -5.374 -17.708  1.00  0.00    -0.391 OA
HETATM   31  H   UNL     1     -29.208  -4.627 -17.113  1.00  0.00     0.210 HD
ENDBRANCH  25  30
ENDBRANCH  22  23
BRANCH  22  32
HETATM   32  O   UNL     1     -24.659  -7.930 -16.182  1.00  0.00    -0.391 OA
HETATM   33  H   UNL     1     -23.825  -8.087 -15.727  1.00  0.00     0.210 HD
ENDBRANCH  22  32
ENDBRANCH  21  22
ENDBRANCH  20  21
ENDBRANCH  18  20
ENDBRANCH   1  18
TORSDOF 23
BEGIN_RES ARG D 557
REMARK  4 active torsions:
REMARK  status: ('A' for Active; 'I' for Inactive)
REMARK    1  A    between atoms: CA   and  CB  
REMARK    2  A    between atoms: CB   and  CG  
REMARK    3  A    between atoms: CG   and  CD  
REMARK    4  A    between atoms: CD   and  NE  
REMARK       I    between atoms: NE   and  CZ  
REMARK       I    between atoms: CZ   and  NH1 
REMARK       I    between atoms: CZ   and  NH2 
ROOT
ATOM      1  CA  ARG D 557     -26.217   2.705 -17.014  1.00 35.49     0.159 C 
ENDROOT
BRANCH   1   2
ATOM      2  CB  ARG D 557     -26.789   1.319 -17.183  1.00 35.49     0.034 C 
BRANCH   2   3
ATOM      3  CG  ARG D 557     -28.228   1.227 -17.458  1.00 35.49     0.027 C 
BRANCH   3   4
ATOM      4  CD  ARG D 557     -28.902   0.221 -16.607  1.00 35.49     0.116 C 
BRANCH   4   5
ATOM      5  NE  ARG D 557     -27.991  -0.788 -16.134  1.00 35.49    -0.212 N 
ATOM      6  CZ  ARG D 557     -27.984  -2.050 -16.501  1.00 35.49     0.666 C 
ATOM      7  NH1 ARG D 557     -28.854  -2.542 -17.363  1.00 35.49    -0.235 N 
ATOM      8  NH2 ARG D 557     -27.070  -2.820 -15.986  1.00 35.49    -0.235 N 
ATOM      9  HH  ARG D 557     -29.462  -2.053 -17.717  1.00 35.49     0.174 HD
ATOM     10  HH  ARG D 557     -28.799  -3.373 -17.567  1.00 35.49     0.174 HD
ATOM     11  HH  ARG D 557     -26.517  -2.473 -15.437  1.00 35.49     0.174 HD
ATOM     12  HH  ARG D 557     -27.031  -3.639 -16.201  1.00 35.49     0.174 HD
ATOM     13  HE  ARG D 557     -27.442  -0.574 -15.521  1.00 35.49     0.178 HD
ENDBRANCH   4   5
ENDBRANCH   3   4
ENDBRANCH   2   3
ENDBRANCH   1   2
END_RES ARG D 557
BEGIN_RES GLU D 570
REMARK  3 active torsions:
REMARK  status: ('A' for Active; 'I' for Inactive)
REMARK    5  A    between atoms: CA   and  CB  
REMARK    6  A    between atoms: CB   and  CG  
REMARK    7  A    between atoms: CG   and  CD  
ROOT
ATOM     14  CA  GLU D 570     -18.033  -6.348 -13.375  1.00 32.92     0.160 C 
ENDROOT
BRANCH  14  15
ATOM     15  CB  GLU D 570     -19.500  -6.345 -13.794  1.00 32.92     0.043 C 
BRANCH  15  16
ATOM     16  CG  GLU D 570     -20.061  -7.611 -14.332  1.00 32.92     0.100 C 
BRANCH  16  17
ATOM     17  CD  GLU D 570     -20.806  -7.420 -15.633  1.00 32.92     0.185 C 
ATOM     18  OE1 GLU D 570     -20.642  -6.365 -16.275  1.00 32.92    -0.647 OA
ATOM     19  OE2 GLU D 570     -21.576  -8.328 -16.004  1.00 32.92    -0.647 OA
ENDBRANCH  16  17
ENDBRANCH  15  16
ENDBRANCH  14  15
END_RES GLU D 570
ENDMDL
MODEL 5
REMARK VINA RESULT:      -7.4      3.228      6.346
REMARK  23 active torsions:
REMARK  status: ('A' for Active; 'I' for Inactive)
REMARK    1  A    between atoms: C_2  and  C_3 
REMARK    2  A    between atoms: C_3  and  C_4 
REMARK    3  A    between atoms: C_4  and  C_5 
REMARK    4  A    between atoms: C_5  and  C_6 
REMARK    5  A    between atoms: C_6  and  C_7 
REMARK    6  A    between atoms: C_7  and  C_8 
REMARK    7  A    between atoms: C_8  and  C_9 
REMARK    8  A    between atoms: C_9  and  C_10 
REMARK    9  A    between atoms: C_10  and  C_11 
REMARK   10  A    between atoms: C_11  and  C_12 
REMARK   11  A    between atoms: C_12  and  C_13 
REMARK   12  A    between atoms: C_13  and  C_14 
REMARK   13  A    between atoms: C_14  and  C_15 
REMARK   14  A    between atoms: C_15  and  C_16 
REMARK   15  A    between atoms: C_16  and  C_17 
REMARK   16  A    between atoms: C_17  and  C_18 
REMARK   17  A    between atoms: C_18  and  O_20 
REMARK   18  A    between atoms: O_20  and  C_21 
REMARK   19  A    between atoms: C_21  and  C_22 
REMARK   20  A    between atoms: C_22  and  C_23 
REMARK   21  A    between atoms: C_22  and  O_30 
REMARK   22  A    between atoms: C_24  and  O_29 
REMARK   23  A    between atoms: C_25  and  O_28 
ROOT
HETATM    1  C   UNL     1     -23.479  -5.943 -14.189  1.00  0.00     0.111 C 
ENDROOT
BRANCH   1   2
HETATM    2  C   UNL     1     -23.309  -5.146 -12.899  1.00  0.00     0.010 C 
BRANCH   2   3
HETATM    3  C   UNL     1     -21.951  -4.463 -12.809  1.00  0.00     0.000 C 
BRANCH   3   4
HETATM    4  C   UNL     1     -21.883  -3.552 -11.589  1.00  0.00     0.000 C 
BRANCH   4   5
HETATM    5  C   UNL     1     -23.070  -3.790 -10.680  1.00  0.00     0.000 C 
BRANCH   5   6
HETATM    6  C   UNL     1     -22.671  -4.696  -9.529  1.00  0.00     0.000 C 
BRANCH   6   7
HETATM    7  C   UNL     1     -22.279  -3.858  -8.326  1.00  0.00     0.000 C 
BRANCH   7   8
HETATM    8  C   UNL     1     -20.803  -4.040  -8.029  1.00  0.00     0.000 C 
BRANCH   8   9
HETATM    9  C   UNL     1     -20.565  -5.407  -7.415  1.00  0.00     0.000 C 
BRANCH   9  10
HETATM   10  C   UNL     1     -21.499  -5.615  -6.238  1.00  0.00     0.000 C 
BRANCH  10  11
HETATM   11  C   UNL     1     -20.709  -5.592  -4.942  1.00  0.00     0.000 C 
BRANCH  11  12
HETATM   12  C   UNL     1     -21.505  -6.269  -3.841  1.00  0.00     0.000 C 
BRANCH  12  13
HETATM   13  C   UNL     1     -21.650  -7.751  -4.142  1.00  0.00     0.000 C 
BRANCH  13  14
HETATM   14  C   UNL     1     -21.270  -8.569  -2.921  1.00  0.00     0.000 C 
BRANCH  14  15
HETATM   15  C   UNL     1     -20.825  -7.649  -1.795  1.00  0.00    -0.000 C 
BRANCH  15  16
HETATM   16  C   UNL     1     -21.270  -8.203  -0.449  1.00  0.00    -0.005 C 
HETATM   17  C   UNL     1     -22.651  -7.685  -0.099  1.00  0.00     0.005 C 
ENDBRANCH  15  16
ENDBRANCH  14  15
ENDBRANCH  13  14
ENDBRANCH  12  13
ENDBRANCH  11  12
ENDBRANCH  10  11
ENDBRANCH   9  10
ENDBRANCH   8   9
ENDBRANCH   7   8
ENDBRANCH   6   7
ENDBRANCH   5   6
ENDBRANCH   4   5
ENDBRANCH   3   4
ENDBRANCH   2   3
ENDBRANCH   1   2
BRANCH   1  18
HETATM   18  C   UNL     1     -24.745  -5.530 -14.888  1.00  0.00     0.258 C 
HETATM   19  O   UNL     1     -25.056  -4.350 -15.045  1.00  0.00    -0.265 OA
BRANCH  18  20
HETATM   20  O   UNL     1     -25.498  -6.613 -15.236  1.00  0.00    -0.319 OA
BRANCH  20  21
HETATM   21  C   UNL     1     -26.429  -6.433 -16.334  1.00  0.00     0.213 C 
BRANCH  21  22
HETATM   22  C   UNL     1     -27.896  -6.507 -15.907  1.00  0.00     0.174 C 
BRANCH  22  23
HETATM   23  C   UNL     1     -28.613  -5.164 -16.061  1.00  0.00     0.183 C 
HETATM   24  C   UNL     1     -29.870  -5.281 -16.928  1.00  0.00     0.180 C 
HETATM   25  C   UNL     1     -29.955  -3.942 -17.656  1.00  0.00     0.173 C 
HETATM   26  C   UNL     1     -28.725  -3.173 -17.185  1.00  0.00     0.202 C 
HETATM   27  O   UNL     1     -27.798  -4.155 -16.708  1.00  0.00    -0.378 OA
BRANCH  24  28
HETATM   28  O   UNL     1     -31.041  -5.576 -16.179  1.00  0.00    -0.390 OA
HETATM   29  H   UNL     1     -31.730  -4.912 -16.379  1.00  0.00     0.210 HD
ENDBRANCH  24  28
BRANCH  25  30
HETATM   30  O   UNL     1     -31.168  -3.227 -17.424  1.00  0.00    -0.391 OA
HETATM   31  H   UNL     1     -31.905  -3.724 -17.825  1.00  0.00     0.210 HD
ENDBRANCH  25  30
ENDBRANCH  22  23
BRANCH  22  32
HETATM   32  O   UNL     1     -28.605  -7.542 -16.602  1.00  0.00    -0.391 OA
HETATM   33  H   UNL     1     -27.958  -8.218 -16.831  1.00  0.00     0.210 HD
ENDBRANCH  22  32
ENDBRANCH  21  22
ENDBRANCH  20  21
ENDBRANCH  18  20
ENDBRANCH   1  18
TORSDOF 23
BEGIN_RES ARG D 557
REMARK  4 active torsions:
REMARK  status: ('A' for Active; 'I' for Inactive)
REMARK    1  A    between atoms: CA   and  CB  
REMARK    2  A    between atoms: CB   and  CG  
REMARK    3  A    between atoms: CG   and  CD  
REMARK    4  A    between atoms: CD   and  NE  
REMARK       I    between atoms: NE   and  CZ  
REMARK       I    between atoms: CZ   and  NH1 
REMARK       I    between atoms: CZ   and  NH2 
ROOT
ATOM      1  CA  ARG D 557     -26.217   2.705 -17.014  1.00 35.49     0.159 C 
ENDROOT
BRANCH   1   2
ATOM      2  CB  ARG D 557     -26.789   1.319 -17.183  1.00 35.49     0.034 C 
BRANCH   2   3
ATOM      3  CG  ARG D 557     -25.833   0.205 -17.184  1.00 35.49     0.027 C 
BRANCH   3   4
ATOM      4  CD  ARG D 557     -24.716   0.419 -16.235  1.00 35.49     0.116 C 
BRANCH   4   5
ATOM      5  NE  ARG D 557     -24.872  -0.353 -15.031  1.00 35.49    -0.212 N 
ATOM      6  CZ  ARG D 557     -24.101  -1.346 -14.650  1.00 35.49     0.666 C 
ATOM      7  NH1 ARG D 557     -23.073  -1.762 -15.368  1.00 35.49    -0.235 N 
ATOM      8  NH2 ARG D 557     -24.378  -1.921 -13.516  1.00 35.49    -0.235 N 
ATOM      9  HH  ARG D 557     -22.871  -1.397 -16.116  1.00 35.49     0.174 HD
ATOM     10  HH  ARG D 557     -22.604  -2.413 -15.068  1.00 35.49     0.174 HD
ATOM     11  HH  ARG D 557     -25.043  -1.627 -13.070  1.00 35.49     0.174 HD
ATOM     12  HH  ARG D 557     -23.900  -2.563 -13.235  1.00 35.49     0.174 HD
ATOM     13  HE  ARG D 557     -25.553  -0.201 -14.544  1.00 35.49     0.178 HD
ENDBRANCH   4   5
ENDBRANCH   3   4
ENDBRANCH   2   3
ENDBRANCH   1   2
END_RES ARG D 557
BEGIN_RES GLU D 570
REMARK  3 active torsions:
REMARK  status: ('A' for Active; 'I' for Inactive)
REMARK    5  A    between atoms: CA   and  CB  
REMARK    6  A    between atoms: CB   and  CG  
REMARK    7  A    between atoms: CG   and  CD  
ROOT
ATOM     14  CA  GLU D 570     -18.033  -6.348 -13.375  1.00 32.92     0.160 C 
ENDROOT
BRANCH  14  15
ATOM     15  CB  GLU D 570     -19.500  -6.345 -13.794  1.00 32.92     0.043 C 
BRANCH  15  16
ATOM     16  CG  GLU D 570     -20.086  -7.634 -14.244  1.00 32.92     0.100 C 
BRANCH  16  17
ATOM     17  CD  GLU D 570     -20.631  -7.575 -15.652  1.00 32.92     0.185 C 
ATOM     18  OE1 GLU D 570     -20.551  -6.506 -16.287  1.00 32.92    -0.647 OA
ATOM     19  OE2 GLU D 570     -21.159  -8.603 -16.118  1.00 32.92    -0.647 OA
ENDBRANCH  16  17
ENDBRANCH  15  16
ENDBRANCH  14  15
END_RES GLU D 570
ENDMDL
MODEL 6
REMARK VINA RESULT:      -7.2      2.328      4.222
REMARK  23 active torsions:
REMARK  status: ('A' for Active; 'I' for Inactive)
REMARK    1  A    between atoms: C_2  and  C_3 
REMARK    2  A    between atoms: C_3  and  C_4 
REMARK    3  A    between atoms: C_4  and  C_5 
REMARK    4  A    between atoms: C_5  and  C_6 
REMARK    5  A    between atoms: C_6  and  C_7 
REMARK    6  A    between atoms: C_7  and  C_8 
REMARK    7  A    between atoms: C_8  and  C_9 
REMARK    8  A    between atoms: C_9  and  C_10 
REMARK    9  A    between atoms: C_10  and  C_11 
REMARK   10  A    between atoms: C_11  and  C_12 
REMARK   11  A    between atoms: C_12  and  C_13 
REMARK   12  A    between atoms: C_13  and  C_14 
REMARK   13  A    between atoms: C_14  and  C_15 
REMARK   14  A    between atoms: C_15  and  C_16 
REMARK   15  A    between atoms: C_16  and  C_17 
REMARK   16  A    between atoms: C_17  and  C_18 
REMARK   17  A    between atoms: C_18  and  O_20 
REMARK   18  A    between atoms: O_20  and  C_21 
REMARK   19  A    between atoms: C_21  and  C_22 
REMARK   20  A    between atoms: C_22  and  C_23 
REMARK   21  A    between atoms: C_22  and  O_30 
REMARK   22  A    between atoms: C_24  and  O_29 
REMARK   23  A    between atoms: C_25  and  O_28 
ROOT
HETATM    1  C   UNL     1     -21.955  -7.194  -4.169  1.00  0.00     0.111 C 
ENDROOT
BRANCH   1   2
HETATM    2  C   UNL     1     -21.354  -6.143  -3.241  1.00  0.00     0.010 C 
BRANCH   2   3
HETATM    3  C   UNL     1     -22.055  -6.087  -1.891  1.00  0.00     0.000 C 
BRANCH   3   4
HETATM    4  C   UNL     1     -21.991  -7.439  -1.191  1.00  0.00     0.000 C 
BRANCH   4   5
HETATM    5  C   UNL     1     -22.862  -7.439   0.048  1.00  0.00     0.000 C 
BRANCH   5   6
HETATM    6  C   UNL     1     -23.212  -8.863   0.439  1.00  0.00     0.000 C 
BRANCH   6   7
HETATM    7  C   UNL     1     -22.047  -9.784   0.126  1.00  0.00     0.000 C 
BRANCH   7   8
HETATM    8  C   UNL     1     -22.559 -11.181  -0.173  1.00  0.00     0.000 C 
BRANCH   8   9
HETATM    9  C   UNL     1     -23.572 -11.128  -1.301  1.00  0.00     0.000 C 
BRANCH   9  10
HETATM   10  C   UNL     1     -22.964 -11.699  -2.569  1.00  0.00     0.000 C 
BRANCH  10  11
HETATM   11  C   UNL     1     -22.344 -10.584  -3.391  1.00  0.00     0.000 C 
BRANCH  11  12
HETATM   12  C   UNL     1     -21.425 -11.171  -4.448  1.00  0.00     0.000 C 
BRANCH  12  13
HETATM   13  C   UNL     1     -20.018 -10.628  -4.271  1.00  0.00     0.000 C 
BRANCH  13  14
HETATM   14  C   UNL     1     -19.886  -9.960  -2.914  1.00  0.00     0.000 C 
BRANCH  14  15
HETATM   15  C   UNL     1     -18.559  -9.224  -2.821  1.00  0.00    -0.000 C 
BRANCH  15  16
HETATM   16  C   UNL     1     -17.413 -10.144  -3.220  1.00  0.00    -0.005 C 
HETATM   17  C   UNL     1     -16.082  -9.484  -2.920  1.00  0.00     0.005 C 
ENDBRANCH  15  16
ENDBRANCH  14  15
ENDBRANCH  13  14
ENDBRANCH  12  13
ENDBRANCH  11  12
ENDBRANCH  10  11
ENDBRANCH   9  10
ENDBRANCH   8   9
ENDBRANCH   7   8
ENDBRANCH   6   7
ENDBRANCH   5   6
ENDBRANCH   4   5
ENDBRANCH   3   4
ENDBRANCH   2   3
ENDBRANCH   1   2
BRANCH   1  18
HETATM   18  C   UNL     1     -21.450  -6.994  -5.572  1.00  0.00     0.258 C 
HETATM   19  O   UNL     1     -21.131  -7.936  -6.297  1.00  0.00    -0.265 OA
BRANCH  18  20
HETATM   20  O   UNL     1     -21.331  -5.669  -5.875  1.00  0.00    -0.319 OA
BRANCH  20  21
HETATM   21  C   UNL     1     -21.561  -5.295  -7.257  1.00  0.00     0.213 C 
BRANCH  21  22
HETATM   22  C   UNL     1     -22.552  -4.141  -7.419  1.00  0.00     0.174 C 
BRANCH  22  23
HETATM   23  C   UNL     1     -22.716  -3.718  -8.881  1.00  0.00     0.183 C 
HETATM   24  C   UNL     1     -24.144  -3.943  -9.386  1.00  0.00     0.180 C 
HETATM   25  C   UNL     1     -23.973  -4.305 -10.859  1.00  0.00     0.173 C 
HETATM   26  C   UNL     1     -22.465  -4.300 -11.080  1.00  0.00     0.202 C 
HETATM   27  O   UNL     1     -21.871  -4.469  -9.788  1.00  0.00    -0.378 OA
BRANCH  24  28
HETATM   28  O   UNL     1     -24.991  -2.817  -9.190  1.00  0.00    -0.390 OA
HETATM   29  H   UNL     1     -24.496  -2.118  -8.720  1.00  0.00     0.210 HD
ENDBRANCH  24  28
BRANCH  25  30
HETATM   30  O   UNL     1     -24.661  -3.435 -11.758  1.00  0.00    -0.391 OA
HETATM   31  H   UNL     1     -24.074  -3.236 -12.510  1.00  0.00     0.210 HD
ENDBRANCH  25  30
ENDBRANCH  22  23
BRANCH  22  32
HETATM   32  O   UNL     1     -23.827  -4.443  -6.834  1.00  0.00    -0.391 OA
HETATM   33  H   UNL     1     -24.490  -3.977  -7.356  1.00  0.00     0.210 HD
ENDBRANCH  22  32
ENDBRANCH  21  22
ENDBRANCH  20  21
ENDBRANCH  18  20
ENDBRANCH   1  18
TORSDOF 23
BEGIN_RES ARG D 557
REMARK  4 active torsions:
REMARK  status: ('A' for Active; 'I' for Inactive)
REMARK    1  A    between atoms: CA   and  CB  
REMARK    2  A    between atoms: CB   and  CG  
REMARK    3  A    between atoms: CG   and  CD  
REMARK    4  A    between atoms: CD   and  NE  
REMARK       I    between atoms: NE   and  CZ  
REMARK       I    between atoms: CZ   and  NH1 
REMARK       I    between atoms: CZ   and  NH2 
ROOT
ATOM      1  CA  ARG D 557     -26.217   2.705 -17.014  1.00 35.49     0.159 C 
ENDROOT
BRANCH   1   2
ATOM      2  CB  ARG D 557     -26.789   1.319 -17.183  1.00 35.49     0.034 C 
BRANCH   2   3
ATOM      3  CG  ARG D 557     -28.228   1.164 -16.938  1.00 35.49     0.027 C 
BRANCH   3   4
ATOM      4  CD  ARG D 557     -28.602  -0.237 -16.638  1.00 35.49     0.116 C 
BRANCH   4   5
ATOM      5  NE  ARG D 557     -27.568  -0.932 -15.917  1.00 35.49    -0.212 N 
ATOM      6  CZ  ARG D 557     -27.319  -2.221 -15.982  1.00 35.49     0.666 C 
ATOM      7  NH1 ARG D 557     -28.028  -3.043 -16.733  1.00 35.49    -0.235 N 
ATOM      8  NH2 ARG D 557     -26.326  -2.677 -15.274  1.00 35.49    -0.235 N 
ATOM      9  HH  ARG D 557     -28.684  -2.764 -17.208  1.00 35.49     0.174 HD
ATOM     10  HH  ARG D 557     -27.818  -3.873 -16.737  1.00 35.49     0.174 HD
ATOM     11  HH  ARG D 557     -25.881  -2.121 -14.805  1.00 35.49     0.174 HD
ATOM     12  HH  ARG D 557     -26.133  -3.502 -15.293  1.00 35.49     0.174 HD
ATOM     13  HE  ARG D 557     -27.109  -0.490 -15.354  1.00 35.49     0.178 HD
ENDBRANCH   4   5
ENDBRANCH   3   4
ENDBRANCH   2   3
ENDBRANCH   1   2
END_RES ARG D 557
BEGIN_RES GLU D 570
REMARK  3 active torsions:
REMARK  status: ('A' for Active; 'I' for Inactive)
REMARK    5  A    between atoms: CA   and  CB  
REMARK    6  A    between atoms: CB   and  CG  
REMARK    7  A    between atoms: CG   and  CD  
ROOT
ATOM     14  CA  GLU D 570     -18.033  -6.348 -13.375  1.00 32.92     0.160 C 
ENDROOT
BRANCH  14  15
ATOM     15  CB  GLU D 570     -19.500  -6.345 -13.794  1.00 32.92     0.043 C 
BRANCH  15  16
ATOM     16  CG  GLU D 570     -19.798  -6.480 -15.243  1.00 32.92     0.100 C 
BRANCH  16  17
ATOM     17  CD  GLU D 570     -20.927  -7.444 -15.525  1.00 32.92     0.185 C 
ATOM     18  OE1 GLU D 570     -20.657  -8.631 -15.794  1.00 32.92    -0.647 OA
ATOM     19  OE2 GLU D 570     -22.093  -7.004 -15.494  1.00 32.92    -0.647 OA
ENDBRANCH  16  17
ENDBRANCH  15  16
ENDBRANCH  14  15
END_RES GLU D 570
ENDMDL
MODEL 7
REMARK VINA RESULT:      -7.1      2.051      3.760
REMARK  23 active torsions:
REMARK  status: ('A' for Active; 'I' for Inactive)
REMARK    1  A    between atoms: C_2  and  C_3 
REMARK    2  A    between atoms: C_3  and  C_4 
REMARK    3  A    between atoms: C_4  and  C_5 
REMARK    4  A    between atoms: C_5  and  C_6 
REMARK    5  A    between atoms: C_6  and  C_7 
REMARK    6  A    between atoms: C_7  and  C_8 
REMARK    7  A    between atoms: C_8  and  C_9 
REMARK    8  A    between atoms: C_9  and  C_10 
REMARK    9  A    between atoms: C_10  and  C_11 
REMARK   10  A    between atoms: C_11  and  C_12 
REMARK   11  A    between atoms: C_12  and  C_13 
REMARK   12  A    between atoms: C_13  and  C_14 
REMARK   13  A    between atoms: C_14  and  C_15 
REMARK   14  A    between atoms: C_15  and  C_16 
REMARK   15  A    between atoms: C_16  and  C_17 
REMARK   16  A    between atoms: C_17  and  C_18 
REMARK   17  A    between atoms: C_18  and  O_20 
REMARK   18  A    between atoms: O_20  and  C_21 
REMARK   19  A    between atoms: C_21  and  C_22 
REMARK   20  A    between atoms: C_22  and  C_23 
REMARK   21  A    between atoms: C_22  and  O_30 
REMARK   22  A    between atoms: C_24  and  O_29 
REMARK   23  A    between atoms: C_25  and  O_28 
ROOT
HETATM    1  C   UNL     1     -21.212  -6.799  -6.032  1.00  0.00     0.111 C 
ENDROOT
BRANCH   1   2
HETATM    2  C   UNL     1     -20.487  -7.340  -4.803  1.00  0.00     0.010 C 
BRANCH   2   3
HETATM    3  C   UNL     1     -21.427  -7.584  -3.631  1.00  0.00     0.000 C 
BRANCH   3   4
HETATM    4  C   UNL     1     -21.550  -6.336  -2.766  1.00  0.00     0.000 C 
BRANCH   4   5
HETATM    5  C   UNL     1     -22.258  -6.657  -1.466  1.00  0.00     0.000 C 
BRANCH   5   6
HETATM    6  C   UNL     1     -21.495  -7.728  -0.709  1.00  0.00     0.000 C 
BRANCH   6   7
HETATM    7  C   UNL     1     -22.249  -8.102   0.555  1.00  0.00     0.000 C 
BRANCH   7   8
HETATM    8  C   UNL     1     -23.370  -9.068   0.220  1.00  0.00     0.000 C 
BRANCH   8   9
HETATM    9  C   UNL     1     -22.791 -10.413  -0.175  1.00  0.00     0.000 C 
BRANCH   9  10
HETATM   10  C   UNL     1     -23.417 -10.884  -1.475  1.00  0.00     0.000 C 
BRANCH  10  11
HETATM   11  C   UNL     1     -22.344 -11.038  -2.538  1.00  0.00     0.000 C 
BRANCH  11  12
HETATM   12  C   UNL     1     -20.976 -11.110  -1.884  1.00  0.00     0.000 C 
BRANCH  12  13
HETATM   13  C   UNL     1     -19.897 -10.778  -2.900  1.00  0.00     0.000 C 
BRANCH  13  14
HETATM   14  C   UNL     1     -18.632 -10.333  -2.188  1.00  0.00     0.000 C 
BRANCH  14  15
HETATM   15  C   UNL     1     -17.861  -9.354  -3.058  1.00  0.00    -0.000 C 
BRANCH  15  16
HETATM   16  C   UNL     1     -16.362  -9.578  -2.907  1.00  0.00    -0.005 C 
HETATM   17  C   UNL     1     -16.097 -10.836  -2.105  1.00  0.00     0.005 C 
ENDBRANCH  15  16
ENDBRANCH  14  15
ENDBRANCH  13  14
ENDBRANCH  12  13
ENDBRANCH  11  12
ENDBRANCH  10  11
ENDBRANCH   9  10
ENDBRANCH   8   9
ENDBRANCH   7   8
ENDBRANCH   6   7
ENDBRANCH   5   6
ENDBRANCH   4   5
ENDBRANCH   3   4
ENDBRANCH   2   3
ENDBRANCH   1   2
BRANCH   1  18
HETATM   18  C   UNL     1     -20.563  -5.523  -6.495  1.00  0.00     0.258 C 
HETATM   19  O   UNL     1     -20.431  -4.546  -5.758  1.00  0.00    -0.265 OA
BRANCH  18  20
HETATM   20  O   UNL     1     -20.229  -5.584  -7.816  1.00  0.00    -0.319 OA
BRANCH  20  21
HETATM   21  C   UNL     1     -20.330  -4.350  -8.571  1.00  0.00     0.213 C 
BRANCH  21  22
HETATM   22  C   UNL     1     -20.999  -4.523  -9.935  1.00  0.00     0.174 C 
BRANCH  22  23
HETATM   23  C   UNL     1     -22.255  -3.660 -10.078  1.00  0.00     0.183 C 
HETATM   24  C   UNL     1     -23.483  -4.325  -9.449  1.00  0.00     0.180 C 
HETATM   25  C   UNL     1     -24.648  -3.882 -10.329  1.00  0.00     0.173 C 
HETATM   26  C   UNL     1     -24.002  -3.032 -11.418  1.00  0.00     0.202 C 
HETATM   27  O   UNL     1     -22.623  -3.416 -11.459  1.00  0.00    -0.378 OA
BRANCH  24  28
HETATM   28  O   UNL     1     -23.665  -3.983  -8.081  1.00  0.00    -0.390 OA
HETATM   29  H   UNL     1     -23.394  -3.054  -7.940  1.00  0.00     0.210 HD
ENDBRANCH  24  28
BRANCH  25  30
HETATM   30  O   UNL     1     -25.677  -3.185  -9.628  1.00  0.00    -0.391 OA
HETATM   31  H   UNL     1     -25.280  -2.723  -8.868  1.00  0.00     0.210 HD
ENDBRANCH  25  30
ENDBRANCH  22  23
BRANCH  22  32
HETATM   32  O   UNL     1     -20.089  -4.275 -11.016  1.00  0.00    -0.391 OA
HETATM   33  H   UNL     1     -19.460  -5.005 -11.023  1.00  0.00     0.210 HD
ENDBRANCH  22  32
ENDBRANCH  21  22
ENDBRANCH  20  21
ENDBRANCH  18  20
ENDBRANCH   1  18
TORSDOF 23
BEGIN_RES ARG D 557
REMARK  4 active torsions:
REMARK  status: ('A' for Active; 'I' for Inactive)
REMARK    1  A    between atoms: CA   and  CB  
REMARK    2  A    between atoms: CB   and  CG  
REMARK    3  A    between atoms: CG   and  CD  
REMARK    4  A    between atoms: CD   and  NE  
REMARK       I    between atoms: NE   and  CZ  
REMARK       I    between atoms: CZ   and  NH1 
REMARK       I    between atoms: CZ   and  NH2 
ROOT
ATOM      1  CA  ARG D 557     -26.217   2.705 -17.014  1.00 35.49     0.159 C 
ENDROOT
BRANCH   1   2
ATOM      2  CB  ARG D 557     -26.789   1.319 -17.183  1.00 35.49     0.034 C 
BRANCH   2   3
ATOM      3  CG  ARG D 557     -28.238   1.224 -17.397  1.00 35.49     0.027 C 
BRANCH   3   4
ATOM      4  CD  ARG D 557     -28.886   0.277 -16.461  1.00 35.49     0.116 C 
BRANCH   4   5
ATOM      5  NE  ARG D 557     -29.264  -0.952 -17.108  1.00 35.49    -0.212 N 
ATOM      6  CZ  ARG D 557     -28.630  -2.099 -17.009  1.00 35.49     0.666 C 
ATOM      7  NH1 ARG D 557     -27.532  -2.243 -16.290  1.00 35.49    -0.235 N 
ATOM      8  NH2 ARG D 557     -29.128  -3.117 -17.649  1.00 35.49    -0.235 N 
ATOM      9  HH  ARG D 557     -27.189  -1.587 -15.859  1.00 35.49     0.174 HD
ATOM     10  HH  ARG D 557     -27.164  -3.016 -16.261  1.00 35.49     0.174 HD
ATOM     11  HH  ARG D 557     -29.842  -2.996 -18.100  1.00 35.49     0.174 HD
ATOM     12  HH  ARG D 557     -28.749  -3.874 -17.606  1.00 35.49     0.174 HD
ATOM     13  HE  ARG D 557     -29.919  -0.933 -17.650  1.00 35.49     0.178 HD
ENDBRANCH   4   5
ENDBRANCH   3   4
ENDBRANCH   2   3
ENDBRANCH   1   2
END_RES ARG D 557
BEGIN_RES GLU D 570
REMARK  3 active torsions:
REMARK  status: ('A' for Active; 'I' for Inactive)
REMARK    5  A    between atoms: CA   and  CB  
REMARK    6  A    between atoms: CB   and  CG  
REMARK    7  A    between atoms: CG   and  CD  
ROOT
ATOM     14  CA  GLU D 570     -18.033  -6.348 -13.375  1.00 32.92     0.160 C 
ENDROOT
BRANCH  14  15
ATOM     15  CB  GLU D 570     -19.500  -6.345 -13.794  1.00 32.92     0.043 C 
BRANCH  15  16
ATOM     16  CG  GLU D 570     -19.796  -6.296 -15.249  1.00 32.92     0.100 C 
BRANCH  16  17
ATOM     17  CD  GLU D 570     -20.802  -7.337 -15.681  1.00 32.92     0.185 C 
ATOM     18  OE1 GLU D 570     -21.836  -6.972 -16.271  1.00 32.92    -0.647 OA
ATOM     19  OE2 GLU D 570     -20.560  -8.531 -15.413  1.00 32.92    -0.647 OA
ENDBRANCH  16  17
ENDBRANCH  15  16
ENDBRANCH  14  15
END_RES GLU D 570
ENDMDL
MODEL 8
REMARK VINA RESULT:      -7.1      3.389      4.144
REMARK  23 active torsions:
REMARK  status: ('A' for Active; 'I' for Inactive)
REMARK    1  A    between atoms: C_2  and  C_3 
REMARK    2  A    between atoms: C_3  and  C_4 
REMARK    3  A    between atoms: C_4  and  C_5 
REMARK    4  A    between atoms: C_5  and  C_6 
REMARK    5  A    between atoms: C_6  and  C_7 
REMARK    6  A    between atoms: C_7  and  C_8 
REMARK    7  A    between atoms: C_8  and  C_9 
REMARK    8  A    between atoms: C_9  and  C_10 
REMARK    9  A    between atoms: C_10  and  C_11 
REMARK   10  A    between atoms: C_11  and  C_12 
REMARK   11  A    between atoms: C_12  and  C_13 
REMARK   12  A    between atoms: C_13  and  C_14 
REMARK   13  A    between atoms: C_14  and  C_15 
REMARK   14  A    between atoms: C_15  and  C_16 
REMARK   15  A    between atoms: C_16  and  C_17 
REMARK   16  A    between atoms: C_17  and  C_18 
REMARK   17  A    between atoms: C_18  and  O_20 
REMARK   18  A    between atoms: O_20  and  C_21 
REMARK   19  A    between atoms: C_21  and  C_22 
REMARK   20  A    between atoms: C_22  and  C_23 
REMARK   21  A    between atoms: C_22  and  O_30 
REMARK   22  A    between atoms: C_24  and  O_29 
REMARK   23  A    between atoms: C_25  and  O_28 
ROOT
HETATM    1  C   UNL     1     -21.087  -3.665  -7.170  1.00  0.00     0.111 C 
ENDROOT
BRANCH   1   2
HETATM    2  C   UNL     1     -19.998  -4.704  -7.421  1.00  0.00     0.010 C 
BRANCH   2   3
HETATM    3  C   UNL     1     -20.240  -5.999  -6.659  1.00  0.00     0.000 C 
BRANCH   3   4
HETATM    4  C   UNL     1     -20.611  -5.713  -5.209  1.00  0.00     0.000 C 
BRANCH   4   5
HETATM    5  C   UNL     1     -21.902  -6.413  -4.841  1.00  0.00     0.000 C 
BRANCH   5   6
HETATM    6  C   UNL     1     -21.626  -7.529  -3.850  1.00  0.00     0.000 C 
BRANCH   6   7
HETATM    7  C   UNL     1     -21.455  -8.844  -4.589  1.00  0.00     0.000 C 
BRANCH   7   8
HETATM    8  C   UNL     1     -20.473  -9.729  -3.845  1.00  0.00     0.000 C 
BRANCH   8   9
HETATM    9  C   UNL     1     -19.668  -8.898  -2.865  1.00  0.00     0.000 C 
BRANCH   9  10
HETATM   10  C   UNL     1     -18.283  -9.493  -2.697  1.00  0.00     0.000 C 
BRANCH  10  11
HETATM   11  C   UNL     1     -17.625  -9.659  -4.055  1.00  0.00     0.000 C 
BRANCH  11  12
HETATM   12  C   UNL     1     -16.114  -9.652  -3.900  1.00  0.00     0.000 C 
BRANCH  12  13
HETATM   13  C   UNL     1     -15.459 -10.119  -5.189  1.00  0.00     0.000 C 
BRANCH  13  14
HETATM   14  C   UNL     1     -15.902 -11.535  -5.513  1.00  0.00     0.000 C 
BRANCH  14  15
HETATM   15  C   UNL     1     -15.011 -12.537  -4.797  1.00  0.00    -0.000 C 
BRANCH  15  16
HETATM   16  C   UNL     1     -13.551 -12.300  -5.156  1.00  0.00    -0.005 C 
HETATM   17  C   UNL     1     -13.256 -12.836  -6.543  1.00  0.00     0.005 C 
ENDBRANCH  15  16
ENDBRANCH  14  15
ENDBRANCH  13  14
ENDBRANCH  12  13
ENDBRANCH  11  12
ENDBRANCH  10  11
ENDBRANCH   9  10
ENDBRANCH   8   9
ENDBRANCH   7   8
ENDBRANCH   6   7
ENDBRANCH   5   6
ENDBRANCH   4   5
ENDBRANCH   3   4
ENDBRANCH   2   3
ENDBRANCH   1   2
BRANCH   1  18
HETATM   18  C   UNL     1     -22.345  -4.048  -7.901  1.00  0.00     0.258 C 
HETATM   19  O   UNL     1     -23.366  -4.404  -7.313  1.00  0.00    -0.265 OA
BRANCH  18  20
HETATM   20  O   UNL     1     -22.165  -4.016  -9.254  1.00  0.00    -0.319 OA
BRANCH  20  21
HETATM   21  C   UNL     1     -23.273  -4.479 -10.068  1.00  0.00     0.213 C 
BRANCH  21  22
HETATM   22  C   UNL     1     -24.114  -3.344 -10.653  1.00  0.00     0.174 C 
BRANCH  22  23
HETATM   23  C   UNL     1     -24.185  -3.403 -12.181  1.00  0.00     0.183 C 
HETATM   24  C   UNL     1     -23.058  -2.600 -12.839  1.00  0.00     0.180 C 
HETATM   25  C   UNL     1     -23.679  -2.054 -14.121  1.00  0.00     0.173 C 
HETATM   26  C   UNL     1     -25.121  -2.549 -14.088  1.00  0.00     0.202 C 
HETATM   27  O   UNL     1     -25.410  -2.844 -12.716  1.00  0.00    -0.378 OA
BRANCH  24  28
HETATM   28  O   UNL     1     -21.887  -3.371 -13.078  1.00  0.00    -0.390 OA
HETATM   29  H   UNL     1     -21.173  -3.068 -12.483  1.00  0.00     0.210 HD
ENDBRANCH  24  28
BRANCH  25  30
HETATM   30  O   UNL     1     -22.995  -2.443 -15.312  1.00  0.00    -0.391 OA
HETATM   31  H   UNL     1     -23.626  -2.426 -16.055  1.00  0.00     0.210 HD
ENDBRANCH  25  30
ENDBRANCH  22  23
BRANCH  22  32
HETATM   32  O   UNL     1     -25.432  -3.305 -10.087  1.00  0.00    -0.391 OA
HETATM   33  H   UNL     1     -25.335  -3.003  -9.177  1.00  0.00     0.210 HD
ENDBRANCH  22  32
ENDBRANCH  21  22
ENDBRANCH  20  21
ENDBRANCH  18  20
ENDBRANCH   1  18
TORSDOF 23
BEGIN_RES ARG D 557
REMARK  4 active torsions:
REMARK  status: ('A' for Active; 'I' for Inactive)
REMARK    1  A    between atoms: CA   and  CB  
REMARK    2  A    between atoms: CB   and  CG  
REMARK    3  A    between atoms: CG   and  CD  
REMARK    4  A    between atoms: CD   and  NE  
REMARK       I    between atoms: NE   and  CZ  
REMARK       I    between atoms: CZ   and  NH1 
REMARK       I    between atoms: CZ   and  NH2 
ROOT
ATOM      1  CA  ARG D 557     -26.217   2.705 -17.014  1.00 35.49     0.159 C 
ENDROOT
BRANCH   1   2
ATOM      2  CB  ARG D 557     -26.789   1.319 -17.183  1.00 35.49     0.034 C 
BRANCH   2   3
ATOM      3  CG  ARG D 557     -28.228   1.227 -17.461  1.00 35.49     0.027 C 
BRANCH   3   4
ATOM      4  CD  ARG D 557     -28.927   0.320 -16.523  1.00 35.49     0.116 C 
BRANCH   4   5
ATOM      5  NE  ARG D 557     -29.323  -0.912 -17.153  1.00 35.49    -0.212 N 
ATOM      6  CZ  ARG D 557     -28.699  -2.063 -17.049  1.00 35.49     0.666 C 
ATOM      7  NH1 ARG D 557     -27.595  -2.210 -16.340  1.00 35.49    -0.235 N 
ATOM      8  NH2 ARG D 557     -29.213  -3.083 -17.673  1.00 35.49    -0.235 N 
ATOM      9  HH  ARG D 557     -27.240  -1.553 -15.920  1.00 35.49     0.174 HD
ATOM     10  HH  ARG D 557     -27.233  -2.986 -16.307  1.00 35.49     0.174 HD
ATOM     11  HH  ARG D 557     -29.930  -2.961 -18.117  1.00 35.49     0.174 HD
ATOM     12  HH  ARG D 557     -28.840  -3.844 -17.626  1.00 35.49     0.174 HD
ATOM     13  HE  ARG D 557     -29.984  -0.892 -17.688  1.00 35.49     0.178 HD
ENDBRANCH   4   5
ENDBRANCH   3   4
ENDBRANCH   2   3
ENDBRANCH   1   2
END_RES ARG D 557
BEGIN_RES GLU D 570
REMARK  3 active torsions:
REMARK  status: ('A' for Active; 'I' for Inactive)
REMARK    5  A    between atoms: CA   and  CB  
REMARK    6  A    between atoms: CB   and  CG  
REMARK    7  A    between atoms: CG   and  CD  
ROOT
ATOM     14  CA  GLU D 570     -18.033  -6.348 -13.375  1.00 32.92     0.160 C 
ENDROOT
BRANCH  14  15
ATOM     15  CB  GLU D 570     -19.500  -6.345 -13.794  1.00 32.92     0.043 C 
BRANCH  15  16
ATOM     16  CG  GLU D 570     -19.798  -6.215 -15.244  1.00 32.92     0.100 C 
BRANCH  16  17
ATOM     17  CD  GLU D 570     -21.251  -5.910 -15.522  1.00 32.92     0.185 C 
ATOM     18  OE1 GLU D 570     -21.586  -4.737 -15.774  1.00 32.92    -0.647 OA
ATOM     19  OE2 GLU D 570     -22.066  -6.852 -15.471  1.00 32.92    -0.647 OA
ENDBRANCH  16  17
ENDBRANCH  15  16
ENDBRANCH  14  15
END_RES GLU D 570
ENDMDL
MODEL 9
REMARK VINA RESULT:      -7.0      8.237     13.060
REMARK  23 active torsions:
REMARK  status: ('A' for Active; 'I' for Inactive)
REMARK    1  A    between atoms: C_2  and  C_3 
REMARK    2  A    between atoms: C_3  and  C_4 
REMARK    3  A    between atoms: C_4  and  C_5 
REMARK    4  A    between atoms: C_5  and  C_6 
REMARK    5  A    between atoms: C_6  and  C_7 
REMARK    6  A    between atoms: C_7  and  C_8 
REMARK    7  A    between atoms: C_8  and  C_9 
REMARK    8  A    between atoms: C_9  and  C_10 
REMARK    9  A    between atoms: C_10  and  C_11 
REMARK   10  A    between atoms: C_11  and  C_12 
REMARK   11  A    between atoms: C_12  and  C_13 
REMARK   12  A    between atoms: C_13  and  C_14 
REMARK   13  A    between atoms: C_14  and  C_15 
REMARK   14  A    between atoms: C_15  and  C_16 
REMARK   15  A    between atoms: C_16  and  C_17 
REMARK   16  A    between atoms: C_17  and  C_18 
REMARK   17  A    between atoms: C_18  and  O_20 
REMARK   18  A    between atoms: O_20  and  C_21 
REMARK   19  A    between atoms: C_21  and  C_22 
REMARK   20  A    between atoms: C_22  and  C_23 
REMARK   21  A    between atoms: C_22  and  O_30 
REMARK   22  A    between atoms: C_24  and  O_29 
REMARK   23  A    between atoms: C_25  and  O_28 
ROOT
HETATM    1  C   UNL     1     -32.960  -3.991 -17.276  1.00  0.00     0.111 C 
ENDROOT
BRANCH   1   2
HETATM    2  C   UNL     1     -33.605  -4.058 -15.895  1.00  0.00     0.010 C 
BRANCH   2   3
HETATM    3  C   UNL     1     -34.808  -3.134 -15.768  1.00  0.00     0.000 C 
BRANCH   3   4
HETATM    4  C   UNL     1     -34.878  -2.170 -16.946  1.00  0.00     0.000 C 
BRANCH   4   5
HETATM    5  C   UNL     1     -35.888  -1.074 -16.679  1.00  0.00     0.000 C 
BRANCH   5   6
HETATM    6  C   UNL     1     -35.501  -0.302 -15.431  1.00  0.00     0.000 C 
BRANCH   6   7
HETATM    7  C   UNL     1     -36.745   0.046 -14.634  1.00  0.00     0.000 C 
BRANCH   7   8
HETATM    8  C   UNL     1     -36.534  -0.298 -13.171  1.00  0.00     0.000 C 
BRANCH   8   9
HETATM    9  C   UNL     1     -35.078  -0.088 -12.798  1.00  0.00     0.000 C 
BRANCH   9  10
HETATM   10  C   UNL     1     -34.703  -1.003 -11.646  1.00  0.00     0.000 C 
BRANCH  10  11
HETATM   11  C   UNL     1     -34.401  -2.395 -12.170  1.00  0.00     0.000 C 
BRANCH  11  12
HETATM   12  C   UNL     1     -33.674  -3.199 -11.108  1.00  0.00     0.000 C 
BRANCH  12  13
HETATM   13  C   UNL     1     -32.863  -4.306 -11.760  1.00  0.00     0.000 C 
BRANCH  13  14
HETATM   14  C   UNL     1     -33.372  -5.661 -11.302  1.00  0.00     0.000 C 
BRANCH  14  15
HETATM   15  C   UNL     1     -34.667  -5.496 -10.523  1.00  0.00    -0.000 C 
BRANCH  15  16
HETATM   16  C   UNL     1     -34.884  -6.682  -9.595  1.00  0.00    -0.005 C 
HETATM   17  C   UNL     1     -34.380  -7.957 -10.244  1.00  0.00     0.005 C 
ENDBRANCH  15  16
ENDBRANCH  14  15
ENDBRANCH  13  14
ENDBRANCH  12  13
ENDBRANCH  11  12
ENDBRANCH  10  11
ENDBRANCH   9  10
ENDBRANCH   8   9
ENDBRANCH   7   8
ENDBRANCH   6   7
ENDBRANCH   5   6
ENDBRANCH   4   5
ENDBRANCH   3   4
ENDBRANCH   2   3
ENDBRANCH   1   2
BRANCH   1  18
HETATM   18  C   UNL     1     -31.461  -4.020 -17.147  1.00  0.00     0.258 C 
HETATM   19  O   UNL     1     -30.741  -3.154 -17.643  1.00  0.00    -0.265 OA
BRANCH  18  20
HETATM   20  O   UNL     1     -31.038  -5.142 -16.495  1.00  0.00    -0.319 OA
BRANCH  20  21
HETATM   21  C   UNL     1     -30.998  -6.368 -17.269  1.00  0.00     0.213 C 
BRANCH  21  22
HETATM   22  C   UNL     1     -29.579  -6.843 -17.586  1.00  0.00     0.174 C 
BRANCH  22  23
HETATM   23  C   UNL     1     -28.575  -6.426 -16.508  1.00  0.00     0.183 C 
HETATM   24  C   UNL     1     -27.616  -5.340 -17.007  1.00  0.00     0.180 C 
HETATM   25  C   UNL     1     -26.303  -5.634 -16.288  1.00  0.00     0.173 C 
HETATM   26  C   UNL     1     -26.590  -6.884 -15.463  1.00  0.00     0.202 C 
HETATM   27  O   UNL     1     -27.722  -7.515 -16.075  1.00  0.00    -0.378 OA
BRANCH  24  28
HETATM   28  O   UNL     1     -28.092  -4.022 -16.769  1.00  0.00    -0.390 OA
HETATM   29  H   UNL     1     -29.056  -3.992 -16.923  1.00  0.00     0.210 HD
ENDBRANCH  24  28
BRANCH  25  30
HETATM   30  O   UNL     1     -25.818  -4.553 -15.492  1.00  0.00    -0.391 OA
HETATM   31  H   UNL     1     -26.507  -4.305 -14.849  1.00  0.00     0.210 HD
ENDBRANCH  25  30
ENDBRANCH  22  23
BRANCH  22  32
HETATM   32  O   UNL     1     -29.524  -8.259 -17.808  1.00  0.00    -0.391 OA
HETATM   33  H   UNL     1     -28.853  -8.608 -17.212  1.00  0.00     0.210 HD
ENDBRANCH  22  32
ENDBRANCH  21  22
ENDBRANCH  20  21
ENDBRANCH  18  20
ENDBRANCH   1  18
TORSDOF 23
BEGIN_RES ARG D 557
REMARK  4 active torsions:
REMARK  status: ('A' for Active; 'I' for Inactive)
REMARK    1  A    between atoms: CA   and  CB  
REMARK    2  A    between atoms: CB   and  CG  
REMARK    3  A    between atoms: CG   and  CD  
REMARK    4  A    between atoms: CD   and  NE  
REMARK       I    between atoms: NE   and  CZ  
REMARK       I    between atoms: CZ   and  NH1 
REMARK       I    between atoms: CZ   and  NH2 
ROOT
ATOM      1  CA  ARG D 557     -26.217   2.705 -17.014  1.00 35.49     0.159 C 
ENDROOT
BRANCH   1   2
ATOM      2  CB  ARG D 557     -26.789   1.319 -17.183  1.00 35.49     0.034 C 
BRANCH   2   3
ATOM      3  CG  ARG D 557     -25.843   0.200 -17.103  1.00 35.49     0.027 C 
BRANCH   3   4
ATOM      4  CD  ARG D 557     -24.810   0.407 -16.063  1.00 35.49     0.116 C 
BRANCH   4   5
ATOM      5  NE  ARG D 557     -24.968  -0.497 -14.954  1.00 35.49    -0.212 N 
ATOM      6  CZ  ARG D 557     -24.157  -1.484 -14.646  1.00 35.49     0.666 C 
ATOM      7  NH1 ARG D 557     -23.081  -1.766 -15.357  1.00 35.49    -0.235 N 
ATOM      8  NH2 ARG D 557     -24.444  -2.190 -13.591  1.00 35.49    -0.235 N 
ATOM      9  HH  ARG D 557     -22.871  -1.313 -16.053  1.00 35.49     0.174 HD
ATOM     10  HH  ARG D 557     -22.587  -2.420 -15.106  1.00 35.49     0.174 HD
ATOM     11  HH  ARG D 557     -25.141  -1.980 -13.147  1.00 35.49     0.174 HD
ATOM     12  HH  ARG D 557     -23.942  -2.832 -13.358  1.00 35.49     0.174 HD
ATOM     13  HE  ARG D 557     -25.674  -0.433 -14.485  1.00 35.49     0.178 HD
ENDBRANCH   4   5
ENDBRANCH   3   4
ENDBRANCH   2   3
ENDBRANCH   1   2
END_RES ARG D 557
BEGIN_RES GLU D 570
REMARK  3 active torsions:
REMARK  status: ('A' for Active; 'I' for Inactive)
REMARK    5  A    between atoms: CA   and  CB  
REMARK    6  A    between atoms: CB   and  CG  
REMARK    7  A    between atoms: CG   and  CD  
ROOT
ATOM     14  CA  GLU D 570     -18.033  -6.348 -13.375  1.00 32.92     0.160 C 
ENDROOT
BRANCH  14  15
ATOM     15  CB  GLU D 570     -19.500  -6.345 -13.794  1.00 32.92     0.043 C 
BRANCH  15  16
ATOM     16  CG  GLU D 570     -20.447  -5.554 -12.966  1.00 32.92     0.100 C 
BRANCH  16  17
ATOM     17  CD  GLU D 570     -21.731  -5.225 -13.691  1.00 32.92     0.185 C 
ATOM     18  OE1 GLU D 570     -22.284  -4.130 -13.475  1.00 32.92    -0.647 OA
ATOM     19  OE2 GLU D 570     -22.197  -6.079 -14.471  1.00 32.92    -0.647 OA
ENDBRANCH  16  17
ENDBRANCH  15  16
ENDBRANCH  14  15
END_RES GLU D 570
ENDMDL
