MODEL 1
REMARK VINA RESULT:      -5.8      0.000      0.000
REMARK  16 active torsions:
REMARK  status: ('A' for Active; 'I' for Inactive)
REMARK    1  A    between atoms: C_1  and  C_2 
REMARK    2  A    between atoms: C_1  and  O_22 
REMARK    3  A    between atoms: C_2  and  C_3 
REMARK    4  A    between atoms: C_2  and  O_21 
REMARK    5  A    between atoms: C_3  and  O_4 
REMARK    6  A    between atoms: O_4  and  C_5 
REMARK    7  A    between atoms: C_6  and  O_15 
REMARK    8  A    between atoms: C_10  and  C_11 
REMARK    9  A    between atoms: C_11  and  C_12 
REMARK   10  A    between atoms: C_11  and  O_14 
REMARK   11  A    between atoms: C_12  and  O_13 
REMARK   12  A    between atoms: O_15  and  C_16 
REMARK   13  A    between atoms: C_16  and  C_17 
REMARK   14  A    between atoms: C_17  and  C_18 
REMARK   15  A    between atoms: C_17  and  O_20 
REMARK   16  A    between atoms: C_18  and  O_19 
ROOT
HETATM    1  C   UNL     1     -36.273  -1.235 -11.926  1.00  0.00     0.118 C 
HETATM    2  C   UNL     1     -35.034  -1.720 -11.784  1.00  0.00     0.176 C 
HETATM    3  C   UNL     1     -34.756  -1.724 -10.334  1.00  0.00     0.320 C 
HETATM    4  O   UNL     1     -33.729  -2.072  -9.781  1.00  0.00    -0.257 OA
HETATM    5  O   UNL     1     -35.864  -1.294  -9.664  1.00  0.00    -0.301 OA
HETATM    6  C   UNL     1     -36.851  -0.854 -10.608  1.00  0.00     0.222 C 
ENDROOT
BRANCH   1   7
HETATM    7  O   UNL     1     -36.952  -1.162 -13.126  1.00  0.00    -0.347 OA
BRANCH   7   8
HETATM    8  C   UNL     1     -36.694   0.029 -13.883  1.00  0.00     0.209 C 
BRANCH   8   9
HETATM    9  C   UNL     1     -37.157  -0.105 -15.344  1.00  0.00     0.165 C 
BRANCH   9  10
HETATM   10  C   UNL     1     -36.118  -0.738 -16.274  1.00  0.00     0.198 C 
BRANCH  10  11
HETATM   11  O   UNL     1     -35.215  -1.579 -15.565  1.00  0.00    -0.398 OA
HETATM   12  H   UNL     1     -34.612  -0.984 -15.083  1.00  0.00     0.209 HD
ENDBRANCH  10  11
ENDBRANCH   9  10
BRANCH   9  13
HETATM   13  O   UNL     1     -37.542   1.173 -15.861  1.00  0.00    -0.391 OA
HETATM   14  H   UNL     1     -38.404   1.043 -16.304  1.00  0.00     0.210 HD
ENDBRANCH   9  13
ENDBRANCH   8   9
ENDBRANCH   7   8
ENDBRANCH   1   7
BRANCH   2  15
HETATM   15  O   UNL     1     -34.221  -2.162 -12.799  1.00  0.00    -0.341 OA
BRANCH  15  16
HETATM   16  C   UNL     1     -34.209  -3.587 -12.979  1.00  0.00     0.209 C 
BRANCH  16  17
HETATM   17  C   UNL     1     -33.154  -4.208 -12.057  1.00  0.00     0.166 C 
BRANCH  17  18
HETATM   18  C   UNL     1     -33.706  -5.363 -11.217  1.00  0.00     0.198 C 
BRANCH  18  19
HETATM   19  O   UNL     1     -34.592  -6.147 -12.018  1.00  0.00    -0.398 OA
HETATM   20  H   UNL     1     -35.457  -5.693 -11.973  1.00  0.00     0.209 HD
ENDBRANCH  18  19
ENDBRANCH  17  18
BRANCH  17  21
HETATM   21  O   UNL     1     -32.052  -4.712 -12.834  1.00  0.00    -0.391 OA
HETATM   22  H   UNL     1     -32.377  -4.801 -13.750  1.00  0.00     0.210 HD
ENDBRANCH  17  21
ENDBRANCH  16  17
ENDBRANCH  15  16
ENDBRANCH   2  15
BRANCH   6  23
HETATM   23  C   UNL     1     -37.089   0.652 -10.373  1.00  0.00     0.177 C 
BRANCH  23  24
HETATM   24  C   UNL     1     -37.420   0.927  -8.898  1.00  0.00     0.198 C 
BRANCH  24  25
HETATM   25  O   UNL     1     -36.239   1.314  -8.200  1.00  0.00    -0.398 OA
HETATM   26  H   UNL     1     -35.504   0.806  -8.597  1.00  0.00     0.209 HD
ENDBRANCH  24  25
ENDBRANCH  23  24
BRANCH  23  27
HETATM   27  O   UNL     1     -35.923   1.433 -10.705  1.00  0.00    -0.390 OA
HETATM   28  H   UNL     1     -35.927   1.575 -11.671  1.00  0.00     0.210 HD
ENDBRANCH  23  27
ENDBRANCH   6  23
TORSDOF 16
BEGIN_RES ARG D 557
REMARK  4 active torsions:
REMARK  status: ('A' for Active; 'I' for Inactive)
REMARK    1  A    between atoms: CA   and  CB  
REMARK    2  A    between atoms: CB   and  CG  
REMARK    3  A    between atoms: CG   and  CD  
REMARK    4  A    between atoms: CD   and  NE  
REMARK       I    between atoms: NE   and  CZ  
REMARK       I    between atoms: CZ   and  NH1 
REMARK       I    between atoms: CZ   and  NH2 
ROOT
ATOM      1  CA  ARG D 557     -26.217   2.705 -17.014  1.00 35.49     0.159 C 
ENDROOT
BRANCH   1   2
ATOM      2  CB  ARG D 557     -26.789   1.319 -17.183  1.00 35.49     0.034 C 
BRANCH   2   3
ATOM      3  CG  ARG D 557     -28.237   1.173 -16.987  1.00 35.49     0.027 C 
BRANCH   3   4
ATOM      4  CD  ARG D 557     -28.631  -0.228 -16.716  1.00 35.49     0.116 C 
BRANCH   4   5
ATOM      5  NE  ARG D 557     -27.606  -0.954 -16.014  1.00 35.49    -0.212 N 
ATOM      6  CZ  ARG D 557     -27.404  -2.251 -16.074  1.00 35.49     0.666 C 
ATOM      7  NH1 ARG D 557     -28.160  -3.053 -16.802  1.00 35.49    -0.235 N 
ATOM      8  NH2 ARG D 557     -26.412  -2.737 -15.386  1.00 35.49    -0.235 N 
ATOM      9  HH  ARG D 557     -28.817  -2.754 -17.264  1.00 35.49     0.174 HD
ATOM     10  HH  ARG D 557     -27.980  -3.890 -16.805  1.00 35.49     0.174 HD
ATOM     11  HH  ARG D 557     -25.937  -2.195 -14.931  1.00 35.49     0.174 HD
ATOM     12  HH  ARG D 557     -26.249  -3.569 -15.403  1.00 35.49     0.174 HD
ATOM     13  HE  ARG D 557     -27.118  -0.525 -15.464  1.00 35.49     0.178 HD
ENDBRANCH   4   5
ENDBRANCH   3   4
ENDBRANCH   2   3
ENDBRANCH   1   2
END_RES ARG D 557
BEGIN_RES GLU D 570
REMARK  3 active torsions:
REMARK  status: ('A' for Active; 'I' for Inactive)
REMARK    5  A    between atoms: CA   and  CB  
REMARK    6  A    between atoms: CB   and  CG  
REMARK    7  A    between atoms: CG   and  CD  
ROOT
ATOM     14  CA  GLU D 570     -18.033  -6.348 -13.375  1.00 32.92     0.160 C 
ENDROOT
BRANCH  14  15
ATOM     15  CB  GLU D 570     -19.500  -6.345 -13.794  1.00 32.92     0.043 C 
BRANCH  15  16
ATOM     16  CG  GLU D 570     -20.440  -5.525 -12.988  1.00 32.92     0.100 C 
BRANCH  16  17
ATOM     17  CD  GLU D 570     -21.707  -5.176 -13.734  1.00 32.92     0.185 C 
ATOM     18  OE1 GLU D 570     -22.785  -5.135 -13.110  1.00 32.92    -0.647 OA
ATOM     19  OE2 GLU D 570     -21.623  -4.959 -14.959  1.00 32.92    -0.647 OA
ENDBRANCH  16  17
ENDBRANCH  15  16
ENDBRANCH  14  15
END_RES GLU D 570
ENDMDL
MODEL 2
REMARK VINA RESULT:      -5.3      9.804     15.431
REMARK  16 active torsions:
REMARK  status: ('A' for Active; 'I' for Inactive)
REMARK    1  A    between atoms: C_1  and  C_2 
REMARK    2  A    between atoms: C_1  and  O_22 
REMARK    3  A    between atoms: C_2  and  C_3 
REMARK    4  A    between atoms: C_2  and  O_21 
REMARK    5  A    between atoms: C_3  and  O_4 
REMARK    6  A    between atoms: O_4  and  C_5 
REMARK    7  A    between atoms: C_6  and  O_15 
REMARK    8  A    between atoms: C_10  and  C_11 
REMARK    9  A    between atoms: C_11  and  C_12 
REMARK   10  A    between atoms: C_11  and  O_14 
REMARK   11  A    between atoms: C_12  and  O_13 
REMARK   12  A    between atoms: O_15  and  C_16 
REMARK   13  A    between atoms: C_16  and  C_17 
REMARK   14  A    between atoms: C_17  and  C_18 
REMARK   15  A    between atoms: C_17  and  O_20 
REMARK   16  A    between atoms: C_18  and  O_19 
ROOT
HETATM    1  C   UNL     1     -20.637  -7.706  -4.185  1.00  0.00     0.118 C 
HETATM    2  C   UNL     1     -20.892  -7.434  -2.899  1.00  0.00     0.176 C 
HETATM    3  C   UNL     1     -21.968  -6.422  -2.897  1.00  0.00     0.320 C 
HETATM    4  O   UNL     1     -22.477  -5.891  -1.928  1.00  0.00    -0.257 OA
HETATM    5  O   UNL     1     -22.352  -6.173  -4.183  1.00  0.00    -0.301 OA
HETATM    6  C   UNL     1     -21.479  -6.869  -5.084  1.00  0.00     0.222 C 
ENDROOT
BRANCH   1   7
HETATM    7  O   UNL     1     -19.761  -8.680  -4.620  1.00  0.00    -0.347 OA
BRANCH   7   8
HETATM    8  C   UNL     1     -20.378  -9.939  -4.926  1.00  0.00     0.209 C 
BRANCH   8   9
HETATM    9  C   UNL     1     -19.387 -10.925  -5.568  1.00  0.00     0.165 C 
BRANCH   9  10
HETATM   10  C   UNL     1     -17.970 -10.368  -5.737  1.00  0.00     0.198 C 
BRANCH  10  11
HETATM   11  O   UNL     1     -17.946  -9.232  -6.593  1.00  0.00    -0.398 OA
HETATM   12  H   UNL     1     -18.663  -8.647  -6.288  1.00  0.00     0.209 HD
ENDBRANCH  10  11
ENDBRANCH   9  10
BRANCH   9  13
HETATM   13  O   UNL     1     -19.879 -11.366  -6.839  1.00  0.00    -0.391 OA
HETATM   14  H   UNL     1     -20.582 -10.737  -7.095  1.00  0.00     0.210 HD
ENDBRANCH   9  13
ENDBRANCH   8   9
ENDBRANCH   7   8
ENDBRANCH   1   7
BRANCH   2  15
HETATM   15  O   UNL     1     -20.290  -8.026  -1.816  1.00  0.00    -0.341 OA
BRANCH  15  16
HETATM   16  C   UNL     1     -21.012  -9.139  -1.265  1.00  0.00     0.209 C 
BRANCH  16  17
HETATM   17  C   UNL     1     -21.534  -8.768   0.127  1.00  0.00     0.166 C 
BRANCH  17  18
HETATM   18  C   UNL     1     -23.058  -8.868   0.235  1.00  0.00     0.198 C 
BRANCH  18  19
HETATM   19  O   UNL     1     -23.612  -7.554   0.332  1.00  0.00    -0.398 OA
HETATM   20  H   UNL     1     -24.387  -7.640   0.923  1.00  0.00     0.209 HD
ENDBRANCH  18  19
ENDBRANCH  17  18
BRANCH  17  21
HETATM   21  O   UNL     1     -20.962  -9.638   1.120  1.00  0.00    -0.391 OA
HETATM   22  H   UNL     1     -20.701 -10.456   0.655  1.00  0.00     0.210 HD
ENDBRANCH  17  21
ENDBRANCH  16  17
ENDBRANCH  15  16
ENDBRANCH   2  15
BRANCH   6  23
HETATM   23  C   UNL     1     -20.739  -5.814  -5.932  1.00  0.00     0.177 C 
BRANCH  23  24
HETATM   24  C   UNL     1     -21.654  -5.264  -7.036  1.00  0.00     0.198 C 
BRANCH  24  25
HETATM   25  O   UNL     1     -22.889  -4.830  -6.471  1.00  0.00    -0.398 OA
HETATM   26  H   UNL     1     -23.544  -5.529  -6.666  1.00  0.00     0.209 HD
ENDBRANCH  24  25
ENDBRANCH  23  24
BRANCH  23  27
HETATM   27  O   UNL     1     -20.310  -4.695  -5.131  1.00  0.00    -0.390 OA
HETATM   28  H   UNL     1     -19.429  -4.420  -5.452  1.00  0.00     0.210 HD
ENDBRANCH  23  27
ENDBRANCH   6  23
TORSDOF 16
BEGIN_RES ARG D 557
REMARK  4 active torsions:
REMARK  status: ('A' for Active; 'I' for Inactive)
REMARK    1  A    between atoms: CA   and  CB  
REMARK    2  A    between atoms: CB   and  CG  
REMARK    3  A    between atoms: CG   and  CD  
REMARK    4  A    between atoms: CD   and  NE  
REMARK       I    between atoms: NE   and  CZ  
REMARK       I    between atoms: CZ   and  NH1 
REMARK       I    between atoms: CZ   and  NH2 
ROOT
ATOM      1  CA  ARG D 557     -26.217   2.705 -17.014  1.00 35.49     0.159 C 
ENDROOT
BRANCH   1   2
ATOM      2  CB  ARG D 557     -26.789   1.319 -17.183  1.00 35.49     0.034 C 
BRANCH   2   3
ATOM      3  CG  ARG D 557     -25.933   0.197 -16.778  1.00 35.49     0.027 C 
BRANCH   3   4
ATOM      4  CD  ARG D 557     -26.687  -0.860 -16.067  1.00 35.49     0.116 C 
BRANCH   4   5
ATOM      5  NE  ARG D 557     -25.934  -1.425 -14.978  1.00 35.49    -0.212 N 
ATOM      6  CZ  ARG D 557     -25.902  -2.695 -14.644  1.00 35.49     0.666 C 
ATOM      7  NH1 ARG D 557     -26.594  -3.616 -15.289  1.00 35.49    -0.235 N 
ATOM      8  NH2 ARG D 557     -25.145  -3.033 -13.640  1.00 35.49    -0.235 N 
ATOM      9  HH  ARG D 557     -27.097  -3.417 -15.954  1.00 35.49     0.174 HD
ATOM     10  HH  ARG D 557     -26.532  -4.429 -15.027  1.00 35.49     0.174 HD
ATOM     11  HH  ARG D 557     -24.704  -2.418 -13.247  1.00 35.49     0.174 HD
ATOM     12  HH  ARG D 557     -25.096  -3.844 -13.397  1.00 35.49     0.174 HD
ATOM     13  HE  ARG D 557     -25.515  -0.892 -14.464  1.00 35.49     0.178 HD
ENDBRANCH   4   5
ENDBRANCH   3   4
ENDBRANCH   2   3
ENDBRANCH   1   2
END_RES ARG D 557
BEGIN_RES GLU D 570
REMARK  3 active torsions:
REMARK  status: ('A' for Active; 'I' for Inactive)
REMARK    5  A    between atoms: CA   and  CB  
REMARK    6  A    between atoms: CB   and  CG  
REMARK    7  A    between atoms: CG   and  CD  
ROOT
ATOM     14  CA  GLU D 570     -18.033  -6.348 -13.375  1.00 32.92     0.160 C 
ENDROOT
BRANCH  14  15
ATOM     15  CB  GLU D 570     -19.500  -6.345 -13.794  1.00 32.92     0.043 C 
BRANCH  15  16
ATOM     16  CG  GLU D 570     -20.449  -5.563 -12.959  1.00 32.92     0.100 C 
BRANCH  16  17
ATOM     17  CD  GLU D 570     -21.680  -5.127 -13.719  1.00 32.92     0.185 C 
ATOM     18  OE1 GLU D 570     -21.615  -5.003 -14.957  1.00 32.92    -0.647 OA
ATOM     19  OE2 GLU D 570     -22.716  -4.890 -13.066  1.00 32.92    -0.647 OA
ENDBRANCH  16  17
ENDBRANCH  15  16
ENDBRANCH  14  15
END_RES GLU D 570
ENDMDL
MODEL 3
REMARK VINA RESULT:      -5.3      2.069      3.407
REMARK  16 active torsions:
REMARK  status: ('A' for Active; 'I' for Inactive)
REMARK    1  A    between atoms: C_1  and  C_2 
REMARK    2  A    between atoms: C_1  and  O_22 
REMARK    3  A    between atoms: C_2  and  C_3 
REMARK    4  A    between atoms: C_2  and  O_21 
REMARK    5  A    between atoms: C_3  and  O_4 
REMARK    6  A    between atoms: O_4  and  C_5 
REMARK    7  A    between atoms: C_6  and  O_15 
REMARK    8  A    between atoms: C_10  and  C_11 
REMARK    9  A    between atoms: C_11  and  C_12 
REMARK   10  A    between atoms: C_11  and  O_14 
REMARK   11  A    between atoms: C_12  and  O_13 
REMARK   12  A    between atoms: O_15  and  C_16 
REMARK   13  A    between atoms: C_16  and  C_17 
REMARK   14  A    between atoms: C_17  and  C_18 
REMARK   15  A    between atoms: C_17  and  O_20 
REMARK   16  A    between atoms: C_18  and  O_19 
ROOT
HETATM    1  C   UNL     1     -35.143  -1.632 -13.163  1.00  0.00     0.118 C 
HETATM    2  C   UNL     1     -35.248  -1.493 -11.836  1.00  0.00     0.176 C 
HETATM    3  C   UNL     1     -36.123  -0.324 -11.612  1.00  0.00     0.320 C 
HETATM    4  O   UNL     1     -36.456   0.153 -10.544  1.00  0.00    -0.257 OA
HETATM    5  O   UNL     1     -36.551   0.153 -12.817  1.00  0.00    -0.301 OA
HETATM    6  C   UNL     1     -35.887  -0.556 -13.874  1.00  0.00     0.222 C 
ENDROOT
BRANCH   1   7
HETATM    7  O   UNL     1     -34.490  -2.674 -13.791  1.00  0.00    -0.347 OA
BRANCH   7   8
HETATM    8  C   UNL     1     -34.750  -2.775 -15.199  1.00  0.00     0.209 C 
BRANCH   8   9
HETATM    9  C   UNL     1     -33.846  -3.819 -15.878  1.00  0.00     0.165 C 
BRANCH   9  10
HETATM   10  C   UNL     1     -33.392  -3.431 -17.288  1.00  0.00     0.198 C 
BRANCH  10  11
HETATM   11  O   UNL     1     -31.987  -3.210 -17.350  1.00  0.00    -0.398 OA
HETATM   12  H   UNL     1     -31.580  -4.086 -17.476  1.00  0.00     0.209 HD
ENDBRANCH  10  11
ENDBRANCH   9  10
BRANCH   9  13
HETATM   13  O   UNL     1     -34.504  -5.090 -15.924  1.00  0.00    -0.391 OA
HETATM   14  H   UNL     1     -33.799  -5.763 -15.993  1.00  0.00     0.210 HD
ENDBRANCH   9  13
ENDBRANCH   8   9
ENDBRANCH   7   8
ENDBRANCH   1   7
BRANCH   2  15
HETATM   15  O   UNL     1     -34.683  -2.315 -10.893  1.00  0.00    -0.341 OA
BRANCH  15  16
HETATM   16  C   UNL     1     -35.309  -3.602 -10.767  1.00  0.00     0.209 C 
BRANCH  16  17
HETATM   17  C   UNL     1     -34.243  -4.698 -10.868  1.00  0.00     0.166 C 
BRANCH  17  18
HETATM   18  C   UNL     1     -34.704  -5.900 -11.698  1.00  0.00     0.198 C 
BRANCH  18  19
HETATM   19  O   UNL     1     -35.095  -5.453 -12.998  1.00  0.00    -0.398 OA
HETATM   20  H   UNL     1     -34.571  -5.988 -13.627  1.00  0.00     0.209 HD
ENDBRANCH  18  19
ENDBRANCH  17  18
BRANCH  17  21
HETATM   21  O   UNL     1     -33.049  -4.173 -11.476  1.00  0.00    -0.391 OA
HETATM   22  H   UNL     1     -32.388  -4.088 -10.762  1.00  0.00     0.210 HD
ENDBRANCH  17  21
ENDBRANCH  16  17
ENDBRANCH  15  16
ENDBRANCH   2  15
BRANCH   6  23
HETATM   23  C   UNL     1     -35.035   0.463 -14.660  1.00  0.00     0.177 C 
BRANCH  23  24
HETATM   24  C   UNL     1     -35.913   1.278 -15.621  1.00  0.00     0.198 C 
BRANCH  24  25
HETATM   25  O   UNL     1     -37.284   0.931 -15.438  1.00  0.00    -0.398 OA
HETATM   26  H   UNL     1     -37.804   1.571 -15.963  1.00  0.00     0.209 HD
ENDBRANCH  24  25
ENDBRANCH  23  24
BRANCH  23  27
HETATM   27  O   UNL     1     -34.377   1.396 -13.781  1.00  0.00    -0.390 OA
HETATM   28  H   UNL     1     -33.571   1.712 -14.234  1.00  0.00     0.210 HD
ENDBRANCH  23  27
ENDBRANCH   6  23
TORSDOF 16
BEGIN_RES ARG D 557
REMARK  4 active torsions:
REMARK  status: ('A' for Active; 'I' for Inactive)
REMARK    1  A    between atoms: CA   and  CB  
REMARK    2  A    between atoms: CB   and  CG  
REMARK    3  A    between atoms: CG   and  CD  
REMARK    4  A    between atoms: CD   and  NE  
REMARK       I    between atoms: NE   and  CZ  
REMARK       I    between atoms: CZ   and  NH1 
REMARK       I    between atoms: CZ   and  NH2 
ROOT
ATOM      1  CA  ARG D 557     -26.217   2.705 -17.014  1.00 35.49     0.159 C 
ENDROOT
BRANCH   1   2
ATOM      2  CB  ARG D 557     -26.789   1.319 -17.183  1.00 35.49     0.034 C 
BRANCH   2   3
ATOM      3  CG  ARG D 557     -28.232   1.169 -16.962  1.00 35.49     0.027 C 
BRANCH   3   4
ATOM      4  CD  ARG D 557     -28.676  -0.240 -17.071  1.00 35.49     0.116 C 
BRANCH   4   5
ATOM      5  NE  ARG D 557     -27.787  -1.143 -16.388  1.00 35.49    -0.212 N 
ATOM      6  CZ  ARG D 557     -27.836  -2.455 -16.440  1.00 35.49     0.666 C 
ATOM      7  NH1 ARG D 557     -28.750  -3.103 -17.138  1.00 35.49    -0.235 N 
ATOM      8  NH2 ARG D 557     -26.935  -3.116 -15.773  1.00 35.49    -0.235 N 
ATOM      9  HH  ARG D 557     -29.351  -2.688 -17.586  1.00 35.49     0.174 HD
ATOM     10  HH  ARG D 557     -28.731  -3.960 -17.137  1.00 35.49     0.174 HD
ATOM     11  HH  ARG D 557     -26.353  -2.671 -15.337  1.00 35.49     0.174 HD
ATOM     12  HH  ARG D 557     -26.933  -3.964 -15.785  1.00 35.49     0.174 HD
ATOM     13  HE  ARG D 557     -27.212  -0.811 -15.856  1.00 35.49     0.178 HD
ENDBRANCH   4   5
ENDBRANCH   3   4
ENDBRANCH   2   3
ENDBRANCH   1   2
END_RES ARG D 557
BEGIN_RES GLU D 570
REMARK  3 active torsions:
REMARK  status: ('A' for Active; 'I' for Inactive)
REMARK    5  A    between atoms: CA   and  CB  
REMARK    6  A    between atoms: CB   and  CG  
REMARK    7  A    between atoms: CG   and  CD  
ROOT
ATOM     14  CA  GLU D 570     -18.033  -6.348 -13.375  1.00 32.92     0.160 C 
ENDROOT
BRANCH  14  15
ATOM     15  CB  GLU D 570     -19.500  -6.345 -13.794  1.00 32.92     0.043 C 
BRANCH  15  16
ATOM     16  CG  GLU D 570     -19.796  -6.275 -15.248  1.00 32.92     0.100 C 
BRANCH  16  17
ATOM     17  CD  GLU D 570     -20.844  -7.272 -15.685  1.00 32.92     0.185 C 
ATOM     18  OE1 GLU D 570     -21.940  -6.854 -16.106  1.00 32.92    -0.647 OA
ATOM     19  OE2 GLU D 570     -20.573  -8.485 -15.589  1.00 32.92    -0.647 OA
ENDBRANCH  16  17
ENDBRANCH  15  16
ENDBRANCH  14  15
END_RES GLU D 570
ENDMDL
MODEL 4
REMARK VINA RESULT:      -5.3      2.016      2.997
REMARK  16 active torsions:
REMARK  status: ('A' for Active; 'I' for Inactive)
REMARK    1  A    between atoms: C_1  and  C_2 
REMARK    2  A    between atoms: C_1  and  O_22 
REMARK    3  A    between atoms: C_2  and  C_3 
REMARK    4  A    between atoms: C_2  and  O_21 
REMARK    5  A    between atoms: C_3  and  O_4 
REMARK    6  A    between atoms: O_4  and  C_5 
REMARK    7  A    between atoms: C_6  and  O_15 
REMARK    8  A    between atoms: C_10  and  C_11 
REMARK    9  A    between atoms: C_11  and  C_12 
REMARK   10  A    between atoms: C_11  and  O_14 
REMARK   11  A    between atoms: C_12  and  O_13 
REMARK   12  A    between atoms: O_15  and  C_16 
REMARK   13  A    between atoms: C_16  and  C_17 
REMARK   14  A    between atoms: C_17  and  C_18 
REMARK   15  A    between atoms: C_17  and  O_20 
REMARK   16  A    between atoms: C_18  and  O_19 
ROOT
HETATM    1  C   UNL     1     -34.890  -2.576 -12.983  1.00  0.00     0.118 C 
HETATM    2  C   UNL     1     -34.075  -3.634 -13.065  1.00  0.00     0.176 C 
HETATM    3  C   UNL     1     -34.207  -4.358 -11.785  1.00  0.00     0.320 C 
HETATM    4  O   UNL     1     -33.619  -5.367 -11.445  1.00  0.00    -0.257 OA
HETATM    5  O   UNL     1     -35.142  -3.733 -11.011  1.00  0.00    -0.301 OA
HETATM    6  C   UNL     1     -35.556  -2.518 -11.652  1.00  0.00     0.222 C 
ENDROOT
BRANCH   1   7
HETATM    7  O   UNL     1     -35.136  -1.695 -14.017  1.00  0.00    -0.347 OA
BRANCH   7   8
HETATM    8  C   UNL     1     -35.084  -0.311 -13.643  1.00  0.00     0.209 C 
BRANCH   8   9
HETATM    9  C   UNL     1     -36.163   0.521 -14.360  1.00  0.00     0.165 C 
BRANCH   9  10
HETATM   10  C   UNL     1     -36.954  -0.257 -15.416  1.00  0.00     0.198 C 
BRANCH  10  11
HETATM   11  O   UNL     1     -36.261  -0.318 -16.658  1.00  0.00    -0.398 OA
HETATM   12  H   UNL     1     -35.343  -0.052 -16.470  1.00  0.00     0.209 HD
ENDBRANCH  10  11
ENDBRANCH   9  10
BRANCH   9  13
HETATM   13  O   UNL     1     -35.576   1.679 -14.963  1.00  0.00    -0.391 OA
HETATM   14  H   UNL     1     -34.611   1.525 -14.974  1.00  0.00     0.210 HD
ENDBRANCH   9  13
ENDBRANCH   8   9
ENDBRANCH   7   8
ENDBRANCH   1   7
BRANCH   2  15
HETATM   15  O   UNL     1     -33.311  -3.979 -14.153  1.00  0.00    -0.341 OA
BRANCH  15  16
HETATM   16  C   UNL     1     -34.056  -4.497 -15.267  1.00  0.00     0.209 C 
BRANCH  16  17
HETATM   17  C   UNL     1     -33.174  -4.481 -16.520  1.00  0.00     0.166 C 
BRANCH  17  18
HETATM   18  C   UNL     1     -33.364  -3.217 -17.364  1.00  0.00     0.198 C 
BRANCH  18  19
HETATM   19  O   UNL     1     -34.369  -2.397 -16.765  1.00  0.00    -0.398 OA
HETATM   20  H   UNL     1     -34.035  -1.481 -16.834  1.00  0.00     0.209 HD
ENDBRANCH  18  19
ENDBRANCH  17  18
BRANCH  17  21
HETATM   21  O   UNL     1     -31.786  -4.561 -16.150  1.00  0.00    -0.391 OA
HETATM   22  H   UNL     1     -31.753  -5.031 -15.295  1.00  0.00     0.210 HD
ENDBRANCH  17  21
ENDBRANCH  16  17
ENDBRANCH  15  16
ENDBRANCH   2  15
BRANCH   6  23
HETATM   23  C   UNL     1     -35.155  -1.343 -10.736  1.00  0.00     0.177 C 
BRANCH  23  24
HETATM   24  C   UNL     1     -36.365  -0.844  -9.931  1.00  0.00     0.198 C 
BRANCH  24  25
HETATM   25  O   UNL     1     -36.512   0.564 -10.101  1.00  0.00    -0.398 OA
HETATM   26  H   UNL     1     -37.439   0.715 -10.374  1.00  0.00     0.209 HD
ENDBRANCH  24  25
ENDBRANCH  23  24
BRANCH  23  27
HETATM   27  O   UNL     1     -34.139  -1.729  -9.790  1.00  0.00    -0.390 OA
HETATM   28  H   UNL     1     -34.589  -2.063  -8.990  1.00  0.00     0.210 HD
ENDBRANCH  23  27
ENDBRANCH   6  23
TORSDOF 16
BEGIN_RES ARG D 557
REMARK  4 active torsions:
REMARK  status: ('A' for Active; 'I' for Inactive)
REMARK    1  A    between atoms: CA   and  CB  
REMARK    2  A    between atoms: CB   and  CG  
REMARK    3  A    between atoms: CG   and  CD  
REMARK    4  A    between atoms: CD   and  NE  
REMARK       I    between atoms: NE   and  CZ  
REMARK       I    between atoms: CZ   and  NH1 
REMARK       I    between atoms: CZ   and  NH2 
ROOT
ATOM      1  CA  ARG D 557     -26.217   2.705 -17.014  1.00 35.49     0.159 C 
ENDROOT
BRANCH   1   2
ATOM      2  CB  ARG D 557     -26.789   1.319 -17.183  1.00 35.49     0.034 C 
BRANCH   2   3
ATOM      3  CG  ARG D 557     -28.234   1.226 -17.427  1.00 35.49     0.027 C 
BRANCH   3   4
ATOM      4  CD  ARG D 557     -28.908   0.310 -16.478  1.00 35.49     0.116 C 
BRANCH   4   5
ATOM      5  NE  ARG D 557     -29.340  -0.907 -17.113  1.00 35.49    -0.212 N 
ATOM      6  CZ  ARG D 557     -28.733  -2.070 -17.038  1.00 35.49     0.666 C 
ATOM      7  NH1 ARG D 557     -27.615  -2.244 -16.357  1.00 35.49    -0.235 N 
ATOM      8  NH2 ARG D 557     -29.279  -3.074 -17.661  1.00 35.49    -0.235 N 
ATOM      9  HH  ARG D 557     -27.240  -1.598 -15.938  1.00 35.49     0.174 HD
ATOM     10  HH  ARG D 557     -27.266  -3.026 -16.342  1.00 35.49     0.174 HD
ATOM     11  HH  ARG D 557     -30.005  -2.934 -18.087  1.00 35.49     0.174 HD
ATOM     12  HH  ARG D 557     -28.919  -3.841 -17.632  1.00 35.49     0.174 HD
ATOM     13  HE  ARG D 557     -30.013  -0.870 -17.632  1.00 35.49     0.178 HD
ENDBRANCH   4   5
ENDBRANCH   3   4
ENDBRANCH   2   3
ENDBRANCH   1   2
END_RES ARG D 557
BEGIN_RES GLU D 570
REMARK  3 active torsions:
REMARK  status: ('A' for Active; 'I' for Inactive)
REMARK    5  A    between atoms: CA   and  CB  
REMARK    6  A    between atoms: CB   and  CG  
REMARK    7  A    between atoms: CG   and  CD  
ROOT
ATOM     14  CA  GLU D 570     -18.033  -6.348 -13.375  1.00 32.92     0.160 C 
ENDROOT
BRANCH  14  15
ATOM     15  CB  GLU D 570     -19.500  -6.345 -13.794  1.00 32.92     0.043 C 
BRANCH  15  16
ATOM     16  CG  GLU D 570     -19.797  -6.227 -15.245  1.00 32.92     0.100 C 
BRANCH  16  17
ATOM     17  CD  GLU D 570     -20.689  -7.334 -15.756  1.00 32.92     0.185 C 
ATOM     18  OE1 GLU D 570     -20.611  -8.463 -15.235  1.00 32.92    -0.647 OA
ATOM     19  OE2 GLU D 570     -21.463  -7.074 -16.698  1.00 32.92    -0.647 OA
ENDBRANCH  16  17
ENDBRANCH  15  16
ENDBRANCH  14  15
END_RES GLU D 570
ENDMDL
MODEL 5
REMARK VINA RESULT:      -5.2     10.575     15.879
REMARK  16 active torsions:
REMARK  status: ('A' for Active; 'I' for Inactive)
REMARK    1  A    between atoms: C_1  and  C_2 
REMARK    2  A    between atoms: C_1  and  O_22 
REMARK    3  A    between atoms: C_2  and  C_3 
REMARK    4  A    between atoms: C_2  and  O_21 
REMARK    5  A    between atoms: C_3  and  O_4 
REMARK    6  A    between atoms: O_4  and  C_5 
REMARK    7  A    between atoms: C_6  and  O_15 
REMARK    8  A    between atoms: C_10  and  C_11 
REMARK    9  A    between atoms: C_11  and  C_12 
REMARK   10  A    between atoms: C_11  and  O_14 
REMARK   11  A    between atoms: C_12  and  O_13 
REMARK   12  A    between atoms: O_15  and  C_16 
REMARK   13  A    between atoms: C_16  and  C_17 
REMARK   14  A    between atoms: C_17  and  C_18 
REMARK   15  A    between atoms: C_17  and  O_20 
REMARK   16  A    between atoms: C_18  and  O_19 
ROOT
HETATM    1  C   UNL     1     -20.478  -8.261  -3.314  1.00  0.00     0.118 C 
HETATM    2  C   UNL     1     -21.388  -7.300  -3.510  1.00  0.00     0.176 C 
HETATM    3  C   UNL     1     -21.789  -6.832  -2.167  1.00  0.00     0.320 C 
HETATM    4  O   UNL     1     -22.613  -5.978  -1.901  1.00  0.00    -0.257 OA
HETATM    5  O   UNL     1     -21.058  -7.495  -1.225  1.00  0.00    -0.301 OA
HETATM    6  C   UNL     1     -20.268  -8.510  -1.861  1.00  0.00     0.222 C 
ENDROOT
BRANCH   1   7
HETATM    7  O   UNL     1     -19.775  -8.890  -4.322  1.00  0.00    -0.347 OA
BRANCH   7   8
HETATM    8  C   UNL     1     -18.451  -9.303  -3.955  1.00  0.00     0.209 C 
BRANCH   8   9
HETATM    9  C   UNL     1     -18.129 -10.721  -4.457  1.00  0.00     0.165 C 
BRANCH   9  10
HETATM   10  C   UNL     1     -18.016 -10.835  -5.981  1.00  0.00     0.198 C 
BRANCH  10  11
HETATM   11  O   UNL     1     -18.104  -9.564  -6.615  1.00  0.00    -0.398 OA
HETATM   12  H   UNL     1     -19.052  -9.340  -6.644  1.00  0.00     0.209 HD
ENDBRANCH  10  11
ENDBRANCH   9  10
BRANCH   9  13
HETATM   13  O   UNL     1     -19.110 -11.650  -3.983  1.00  0.00    -0.391 OA
HETATM   14  H   UNL     1     -19.794 -11.120  -3.529  1.00  0.00     0.210 HD
ENDBRANCH   9  13
ENDBRANCH   8   9
ENDBRANCH   7   8
ENDBRANCH   1   7
BRANCH   2  15
HETATM   15  O   UNL     1     -21.814  -6.829  -4.727  1.00  0.00    -0.341 OA
BRANCH  15  16
HETATM   16  C   UNL     1     -21.069  -5.708  -5.230  1.00  0.00     0.209 C 
BRANCH  16  17
HETATM   17  C   UNL     1     -20.613  -6.001  -6.664  1.00  0.00     0.166 C 
BRANCH  17  18
HETATM   18  C   UNL     1     -20.014  -4.775  -7.358  1.00  0.00     0.198 C 
BRANCH  18  19
HETATM   19  O   UNL     1     -20.878  -3.654  -7.165  1.00  0.00    -0.398 OA
HETATM   20  H   UNL     1     -20.403  -3.059  -6.551  1.00  0.00     0.209 HD
ENDBRANCH  18  19
ENDBRANCH  17  18
BRANCH  17  21
HETATM   21  O   UNL     1     -19.618  -7.041  -6.664  1.00  0.00    -0.391 OA
HETATM   22  H   UNL     1     -18.949  -6.784  -7.326  1.00  0.00     0.210 HD
ENDBRANCH  17  21
ENDBRANCH  16  17
ENDBRANCH  15  16
ENDBRANCH   2  15
BRANCH   6  23
HETATM   23  C   UNL     1     -20.738  -9.878  -1.324  1.00  0.00     0.177 C 
BRANCH  23  24
HETATM   24  C   UNL     1     -21.700  -9.696  -0.141  1.00  0.00     0.198 C 
BRANCH  24  25
HETATM   25  O   UNL     1     -23.047  -9.684  -0.608  1.00  0.00    -0.398 OA
HETATM   26  H   UNL     1     -23.528  -9.041  -0.051  1.00  0.00     0.209 HD
ENDBRANCH  24  25
ENDBRANCH  23  24
BRANCH  23  27
HETATM   27  O   UNL     1     -21.436 -10.634  -2.334  1.00  0.00    -0.390 OA
HETATM   28  H   UNL     1     -20.930 -11.454  -2.493  1.00  0.00     0.210 HD
ENDBRANCH  23  27
ENDBRANCH   6  23
TORSDOF 16
BEGIN_RES ARG D 557
REMARK  4 active torsions:
REMARK  status: ('A' for Active; 'I' for Inactive)
REMARK    1  A    between atoms: CA   and  CB  
REMARK    2  A    between atoms: CB   and  CG  
REMARK    3  A    between atoms: CG   and  CD  
REMARK    4  A    between atoms: CD   and  NE  
REMARK       I    between atoms: NE   and  CZ  
REMARK       I    between atoms: CZ   and  NH1 
REMARK       I    between atoms: CZ   and  NH2 
ROOT
ATOM      1  CA  ARG D 557     -26.217   2.705 -17.014  1.00 35.49     0.159 C 
ENDROOT
BRANCH   1   2
ATOM      2  CB  ARG D 557     -26.789   1.319 -17.183  1.00 35.49     0.034 C 
BRANCH   2   3
ATOM      3  CG  ARG D 557     -25.835   0.203 -17.158  1.00 35.49     0.027 C 
BRANCH   3   4
ATOM      4  CD  ARG D 557     -24.750   0.411 -16.173  1.00 35.49     0.116 C 
BRANCH   4   5
ATOM      5  NE  ARG D 557     -24.895  -0.436 -15.019  1.00 35.49    -0.212 N 
ATOM      6  CZ  ARG D 557     -24.080  -1.406 -14.670  1.00 35.49     0.666 C 
ATOM      7  NH1 ARG D 557     -23.011  -1.723 -15.377  1.00 35.49    -0.235 N 
ATOM      8  NH2 ARG D 557     -24.355  -2.058 -13.578  1.00 35.49    -0.235 N 
ATOM      9  HH  ARG D 557     -22.809  -1.305 -16.098  1.00 35.49     0.174 HD
ATOM     10  HH  ARG D 557     -22.514  -2.363 -15.099  1.00 35.49     0.174 HD
ATOM     11  HH  ARG D 557     -25.048  -1.827 -13.137  1.00 35.49     0.174 HD
ATOM     12  HH  ARG D 557     -23.850  -2.688 -13.319  1.00 35.49     0.174 HD
ATOM     13  HE  ARG D 557     -25.596  -0.349 -14.545  1.00 35.49     0.178 HD
ENDBRANCH   4   5
ENDBRANCH   3   4
ENDBRANCH   2   3
ENDBRANCH   1   2
END_RES ARG D 557
BEGIN_RES GLU D 570
REMARK  3 active torsions:
REMARK  status: ('A' for Active; 'I' for Inactive)
REMARK    5  A    between atoms: CA   and  CB  
REMARK    6  A    between atoms: CB   and  CG  
REMARK    7  A    between atoms: CG   and  CD  
ROOT
ATOM     14  CA  GLU D 570     -18.033  -6.348 -13.375  1.00 32.92     0.160 C 
ENDROOT
BRANCH  14  15
ATOM     15  CB  GLU D 570     -19.500  -6.345 -13.794  1.00 32.92     0.043 C 
BRANCH  15  16
ATOM     16  CG  GLU D 570     -20.441  -5.528 -12.985  1.00 32.92     0.100 C 
BRANCH  16  17
ATOM     17  CD  GLU D 570     -21.740  -5.242 -13.703  1.00 32.92     0.185 C 
ATOM     18  OE1 GLU D 570     -22.299  -4.143 -13.525  1.00 32.92    -0.647 OA
ATOM     19  OE2 GLU D 570     -22.210  -6.132 -14.438  1.00 32.92    -0.647 OA
ENDBRANCH  16  17
ENDBRANCH  15  16
ENDBRANCH  14  15
END_RES GLU D 570
ENDMDL
MODEL 6
REMARK VINA RESULT:      -5.1      1.756      2.855
REMARK  16 active torsions:
REMARK  status: ('A' for Active; 'I' for Inactive)
REMARK    1  A    between atoms: C_1  and  C_2 
REMARK    2  A    between atoms: C_1  and  O_22 
REMARK    3  A    between atoms: C_2  and  C_3 
REMARK    4  A    between atoms: C_2  and  O_21 
REMARK    5  A    between atoms: C_3  and  O_4 
REMARK    6  A    between atoms: O_4  and  C_5 
REMARK    7  A    between atoms: C_6  and  O_15 
REMARK    8  A    between atoms: C_10  and  C_11 
REMARK    9  A    between atoms: C_11  and  C_12 
REMARK   10  A    between atoms: C_11  and  O_14 
REMARK   11  A    between atoms: C_12  and  O_13 
REMARK   12  A    between atoms: O_15  and  C_16 
REMARK   13  A    between atoms: C_16  and  C_17 
REMARK   14  A    between atoms: C_17  and  C_18 
REMARK   15  A    between atoms: C_17  and  O_20 
REMARK   16  A    between atoms: C_18  and  O_19 
ROOT
HETATM    1  C   UNL     1     -34.869  -2.629 -12.846  1.00  0.00     0.118 C 
HETATM    2  C   UNL     1     -34.086  -3.710 -12.946  1.00  0.00     0.176 C 
HETATM    3  C   UNL     1     -34.213  -4.431 -11.663  1.00  0.00     0.320 C 
HETATM    4  O   UNL     1     -33.646  -5.456 -11.334  1.00  0.00    -0.257 OA
HETATM    5  O   UNL     1     -35.113  -3.779 -10.870  1.00  0.00    -0.301 OA
HETATM    6  C   UNL     1     -35.506  -2.553 -11.502  1.00  0.00     0.222 C 
ENDROOT
BRANCH   1   7
HETATM    7  O   UNL     1     -35.111  -1.742 -13.875  1.00  0.00    -0.347 OA
BRANCH   7   8
HETATM    8  C   UNL     1     -35.859  -0.578 -13.492  1.00  0.00     0.209 C 
BRANCH   8   9
HETATM    9  C   UNL     1     -35.837   0.506 -14.584  1.00  0.00     0.165 C 
BRANCH   9  10
HETATM   10  C   UNL     1     -36.934   0.350 -15.642  1.00  0.00     0.198 C 
BRANCH  10  11
HETATM   11  O   UNL     1     -36.956  -0.963 -16.192  1.00  0.00    -0.398 OA
HETATM   12  H   UNL     1     -36.419  -1.516 -15.596  1.00  0.00     0.209 HD
ENDBRANCH  10  11
ENDBRANCH   9  10
BRANCH   9  13
HETATM   13  O   UNL     1     -34.558   0.539 -15.226  1.00  0.00    -0.391 OA
HETATM   14  H   UNL     1     -34.731   0.483 -16.186  1.00  0.00     0.210 HD
ENDBRANCH   9  13
ENDBRANCH   8   9
ENDBRANCH   7   8
ENDBRANCH   1   7
BRANCH   2  15
HETATM   15  O   UNL     1     -33.356  -4.076 -14.049  1.00  0.00    -0.341 OA
BRANCH  15  16
HETATM   16  C   UNL     1     -34.142  -4.479 -15.181  1.00  0.00     0.209 C 
BRANCH  16  17
HETATM   17  C   UNL     1     -33.274  -4.442 -16.443  1.00  0.00     0.166 C 
BRANCH  17  18
HETATM   18  C   UNL     1     -33.466  -3.160 -17.259  1.00  0.00     0.198 C 
BRANCH  18  19
HETATM   19  O   UNL     1     -34.392  -2.306 -16.583  1.00  0.00    -0.398 OA
HETATM   20  H   UNL     1     -33.846  -1.718 -16.025  1.00  0.00     0.209 HD
ENDBRANCH  18  19
ENDBRANCH  17  18
BRANCH  17  21
HETATM   21  O   UNL     1     -31.882  -4.537 -16.090  1.00  0.00    -0.391 OA
HETATM   22  H   UNL     1     -31.592  -3.633 -15.858  1.00  0.00     0.210 HD
ENDBRANCH  17  21
ENDBRANCH  16  17
ENDBRANCH  15  16
ENDBRANCH   2  15
BRANCH   6  23
HETATM   23  C   UNL     1     -35.053  -1.390 -10.594  1.00  0.00     0.177 C 
BRANCH  23  24
HETATM   24  C   UNL     1     -36.221  -0.886  -9.734  1.00  0.00     0.198 C 
BRANCH  24  25
HETATM   25  O   UNL     1     -36.368   0.523  -9.894  1.00  0.00    -0.398 OA
HETATM   26  H   UNL     1     -37.287   0.737  -9.638  1.00  0.00     0.209 HD
ENDBRANCH  24  25
ENDBRANCH  23  24
BRANCH  23  27
HETATM   27  O   UNL     1     -34.000  -1.795  -9.697  1.00  0.00    -0.390 OA
HETATM   28  H   UNL     1     -33.162  -1.425 -10.036  1.00  0.00     0.210 HD
ENDBRANCH  23  27
ENDBRANCH   6  23
TORSDOF 16
BEGIN_RES ARG D 557
REMARK  4 active torsions:
REMARK  status: ('A' for Active; 'I' for Inactive)
REMARK    1  A    between atoms: CA   and  CB  
REMARK    2  A    between atoms: CB   and  CG  
REMARK    3  A    between atoms: CG   and  CD  
REMARK    4  A    between atoms: CD   and  NE  
REMARK       I    between atoms: NE   and  CZ  
REMARK       I    between atoms: CZ   and  NH1 
REMARK       I    between atoms: CZ   and  NH2 
ROOT
ATOM      1  CA  ARG D 557     -26.217   2.705 -17.014  1.00 35.49     0.159 C 
ENDROOT
BRANCH   1   2
ATOM      2  CB  ARG D 557     -26.789   1.319 -17.183  1.00 35.49     0.034 C 
BRANCH   2   3
ATOM      3  CG  ARG D 557     -25.923   0.196 -16.804  1.00 35.49     0.027 C 
BRANCH   3   4
ATOM      4  CD  ARG D 557     -26.662  -0.872 -16.092  1.00 35.49     0.116 C 
BRANCH   4   5
ATOM      5  NE  ARG D 557     -25.850  -1.524 -15.099  1.00 35.49    -0.212 N 
ATOM      6  CZ  ARG D 557     -25.897  -2.799 -14.786  1.00 35.49     0.666 C 
ATOM      7  NH1 ARG D 557     -26.734  -3.641 -15.362  1.00 35.49    -0.235 N 
ATOM      8  NH2 ARG D 557     -25.071  -3.224 -13.874  1.00 35.49    -0.235 N 
ATOM      9  HH  ARG D 557     -27.285  -3.384 -15.966  1.00 35.49     0.174 HD
ATOM     10  HH  ARG D 557     -26.717  -4.463 -15.119  1.00 35.49     0.174 HD
ATOM     11  HH  ARG D 557     -24.536  -2.659 -13.524  1.00 35.49     0.174 HD
ATOM     12  HH  ARG D 557     -25.068  -4.041 -13.648  1.00 35.49     0.174 HD
ATOM     13  HE  ARG D 557     -25.333  -1.042 -14.627  1.00 35.49     0.178 HD
ENDBRANCH   4   5
ENDBRANCH   3   4
ENDBRANCH   2   3
ENDBRANCH   1   2
END_RES ARG D 557
BEGIN_RES GLU D 570
REMARK  3 active torsions:
REMARK  status: ('A' for Active; 'I' for Inactive)
REMARK    5  A    between atoms: CA   and  CB  
REMARK    6  A    between atoms: CB   and  CG  
REMARK    7  A    between atoms: CG   and  CD  
ROOT
ATOM     14  CA  GLU D 570     -18.033  -6.348 -13.375  1.00 32.92     0.160 C 
ENDROOT
BRANCH  14  15
ATOM     15  CB  GLU D 570     -19.500  -6.345 -13.794  1.00 32.92     0.043 C 
BRANCH  15  16
ATOM     16  CG  GLU D 570     -20.454  -5.592 -12.940  1.00 32.92     0.100 C 
BRANCH  16  17
ATOM     17  CD  GLU D 570     -21.697  -5.160 -13.683  1.00 32.92     0.185 C 
ATOM     18  OE1 GLU D 570     -21.654  -5.058 -14.924  1.00 32.92    -0.647 OA
ATOM     19  OE2 GLU D 570     -22.719  -4.905 -13.016  1.00 32.92    -0.647 OA
ENDBRANCH  16  17
ENDBRANCH  15  16
ENDBRANCH  14  15
END_RES GLU D 570
ENDMDL
MODEL 7
REMARK VINA RESULT:      -5.1     10.570     15.753
REMARK  16 active torsions:
REMARK  status: ('A' for Active; 'I' for Inactive)
REMARK    1  A    between atoms: C_1  and  C_2 
REMARK    2  A    between atoms: C_1  and  O_22 
REMARK    3  A    between atoms: C_2  and  C_3 
REMARK    4  A    between atoms: C_2  and  O_21 
REMARK    5  A    between atoms: C_3  and  O_4 
REMARK    6  A    between atoms: O_4  and  C_5 
REMARK    7  A    between atoms: C_6  and  O_15 
REMARK    8  A    between atoms: C_10  and  C_11 
REMARK    9  A    between atoms: C_11  and  C_12 
REMARK   10  A    between atoms: C_11  and  O_14 
REMARK   11  A    between atoms: C_12  and  O_13 
REMARK   12  A    between atoms: O_15  and  C_16 
REMARK   13  A    between atoms: C_16  and  C_17 
REMARK   14  A    between atoms: C_17  and  C_18 
REMARK   15  A    between atoms: C_17  and  O_20 
REMARK   16  A    between atoms: C_18  and  O_19 
ROOT
HETATM    1  C   UNL     1     -20.864  -7.923  -4.732  1.00  0.00     0.118 C 
HETATM    2  C   UNL     1     -21.163  -7.774  -3.436  1.00  0.00     0.176 C 
HETATM    3  C   UNL     1     -21.889  -6.492  -3.324  1.00  0.00     0.320 C 
HETATM    4  O   UNL     1     -22.320  -5.975  -2.311  1.00  0.00    -0.257 OA
HETATM    5  O   UNL     1     -22.044  -5.956  -4.570  1.00  0.00    -0.301 OA
HETATM    6  C   UNL     1     -21.324  -6.749  -5.524  1.00  0.00     0.222 C 
ENDROOT
BRANCH   1   7
HETATM    7  O   UNL     1     -20.272  -9.046  -5.273  1.00  0.00    -0.347 OA
BRANCH   7   8
HETATM    8  C   UNL     1     -18.851  -9.119  -5.082  1.00  0.00     0.209 C 
BRANCH   8   9
HETATM    9  C   UNL     1     -18.451 -10.302  -4.184  1.00  0.00     0.165 C 
BRANCH   9  10
HETATM   10  C   UNL     1     -19.413 -11.492  -4.250  1.00  0.00     0.198 C 
BRANCH  10  11
HETATM   11  O   UNL     1     -19.726 -11.847  -5.592  1.00  0.00    -0.398 OA
HETATM   12  H   UNL     1     -20.514 -11.326  -5.834  1.00  0.00     0.209 HD
ENDBRANCH  10  11
ENDBRANCH   9  10
BRANCH   9  13
HETATM   13  O   UNL     1     -18.321  -9.872  -2.825  1.00  0.00    -0.391 OA
HETATM   14  H   UNL     1     -19.035  -9.223  -2.672  1.00  0.00     0.210 HD
ENDBRANCH   9  13
ENDBRANCH   8   9
ENDBRANCH   7   8
ENDBRANCH   1   7
BRANCH   2  15
HETATM   15  O   UNL     1     -20.880  -8.671  -2.435  1.00  0.00    -0.341 OA
BRANCH  15  16
HETATM   16  C   UNL     1     -21.936  -9.601  -2.148  1.00  0.00     0.209 C 
BRANCH  16  17
HETATM   17  C   UNL     1     -22.268  -9.547  -0.652  1.00  0.00     0.166 C 
BRANCH  17  18
HETATM   18  C   UNL     1     -21.074  -9.914   0.234  1.00  0.00     0.198 C 
BRANCH  18  19
HETATM   19  O   UNL     1     -20.127 -10.657  -0.536  1.00  0.00    -0.398 OA
HETATM   20  H   UNL     1     -20.399 -10.543  -1.468  1.00  0.00     0.209 HD
ENDBRANCH  18  19
ENDBRANCH  17  18
BRANCH  17  21
HETATM   21  O   UNL     1     -22.698  -8.223  -0.288  1.00  0.00    -0.391 OA
HETATM   22  H   UNL     1     -23.627  -8.303   0.004  1.00  0.00     0.210 HD
ENDBRANCH  17  21
ENDBRANCH  16  17
ENDBRANCH  15  16
ENDBRANCH   2  15
BRANCH   6  23
HETATM   23  C   UNL     1     -20.221  -5.861  -6.137  1.00  0.00     0.177 C 
BRANCH  23  24
HETATM   24  C   UNL     1     -20.501  -5.596  -7.624  1.00  0.00     0.198 C 
BRANCH  24  25
HETATM   25  O   UNL     1     -19.627  -4.579  -8.108  1.00  0.00    -0.398 OA
HETATM   26  H   UNL     1     -18.749  -4.760  -7.717  1.00  0.00     0.209 HD
ENDBRANCH  24  25
ENDBRANCH  23  24
BRANCH  23  27
HETATM   27  O   UNL     1     -20.142  -4.581  -5.479  1.00  0.00    -0.390 OA
HETATM   28  H   UNL     1     -19.525  -4.672  -4.728  1.00  0.00     0.210 HD
ENDBRANCH  23  27
ENDBRANCH   6  23
TORSDOF 16
BEGIN_RES ARG D 557
REMARK  4 active torsions:
REMARK  status: ('A' for Active; 'I' for Inactive)
REMARK    1  A    between atoms: CA   and  CB  
REMARK    2  A    between atoms: CB   and  CG  
REMARK    3  A    between atoms: CG   and  CD  
REMARK    4  A    between atoms: CD   and  NE  
REMARK       I    between atoms: NE   and  CZ  
REMARK       I    between atoms: CZ   and  NH1 
REMARK       I    between atoms: CZ   and  NH2 
ROOT
ATOM      1  CA  ARG D 557     -26.217   2.705 -17.014  1.00 35.49     0.159 C 
ENDROOT
BRANCH   1   2
ATOM      2  CB  ARG D 557     -26.789   1.319 -17.183  1.00 35.49     0.034 C 
BRANCH   2   3
ATOM      3  CG  ARG D 557     -25.837   0.202 -17.146  1.00 35.49     0.027 C 
BRANCH   3   4
ATOM      4  CD  ARG D 557     -24.758   0.413 -16.154  1.00 35.49     0.116 C 
BRANCH   4   5
ATOM      5  NE  ARG D 557     -24.901  -0.444 -15.007  1.00 35.49    -0.212 N 
ATOM      6  CZ  ARG D 557     -24.080  -1.411 -14.664  1.00 35.49     0.666 C 
ATOM      7  NH1 ARG D 557     -23.008  -1.716 -15.372  1.00 35.49    -0.235 N 
ATOM      8  NH2 ARG D 557     -24.354  -2.074 -13.578  1.00 35.49    -0.235 N 
ATOM      9  HH  ARG D 557     -22.807  -1.292 -16.089  1.00 35.49     0.174 HD
ATOM     10  HH  ARG D 557     -22.508  -2.356 -15.098  1.00 35.49     0.174 HD
ATOM     11  HH  ARG D 557     -25.049  -1.850 -13.137  1.00 35.49     0.174 HD
ATOM     12  HH  ARG D 557     -23.845  -2.703 -13.322  1.00 35.49     0.174 HD
ATOM     13  HE  ARG D 557     -25.603  -0.365 -14.535  1.00 35.49     0.178 HD
ENDBRANCH   4   5
ENDBRANCH   3   4
ENDBRANCH   2   3
ENDBRANCH   1   2
END_RES ARG D 557
BEGIN_RES GLU D 570
REMARK  3 active torsions:
REMARK  status: ('A' for Active; 'I' for Inactive)
REMARK    5  A    between atoms: CA   and  CB  
REMARK    6  A    between atoms: CB   and  CG  
REMARK    7  A    between atoms: CG   and  CD  
ROOT
ATOM     14  CA  GLU D 570     -18.033  -6.348 -13.375  1.00 32.92     0.160 C 
ENDROOT
BRANCH  14  15
ATOM     15  CB  GLU D 570     -19.500  -6.345 -13.794  1.00 32.92     0.043 C 
BRANCH  15  16
ATOM     16  CG  GLU D 570     -20.443  -5.536 -12.980  1.00 32.92     0.100 C 
BRANCH  16  17
ATOM     17  CD  GLU D 570     -21.725  -5.212 -13.710  1.00 32.92     0.185 C 
ATOM     18  OE1 GLU D 570     -22.297  -4.130 -13.479  1.00 32.92    -0.647 OA
ATOM     19  OE2 GLU D 570     -22.172  -6.059 -14.510  1.00 32.92    -0.647 OA
ENDBRANCH  16  17
ENDBRANCH  15  16
ENDBRANCH  14  15
END_RES GLU D 570
ENDMDL
MODEL 8
REMARK VINA RESULT:      -5.0     10.536     15.878
REMARK  16 active torsions:
REMARK  status: ('A' for Active; 'I' for Inactive)
REMARK    1  A    between atoms: C_1  and  C_2 
REMARK    2  A    between atoms: C_1  and  O_22 
REMARK    3  A    between atoms: C_2  and  C_3 
REMARK    4  A    between atoms: C_2  and  O_21 
REMARK    5  A    between atoms: C_3  and  O_4 
REMARK    6  A    between atoms: O_4  and  C_5 
REMARK    7  A    between atoms: C_6  and  O_15 
REMARK    8  A    between atoms: C_10  and  C_11 
REMARK    9  A    between atoms: C_11  and  C_12 
REMARK   10  A    between atoms: C_11  and  O_14 
REMARK   11  A    between atoms: C_12  and  O_13 
REMARK   12  A    between atoms: O_15  and  C_16 
REMARK   13  A    between atoms: C_16  and  C_17 
REMARK   14  A    between atoms: C_17  and  C_18 
REMARK   15  A    between atoms: C_17  and  O_20 
REMARK   16  A    between atoms: C_18  and  O_19 
ROOT
HETATM    1  C   UNL     1     -20.834  -8.055  -4.278  1.00  0.00     0.118 C 
HETATM    2  C   UNL     1     -20.998  -7.588  -3.034  1.00  0.00     0.176 C 
HETATM    3  C   UNL     1     -21.922  -6.441  -3.142  1.00  0.00     0.320 C 
HETATM    4  O   UNL     1     -22.315  -5.724  -2.242  1.00  0.00    -0.257 OA
HETATM    5  O   UNL     1     -22.318  -6.306  -4.442  1.00  0.00    -0.301 OA
HETATM    6  C   UNL     1     -21.587  -7.229  -5.261  1.00  0.00     0.222 C 
ENDROOT
BRANCH   1   7
HETATM    7  O   UNL     1     -20.119  -9.191  -4.598  1.00  0.00    -0.347 OA
BRANCH   7   8
HETATM    8  C   UNL     1     -18.774  -9.208  -4.098  1.00  0.00     0.209 C 
BRANCH   8   9
HETATM    9  C   UNL     1     -18.017 -10.479  -4.521  1.00  0.00     0.165 C 
BRANCH   9  10
HETATM   10  C   UNL     1     -17.423 -10.413  -5.932  1.00  0.00     0.198 C 
BRANCH  10  11
HETATM   11  O   UNL     1     -17.942  -9.315  -6.674  1.00  0.00    -0.398 OA
HETATM   12  H   UNL     1     -18.856  -9.185  -6.363  1.00  0.00     0.209 HD
ENDBRANCH  10  11
ENDBRANCH   9  10
BRANCH   9  13
HETATM   13  O   UNL     1     -18.872 -11.623  -4.420  1.00  0.00    -0.391 OA
HETATM   14  H   UNL     1     -19.587 -11.378  -3.800  1.00  0.00     0.210 HD
ENDBRANCH   9  13
ENDBRANCH   8   9
ENDBRANCH   7   8
ENDBRANCH   1   7
BRANCH   2  15
HETATM   15  O   UNL     1     -20.442  -8.117  -1.895  1.00  0.00    -0.341 OA
BRANCH  15  16
HETATM   16  C   UNL     1     -21.245  -9.113  -1.243  1.00  0.00     0.209 C 
BRANCH  16  17
HETATM   17  C   UNL     1     -21.048  -9.013   0.273  1.00  0.00     0.166 C 
BRANCH  17  18
HETATM   18  C   UNL     1     -22.043  -8.058   0.939  1.00  0.00     0.198 C 
BRANCH  18  19
HETATM   19  O   UNL     1     -22.964  -7.577  -0.043  1.00  0.00    -0.398 OA
HETATM   20  H   UNL     1     -23.480  -6.876   0.403  1.00  0.00     0.209 HD
ENDBRANCH  18  19
ENDBRANCH  17  18
BRANCH  17  21
HETATM   21  O   UNL     1     -21.206 -10.309   0.879  1.00  0.00    -0.391 OA
HETATM   22  H   UNL     1     -20.381 -10.488   1.371  1.00  0.00     0.210 HD
ENDBRANCH  17  21
ENDBRANCH  16  17
ENDBRANCH  15  16
ENDBRANCH   2  15
BRANCH   6  23
HETATM   23  C   UNL     1     -20.741  -6.406  -6.256  1.00  0.00     0.177 C 
BRANCH  23  24
HETATM   24  C   UNL     1     -20.357  -5.048  -5.650  1.00  0.00     0.198 C 
BRANCH  24  25
HETATM   25  O   UNL     1     -21.020  -3.999  -6.354  1.00  0.00    -0.398 OA
HETATM   26  H   UNL     1     -20.436  -3.218  -6.299  1.00  0.00     0.209 HD
ENDBRANCH  24  25
ENDBRANCH  23  24
BRANCH  23  27
HETATM   27  O   UNL     1     -19.518  -7.085  -6.602  1.00  0.00    -0.390 OA
HETATM   28  H   UNL     1     -19.450  -7.096  -7.576  1.00  0.00     0.210 HD
ENDBRANCH  23  27
ENDBRANCH   6  23
TORSDOF 16
BEGIN_RES ARG D 557
REMARK  4 active torsions:
REMARK  status: ('A' for Active; 'I' for Inactive)
REMARK    1  A    between atoms: CA   and  CB  
REMARK    2  A    between atoms: CB   and  CG  
REMARK    3  A    between atoms: CG   and  CD  
REMARK    4  A    between atoms: CD   and  NE  
REMARK       I    between atoms: NE   and  CZ  
REMARK       I    between atoms: CZ   and  NH1 
REMARK       I    between atoms: CZ   and  NH2 
ROOT
ATOM      1  CA  ARG D 557     -26.217   2.705 -17.014  1.00 35.49     0.159 C 
ENDROOT
BRANCH   1   2
ATOM      2  CB  ARG D 557     -26.789   1.319 -17.183  1.00 35.49     0.034 C 
BRANCH   2   3
ATOM      3  CG  ARG D 557     -25.835   0.203 -17.160  1.00 35.49     0.027 C 
BRANCH   3   4
ATOM      4  CD  ARG D 557     -24.766   0.395 -16.154  1.00 35.49     0.116 C 
BRANCH   4   5
ATOM      5  NE  ARG D 557     -24.937  -0.462 -15.011  1.00 35.49    -0.212 N 
ATOM      6  CZ  ARG D 557     -24.131  -1.437 -14.654  1.00 35.49     0.666 C 
ATOM      7  NH1 ARG D 557     -23.048  -1.750 -15.343  1.00 35.49    -0.235 N 
ATOM      8  NH2 ARG D 557     -24.430  -2.099 -13.575  1.00 35.49    -0.235 N 
ATOM      9  HH  ARG D 557     -22.831  -1.326 -16.055  1.00 35.49     0.174 HD
ATOM     10  HH  ARG D 557     -22.559  -2.393 -15.061  1.00 35.49     0.174 HD
ATOM     11  HH  ARG D 557     -25.131  -1.871 -13.146  1.00 35.49     0.174 HD
ATOM     12  HH  ARG D 557     -23.931  -2.733 -13.311  1.00 35.49     0.174 HD
ATOM     13  HE  ARG D 557     -25.648  -0.379 -14.551  1.00 35.49     0.178 HD
ENDBRANCH   4   5
ENDBRANCH   3   4
ENDBRANCH   2   3
ENDBRANCH   1   2
END_RES ARG D 557
BEGIN_RES GLU D 570
REMARK  3 active torsions:
REMARK  status: ('A' for Active; 'I' for Inactive)
REMARK    5  A    between atoms: CA   and  CB  
REMARK    6  A    between atoms: CB   and  CG  
REMARK    7  A    between atoms: CG   and  CD  
ROOT
ATOM     14  CA  GLU D 570     -18.033  -6.348 -13.375  1.00 32.92     0.160 C 
ENDROOT
BRANCH  14  15
ATOM     15  CB  GLU D 570     -19.500  -6.345 -13.794  1.00 32.92     0.043 C 
BRANCH  15  16
ATOM     16  CG  GLU D 570     -20.440  -5.524 -12.988  1.00 32.92     0.100 C 
BRANCH  16  17
ATOM     17  CD  GLU D 570     -21.613  -5.012 -13.792  1.00 32.92     0.185 C 
ATOM     18  OE1 GLU D 570     -21.785  -5.437 -14.950  1.00 32.92    -0.647 OA
ATOM     19  OE2 GLU D 570     -22.359  -4.165 -13.262  1.00 32.92    -0.647 OA
ENDBRANCH  16  17
ENDBRANCH  15  16
ENDBRANCH  14  15
END_RES GLU D 570
ENDMDL
MODEL 9
REMARK VINA RESULT:      -5.0     10.579     15.797
REMARK  16 active torsions:
REMARK  status: ('A' for Active; 'I' for Inactive)
REMARK    1  A    between atoms: C_1  and  C_2 
REMARK    2  A    between atoms: C_1  and  O_22 
REMARK    3  A    between atoms: C_2  and  C_3 
REMARK    4  A    between atoms: C_2  and  O_21 
REMARK    5  A    between atoms: C_3  and  O_4 
REMARK    6  A    between atoms: O_4  and  C_5 
REMARK    7  A    between atoms: C_6  and  O_15 
REMARK    8  A    between atoms: C_10  and  C_11 
REMARK    9  A    between atoms: C_11  and  C_12 
REMARK   10  A    between atoms: C_11  and  O_14 
REMARK   11  A    between atoms: C_12  and  O_13 
REMARK   12  A    between atoms: O_15  and  C_16 
REMARK   13  A    between atoms: C_16  and  C_17 
REMARK   14  A    between atoms: C_17  and  C_18 
REMARK   15  A    between atoms: C_17  and  O_20 
REMARK   16  A    between atoms: C_18  and  O_19 
ROOT
HETATM    1  C   UNL     1     -21.031  -8.182  -2.835  1.00  0.00     0.118 C 
HETATM    2  C   UNL     1     -21.457  -9.426  -3.084  1.00  0.00     0.176 C 
HETATM    3  C   UNL     1     -21.221  -9.663  -4.523  1.00  0.00     0.320 C 
HETATM    4  O   UNL     1     -21.487 -10.665  -5.158  1.00  0.00    -0.257 OA
HETATM    5  O   UNL     1     -20.610  -8.568  -5.063  1.00  0.00    -0.301 OA
HETATM    6  C   UNL     1     -20.546  -7.524  -4.080  1.00  0.00     0.222 C 
ENDROOT
BRANCH   1   7
HETATM    7  O   UNL     1     -20.983  -7.608  -1.581  1.00  0.00    -0.347 OA
BRANCH   7   8
HETATM    8  C   UNL     1     -22.256  -7.180  -1.074  1.00  0.00     0.209 C 
BRANCH   8   9
HETATM    9  C   UNL     1     -22.430  -7.525   0.415  1.00  0.00     0.165 C 
BRANCH   9  10
HETATM   10  C   UNL     1     -21.302  -8.384   0.994  1.00  0.00     0.198 C 
BRANCH  10  11
HETATM   11  O   UNL     1     -21.345  -9.718   0.499  1.00  0.00    -0.398 OA
HETATM   12  H   UNL     1     -20.595 -10.185   0.912  1.00  0.00     0.209 HD
ENDBRANCH  10  11
ENDBRANCH   9  10
BRANCH   9  13
HETATM   13  O   UNL     1     -23.684  -8.180   0.629  1.00  0.00    -0.391 OA
HETATM   14  H   UNL     1     -24.059  -7.797   1.447  1.00  0.00     0.210 HD
ENDBRANCH   9  13
ENDBRANCH   8   9
ENDBRANCH   7   8
ENDBRANCH   1   7
BRANCH   2  15
HETATM   15  O   UNL     1     -21.966 -10.303  -2.159  1.00  0.00    -0.341 OA
BRANCH  15  16
HETATM   16  C   UNL     1     -23.285 -10.789  -2.456  1.00  0.00     0.209 C 
BRANCH  16  17
HETATM   17  C   UNL     1     -23.794 -11.629  -1.279  1.00  0.00     0.166 C 
BRANCH  17  18
HETATM   18  C   UNL     1     -22.891 -12.826  -0.970  1.00  0.00     0.198 C 
BRANCH  18  19
HETATM   19  O   UNL     1     -21.779 -12.388  -0.187  1.00  0.00    -0.398 OA
HETATM   20  H   UNL     1     -22.063 -11.546   0.222  1.00  0.00     0.209 HD
ENDBRANCH  18  19
ENDBRANCH  17  18
BRANCH  17  21
HETATM   21  O   UNL     1     -23.878 -10.819  -0.093  1.00  0.00    -0.391 OA
HETATM   22  H   UNL     1     -24.676 -11.111   0.387  1.00  0.00     0.210 HD
ENDBRANCH  17  21
ENDBRANCH  16  17
ENDBRANCH  15  16
ENDBRANCH   2  15
BRANCH   6  23
HETATM   23  C   UNL     1     -21.383  -6.337  -4.600  1.00  0.00     0.177 C 
BRANCH  23  24
HETATM   24  C   UNL     1     -21.216  -6.178  -6.118  1.00  0.00     0.198 C 
BRANCH  24  25
HETATM   25  O   UNL     1     -19.832  -6.209  -6.460  1.00  0.00    -0.398 OA
HETATM   26  H   UNL     1     -19.623  -5.337  -6.849  1.00  0.00     0.209 HD
ENDBRANCH  24  25
ENDBRANCH  23  24
BRANCH  23  27
HETATM   27  O   UNL     1     -22.788  -6.522  -4.338  1.00  0.00    -0.390 OA
HETATM   28  H   UNL     1     -23.107  -7.237  -4.921  1.00  0.00     0.210 HD
ENDBRANCH  23  27
ENDBRANCH   6  23
TORSDOF 16
BEGIN_RES ARG D 557
REMARK  4 active torsions:
REMARK  status: ('A' for Active; 'I' for Inactive)
REMARK    1  A    between atoms: CA   and  CB  
REMARK    2  A    between atoms: CB   and  CG  
REMARK    3  A    between atoms: CG   and  CD  
REMARK    4  A    between atoms: CD   and  NE  
REMARK       I    between atoms: NE   and  CZ  
REMARK       I    between atoms: CZ   and  NH1 
REMARK       I    between atoms: CZ   and  NH2 
ROOT
ATOM      1  CA  ARG D 557     -26.217   2.705 -17.014  1.00 35.49     0.159 C 
ENDROOT
BRANCH   1   2
ATOM      2  CB  ARG D 557     -26.789   1.319 -17.183  1.00 35.49     0.034 C 
BRANCH   2   3
ATOM      3  CG  ARG D 557     -25.835   0.204 -17.166  1.00 35.49     0.027 C 
BRANCH   3   4
ATOM      4  CD  ARG D 557     -24.742   0.410 -16.188  1.00 35.49     0.116 C 
BRANCH   4   5
ATOM      5  NE  ARG D 557     -24.888  -0.428 -15.027  1.00 35.49    -0.212 N 
ATOM      6  CZ  ARG D 557     -24.077  -1.400 -14.675  1.00 35.49     0.666 C 
ATOM      7  NH1 ARG D 557     -23.013  -1.728 -15.385  1.00 35.49    -0.235 N 
ATOM      8  NH2 ARG D 557     -24.351  -2.043 -13.578  1.00 35.49    -0.235 N 
ATOM      9  HH  ARG D 557     -22.811  -1.316 -16.109  1.00 35.49     0.174 HD
ATOM     10  HH  ARG D 557     -22.518  -2.369 -15.104  1.00 35.49     0.174 HD
ATOM     11  HH  ARG D 557     -25.041  -1.804 -13.136  1.00 35.49     0.174 HD
ATOM     12  HH  ARG D 557     -23.849  -2.674 -13.316  1.00 35.49     0.174 HD
ATOM     13  HE  ARG D 557     -25.587  -0.333 -14.552  1.00 35.49     0.178 HD
ENDBRANCH   4   5
ENDBRANCH   3   4
ENDBRANCH   2   3
ENDBRANCH   1   2
END_RES ARG D 557
BEGIN_RES GLU D 570
REMARK  3 active torsions:
REMARK  status: ('A' for Active; 'I' for Inactive)
REMARK    5  A    between atoms: CA   and  CB  
REMARK    6  A    between atoms: CB   and  CG  
REMARK    7  A    between atoms: CG   and  CD  
ROOT
ATOM     14  CA  GLU D 570     -18.033  -6.348 -13.375  1.00 32.92     0.160 C 
ENDROOT
BRANCH  14  15
ATOM     15  CB  GLU D 570     -19.500  -6.345 -13.794  1.00 32.92     0.043 C 
BRANCH  15  16
ATOM     16  CG  GLU D 570     -20.442  -5.530 -12.983  1.00 32.92     0.100 C 
BRANCH  16  17
ATOM     17  CD  GLU D 570     -21.744  -5.250 -13.697  1.00 32.92     0.185 C 
ATOM     18  OE1 GLU D 570     -22.298  -4.147 -13.533  1.00 32.92    -0.647 OA
ATOM     19  OE2 GLU D 570     -22.222  -6.150 -14.416  1.00 32.92    -0.647 OA
ENDBRANCH  16  17
ENDBRANCH  15  16
ENDBRANCH  14  15
END_RES GLU D 570
ENDMDL
