MODEL 1
REMARK VINA RESULT:      -8.2      0.000      0.000
REMARK  5 active torsions:
REMARK  status: ('A' for Active; 'I' for Inactive)
REMARK    1  A    between atoms: C_5  and  C_8 
REMARK    2  A    between atoms: C_8  and  C_10 
REMARK    3  A    between atoms: C_8  and  O_16 
REMARK    4  A    between atoms: C_10  and  C_11 
REMARK    5  A    between atoms: C_11  and  C_12 
ROOT
HETATM    1  C   UNL     1     -23.474  -3.577 -11.533  1.00  0.00     0.058 C 
HETATM    2  C   UNL     1     -23.144  -2.510 -12.590  1.00  0.00     0.046 C 
ENDROOT
BRANCH   1   3
HETATM    3  C   UNL     1     -22.455  -3.574 -10.339  1.00  0.00     0.023 C 
HETATM    4  C   UNL     1     -21.110  -4.265 -10.678  1.00  0.00     0.035 C 
HETATM    5  C   UNL     1     -20.215  -4.491  -9.490  1.00  0.00    -0.024 C 
HETATM    6  C   UNL     1     -20.613  -4.355  -8.215  1.00  0.00    -0.087 C 
HETATM    7  C   UNL     1     -19.682  -4.582  -7.058  1.00  0.00     0.043 C 
HETATM    8  C   UNL     1     -22.027  -3.971  -7.866  1.00  0.00     0.034 C 
HETATM    9  C   UNL     1     -23.014  -4.158  -9.028  1.00  0.00     0.012 C 
ENDBRANCH   1   3
BRANCH   1  10
HETATM   10  C   UNL     1     -23.604  -4.961 -12.237  1.00  0.00     0.041 C 
BRANCH  10  11
HETATM   11  C   UNL     1     -23.866  -4.843 -13.744  1.00  0.00     0.030 C 
BRANCH  11  12
HETATM   12  C   UNL     1     -23.654  -6.099 -14.548  1.00  0.00    -0.025 C 
HETATM   13  C   UNL     1     -24.493  -6.601 -15.475  1.00  0.00    -0.091 C 
HETATM   14  C   UNL     1     -25.891  -6.101 -15.713  1.00  0.00     0.042 C 
HETATM   15  C   UNL     1     -24.061  -7.705 -16.402  1.00  0.00     0.042 C 
ENDBRANCH  11  12
ENDBRANCH  10  11
ENDBRANCH   1  10
BRANCH   1  16
HETATM   16  O   UNL     1     -24.776  -3.268 -11.020  1.00  0.00    -0.390 OA
HETATM   17  H   UNL     1     -25.419  -3.897 -11.389  1.00  0.00     0.210 HD
ENDBRANCH   1  16
TORSDOF 5
BEGIN_RES ARG D 557
REMARK  4 active torsions:
REMARK  status: ('A' for Active; 'I' for Inactive)
REMARK    1  A    between atoms: CA   and  CB  
REMARK    2  A    between atoms: CB   and  CG  
REMARK    3  A    between atoms: CG   and  CD  
REMARK    4  A    between atoms: CD   and  NE  
REMARK       I    between atoms: NE   and  CZ  
REMARK       I    between atoms: CZ   and  NH1 
REMARK       I    between atoms: CZ   and  NH2 
ROOT
ATOM      1  CA  ARG D 557     -26.217   2.705 -17.014  1.00 35.49     0.159 C 
ENDROOT
BRANCH   1   2
ATOM      2  CB  ARG D 557     -26.789   1.319 -17.183  1.00 35.49     0.034 C 
BRANCH   2   3
ATOM      3  CG  ARG D 557     -28.235   1.172 -16.978  1.00 35.49     0.027 C 
BRANCH   3   4
ATOM      4  CD  ARG D 557     -28.616  -0.214 -16.618  1.00 35.49     0.116 C 
BRANCH   4   5
ATOM      5  NE  ARG D 557     -27.567  -0.897 -15.908  1.00 35.49    -0.212 N 
ATOM      6  CZ  ARG D 557     -27.308  -2.184 -15.972  1.00 35.49     0.666 C 
ATOM      7  NH1 ARG D 557     -28.020  -3.014 -16.711  1.00 35.49    -0.235 N 
ATOM      8  NH2 ARG D 557     -26.303  -2.629 -15.275  1.00 35.49    -0.235 N 
ATOM      9  HH  ARG D 557     -28.684  -2.743 -17.179  1.00 35.49     0.174 HD
ATOM     10  HH  ARG D 557     -27.802  -3.843 -16.715  1.00 35.49     0.174 HD
ATOM     11  HH  ARG D 557     -25.857  -2.069 -14.812  1.00 35.49     0.174 HD
ATOM     12  HH  ARG D 557     -26.103  -3.453 -15.294  1.00 35.49     0.174 HD
ATOM     13  HE  ARG D 557     -27.105  -0.450 -15.351  1.00 35.49     0.178 HD
ENDBRANCH   4   5
ENDBRANCH   3   4
ENDBRANCH   2   3
ENDBRANCH   1   2
END_RES ARG D 557
BEGIN_RES GLU D 570
REMARK  3 active torsions:
REMARK  status: ('A' for Active; 'I' for Inactive)
REMARK    5  A    between atoms: CA   and  CB  
REMARK    6  A    between atoms: CB   and  CG  
REMARK    7  A    between atoms: CG   and  CD  
ROOT
ATOM     14  CA  GLU D 570     -18.033  -6.348 -13.375  1.00 32.92     0.160 C 
ENDROOT
BRANCH  14  15
ATOM     15  CB  GLU D 570     -19.500  -6.345 -13.794  1.00 32.92     0.043 C 
BRANCH  15  16
ATOM     16  CG  GLU D 570     -20.103  -7.645 -14.186  1.00 32.92     0.100 C 
BRANCH  16  17
ATOM     17  CD  GLU D 570     -20.502  -7.695 -15.642  1.00 32.92     0.185 C 
ATOM     18  OE1 GLU D 570     -20.673  -8.803 -16.186  1.00 32.92    -0.647 OA
ATOM     19  OE2 GLU D 570     -20.630  -6.614 -16.250  1.00 32.92    -0.647 OA
ENDBRANCH  16  17
ENDBRANCH  15  16
ENDBRANCH  14  15
END_RES GLU D 570
ENDMDL
MODEL 2
REMARK VINA RESULT:      -8.0      3.438      7.025
REMARK  5 active torsions:
REMARK  status: ('A' for Active; 'I' for Inactive)
REMARK    1  A    between atoms: C_5  and  C_8 
REMARK    2  A    between atoms: C_8  and  C_10 
REMARK    3  A    between atoms: C_8  and  O_16 
REMARK    4  A    between atoms: C_10  and  C_11 
REMARK    5  A    between atoms: C_11  and  C_12 
ROOT
HETATM    1  C   UNL     1     -20.703  -5.815  -6.362  1.00  0.00     0.058 C 
HETATM    2  C   UNL     1     -19.799  -4.707  -5.795  1.00  0.00     0.046 C 
ENDROOT
BRANCH   1   3
HETATM    3  C   UNL     1     -21.495  -5.350  -7.636  1.00  0.00     0.023 C 
HETATM    4  C   UNL     1     -20.592  -4.717  -8.723  1.00  0.00     0.035 C 
HETATM    5  C   UNL     1     -21.345  -4.046  -9.839  1.00  0.00    -0.024 C 
HETATM    6  C   UNL     1     -22.662  -3.780  -9.801  1.00  0.00    -0.087 C 
HETATM    7  C   UNL     1     -23.377  -3.117 -10.943  1.00  0.00     0.043 C 
HETATM    8  C   UNL     1     -23.503  -4.126  -8.600  1.00  0.00     0.034 C 
HETATM    9  C   UNL     1     -22.676  -4.406  -7.337  1.00  0.00     0.012 C 
ENDBRANCH   1   3
BRANCH   1  10
HETATM   10  C   UNL     1     -21.619  -6.353  -5.222  1.00  0.00     0.041 C 
BRANCH  10  11
HETATM   11  C   UNL     1     -21.137  -5.941  -3.825  1.00  0.00     0.030 C 
BRANCH  11  12
HETATM   12  C   UNL     1     -22.013  -6.367  -2.676  1.00  0.00    -0.025 C 
HETATM   13  C   UNL     1     -21.673  -7.220  -1.690  1.00  0.00    -0.091 C 
HETATM   14  C   UNL     1     -20.426  -8.059  -1.687  1.00  0.00     0.042 C 
HETATM   15  C   UNL     1     -22.523  -7.365  -0.456  1.00  0.00     0.042 C 
ENDBRANCH  11  12
ENDBRANCH  10  11
ENDBRANCH   1  10
BRANCH   1  16
HETATM   16  O   UNL     1     -19.847  -6.904  -6.732  1.00  0.00    -0.390 OA
HETATM   17  H   UNL     1     -20.281  -7.741  -6.498  1.00  0.00     0.210 HD
ENDBRANCH   1  16
TORSDOF 5
BEGIN_RES ARG D 557
REMARK  4 active torsions:
REMARK  status: ('A' for Active; 'I' for Inactive)
REMARK    1  A    between atoms: CA   and  CB  
REMARK    2  A    between atoms: CB   and  CG  
REMARK    3  A    between atoms: CG   and  CD  
REMARK    4  A    between atoms: CD   and  NE  
REMARK       I    between atoms: NE   and  CZ  
REMARK       I    between atoms: CZ   and  NH1 
REMARK       I    between atoms: CZ   and  NH2 
ROOT
ATOM      1  CA  ARG D 557     -26.217   2.705 -17.014  1.00 35.49     0.159 C 
ENDROOT
BRANCH   1   2
ATOM      2  CB  ARG D 557     -26.789   1.319 -17.183  1.00 35.49     0.034 C 
BRANCH   2   3
ATOM      3  CG  ARG D 557     -25.940   0.198 -16.762  1.00 35.49     0.027 C 
BRANCH   3   4
ATOM      4  CD  ARG D 557     -26.706  -0.856 -16.058  1.00 35.49     0.116 C 
BRANCH   4   5
ATOM      5  NE  ARG D 557     -25.881  -1.613 -15.153  1.00 35.49    -0.212 N 
ATOM      6  CZ  ARG D 557     -25.981  -2.902 -14.918  1.00 35.49     0.666 C 
ATOM      7  NH1 ARG D 557     -26.891  -3.661 -15.501  1.00 35.49    -0.235 N 
ATOM      8  NH2 ARG D 557     -25.134  -3.427 -14.081  1.00 35.49    -0.235 N 
ATOM      9  HH  ARG D 557     -27.457  -3.337 -16.057  1.00 35.49     0.174 HD
ATOM     10  HH  ARG D 557     -26.907  -4.496 -15.311  1.00 35.49     0.174 HD
ATOM     11  HH  ARG D 557     -24.553  -2.914 -13.725  1.00 35.49     0.174 HD
ATOM     12  HH  ARG D 557     -25.165  -4.256 -13.907  1.00 35.49     0.174 HD
ATOM     13  HE  ARG D 557     -25.315  -1.189 -14.680  1.00 35.49     0.178 HD
ENDBRANCH   4   5
ENDBRANCH   3   4
ENDBRANCH   2   3
ENDBRANCH   1   2
END_RES ARG D 557
BEGIN_RES GLU D 570
REMARK  3 active torsions:
REMARK  status: ('A' for Active; 'I' for Inactive)
REMARK    5  A    between atoms: CA   and  CB  
REMARK    6  A    between atoms: CB   and  CG  
REMARK    7  A    between atoms: CG   and  CD  
ROOT
ATOM     14  CA  GLU D 570     -18.033  -6.348 -13.375  1.00 32.92     0.160 C 
ENDROOT
BRANCH  14  15
ATOM     15  CB  GLU D 570     -19.500  -6.345 -13.794  1.00 32.92     0.043 C 
BRANCH  15  16
ATOM     16  CG  GLU D 570     -20.431  -5.484 -13.020  1.00 32.92     0.100 C 
BRANCH  16  17
ATOM     17  CD  GLU D 570     -21.713  -5.185 -13.762  1.00 32.92     0.185 C 
ATOM     18  OE1 GLU D 570     -22.803  -5.392 -13.196  1.00 32.92    -0.647 OA
ATOM     19  OE2 GLU D 570     -21.625  -4.756 -14.930  1.00 32.92    -0.647 OA
ENDBRANCH  16  17
ENDBRANCH  15  16
ENDBRANCH  14  15
END_RES GLU D 570
ENDMDL
MODEL 3
REMARK VINA RESULT:      -7.8      4.346      7.877
REMARK  5 active torsions:
REMARK  status: ('A' for Active; 'I' for Inactive)
REMARK    1  A    between atoms: C_5  and  C_8 
REMARK    2  A    between atoms: C_8  and  C_10 
REMARK    3  A    between atoms: C_8  and  O_16 
REMARK    4  A    between atoms: C_10  and  C_11 
REMARK    5  A    between atoms: C_11  and  C_12 
ROOT
HETATM    1  C   UNL     1     -21.826  -6.367  -4.757  1.00  0.00     0.058 C 
HETATM    2  C   UNL     1     -21.549  -7.862  -4.993  1.00  0.00     0.046 C 
ENDROOT
BRANCH   1   3
HETATM    3  C   UNL     1     -21.349  -5.472  -5.956  1.00  0.00     0.023 C 
HETATM    4  C   UNL     1     -22.517  -4.877  -6.781  1.00  0.00     0.035 C 
HETATM    5  C   UNL     1     -22.093  -4.222  -8.068  1.00  0.00    -0.024 C 
HETATM    6  C   UNL     1     -20.868  -4.345  -8.604  1.00  0.00    -0.087 C 
HETATM    7  C   UNL     1     -20.484  -3.665  -9.887  1.00  0.00     0.043 C 
HETATM    8  C   UNL     1     -19.801  -5.184  -7.951  1.00  0.00     0.034 C 
HETATM    9  C   UNL     1     -20.351  -6.164  -6.905  1.00  0.00     0.012 C 
ENDBRANCH   1   3
BRANCH   1  10
HETATM   10  C   UNL     1     -21.214  -5.950  -3.387  1.00  0.00     0.041 C 
BRANCH  10  11
HETATM   11  C   UNL     1     -22.002  -6.497  -2.189  1.00  0.00     0.030 C 
BRANCH  11  12
HETATM   12  C   UNL     1     -21.300  -7.542  -1.363  1.00  0.00    -0.025 C 
HETATM   13  C   UNL     1     -21.821  -8.208  -0.313  1.00  0.00    -0.091 C 
HETATM   14  C   UNL     1     -23.129  -7.865   0.345  1.00  0.00     0.042 C 
HETATM   15  C   UNL     1     -21.130  -9.414   0.266  1.00  0.00     0.042 C 
ENDBRANCH  11  12
ENDBRANCH  10  11
ENDBRANCH   1  10
BRANCH   1  16
HETATM   16  O   UNL     1     -23.246  -6.223  -4.620  1.00  0.00    -0.390 OA
HETATM   17  H   UNL     1     -23.639  -6.113  -5.502  1.00  0.00     0.210 HD
ENDBRANCH   1  16
TORSDOF 5
BEGIN_RES ARG D 557
REMARK  4 active torsions:
REMARK  status: ('A' for Active; 'I' for Inactive)
REMARK    1  A    between atoms: CA   and  CB  
REMARK    2  A    between atoms: CB   and  CG  
REMARK    3  A    between atoms: CG   and  CD  
REMARK    4  A    between atoms: CD   and  NE  
REMARK       I    between atoms: NE   and  CZ  
REMARK       I    between atoms: CZ   and  NH1 
REMARK       I    between atoms: CZ   and  NH2 
ROOT
ATOM      1  CA  ARG D 557     -26.217   2.705 -17.014  1.00 35.49     0.159 C 
ENDROOT
BRANCH   1   2
ATOM      2  CB  ARG D 557     -26.789   1.319 -17.183  1.00 35.49     0.034 C 
BRANCH   2   3
ATOM      3  CG  ARG D 557     -25.836   0.203 -17.154  1.00 35.49     0.027 C 
BRANCH   3   4
ATOM      4  CD  ARG D 557     -24.759   0.406 -16.159  1.00 35.49     0.116 C 
BRANCH   4   5
ATOM      5  NE  ARG D 557     -24.914  -0.447 -15.010  1.00 35.49    -0.212 N 
ATOM      6  CZ  ARG D 557     -24.105  -1.422 -14.662  1.00 35.49     0.666 C 
ATOM      7  NH1 ARG D 557     -23.034  -1.740 -15.365  1.00 35.49    -0.235 N 
ATOM      8  NH2 ARG D 557     -24.389  -2.079 -13.575  1.00 35.49    -0.235 N 
ATOM      9  HH  ARG D 557     -22.826  -1.319 -16.082  1.00 35.49     0.174 HD
ATOM     10  HH  ARG D 557     -22.541  -2.383 -15.088  1.00 35.49     0.174 HD
ATOM     11  HH  ARG D 557     -25.083  -1.847 -13.137  1.00 35.49     0.174 HD
ATOM     12  HH  ARG D 557     -23.888  -2.713 -13.317  1.00 35.49     0.174 HD
ATOM     13  HE  ARG D 557     -25.618  -0.359 -14.540  1.00 35.49     0.178 HD
ENDBRANCH   4   5
ENDBRANCH   3   4
ENDBRANCH   2   3
ENDBRANCH   1   2
END_RES ARG D 557
BEGIN_RES GLU D 570
REMARK  3 active torsions:
REMARK  status: ('A' for Active; 'I' for Inactive)
REMARK    5  A    between atoms: CA   and  CB  
REMARK    6  A    between atoms: CB   and  CG  
REMARK    7  A    between atoms: CG   and  CD  
ROOT
ATOM     14  CA  GLU D 570     -18.033  -6.348 -13.375  1.00 32.92     0.160 C 
ENDROOT
BRANCH  14  15
ATOM     15  CB  GLU D 570     -19.500  -6.345 -13.794  1.00 32.92     0.043 C 
BRANCH  15  16
ATOM     16  CG  GLU D 570     -20.445  -5.548 -12.971  1.00 32.92     0.100 C 
BRANCH  16  17
ATOM     17  CD  GLU D 570     -21.730  -5.222 -13.697  1.00 32.92     0.185 C 
ATOM     18  OE1 GLU D 570     -22.292  -4.133 -13.474  1.00 32.92    -0.647 OA
ATOM     19  OE2 GLU D 570     -22.187  -6.073 -14.485  1.00 32.92    -0.647 OA
ENDBRANCH  16  17
ENDBRANCH  15  16
ENDBRANCH  14  15
END_RES GLU D 570
ENDMDL
MODEL 4
REMARK VINA RESULT:      -7.6      7.302      9.981
REMARK  5 active torsions:
REMARK  status: ('A' for Active; 'I' for Inactive)
REMARK    1  A    between atoms: C_5  and  C_8 
REMARK    2  A    between atoms: C_8  and  C_10 
REMARK    3  A    between atoms: C_8  and  O_16 
REMARK    4  A    between atoms: C_10  and  C_11 
REMARK    5  A    between atoms: C_11  and  C_12 
ROOT
HETATM    1  C   UNL     1     -21.969  -8.688   0.184  1.00  0.00     0.058 C 
HETATM    2  C   UNL     1     -23.277  -8.098   0.737  1.00  0.00     0.046 C 
ENDROOT
BRANCH   1   3
HETATM    3  C   UNL     1     -21.453  -7.918  -1.084  1.00  0.00     0.023 C 
HETATM    4  C   UNL     1     -22.261  -6.633  -1.392  1.00  0.00     0.035 C 
HETATM    5  C   UNL     1     -21.948  -6.012  -2.727  1.00  0.00    -0.024 C 
HETATM    6  C   UNL     1     -21.235  -6.622  -3.689  1.00  0.00    -0.087 C 
HETATM    7  C   UNL     1     -20.939  -5.960  -5.004  1.00  0.00     0.043 C 
HETATM    8  C   UNL     1     -20.694  -8.016  -3.507  1.00  0.00     0.034 C 
HETATM    9  C   UNL     1     -21.360  -8.783  -2.356  1.00  0.00     0.012 C 
ENDBRANCH   1   3
BRANCH   1  10
HETATM   10  C   UNL     1     -22.165 -10.216  -0.054  1.00  0.00     0.041 C 
BRANCH  10  11
HETATM   11  C   UNL     1     -23.641 -10.616  -0.181  1.00  0.00     0.030 C 
BRANCH  11  12
HETATM   12  C   UNL     1     -23.912 -11.898  -0.922  1.00  0.00    -0.025 C 
HETATM   13  C   UNL     1     -23.863 -13.141  -0.404  1.00  0.00    -0.091 C 
HETATM   14  C   UNL     1     -23.317 -13.473   0.957  1.00  0.00     0.042 C 
HETATM   15  C   UNL     1     -24.410 -14.323  -1.160  1.00  0.00     0.042 C 
ENDBRANCH  11  12
ENDBRANCH  10  11
ENDBRANCH   1  10
BRANCH   1  16
HETATM   16  O   UNL     1     -20.986  -8.569   1.220  1.00  0.00    -0.390 OA
HETATM   17  H   UNL     1     -21.027  -7.673   1.593  1.00  0.00     0.210 HD
ENDBRANCH   1  16
TORSDOF 5
BEGIN_RES ARG D 557
REMARK  4 active torsions:
REMARK  status: ('A' for Active; 'I' for Inactive)
REMARK    1  A    between atoms: CA   and  CB  
REMARK    2  A    between atoms: CB   and  CG  
REMARK    3  A    between atoms: CG   and  CD  
REMARK    4  A    between atoms: CD   and  NE  
REMARK       I    between atoms: NE   and  CZ  
REMARK       I    between atoms: CZ   and  NH1 
REMARK       I    between atoms: CZ   and  NH2 
ROOT
ATOM      1  CA  ARG D 557     -26.217   2.705 -17.014  1.00 35.49     0.159 C 
ENDROOT
BRANCH   1   2
ATOM      2  CB  ARG D 557     -26.789   1.319 -17.183  1.00 35.49     0.034 C 
BRANCH   2   3
ATOM      3  CG  ARG D 557     -25.835   0.203 -17.160  1.00 35.49     0.027 C 
BRANCH   3   4
ATOM      4  CD  ARG D 557     -24.749   0.410 -16.174  1.00 35.49     0.116 C 
BRANCH   4   5
ATOM      5  NE  ARG D 557     -24.898  -0.435 -15.019  1.00 35.49    -0.212 N 
ATOM      6  CZ  ARG D 557     -24.083  -1.404 -14.665  1.00 35.49     0.666 C 
ATOM      7  NH1 ARG D 557     -23.012  -1.721 -15.369  1.00 35.49    -0.235 N 
ATOM      8  NH2 ARG D 557     -24.362  -2.055 -13.573  1.00 35.49    -0.235 N 
ATOM      9  HH  ARG D 557     -22.808  -1.305 -16.089  1.00 35.49     0.174 HD
ATOM     10  HH  ARG D 557     -22.515  -2.360 -15.088  1.00 35.49     0.174 HD
ATOM     11  HH  ARG D 557     -25.056  -1.823 -13.135  1.00 35.49     0.174 HD
ATOM     12  HH  ARG D 557     -23.857  -2.683 -13.311  1.00 35.49     0.174 HD
ATOM     13  HE  ARG D 557     -25.601  -0.348 -14.548  1.00 35.49     0.178 HD
ENDBRANCH   4   5
ENDBRANCH   3   4
ENDBRANCH   2   3
ENDBRANCH   1   2
END_RES ARG D 557
BEGIN_RES GLU D 570
REMARK  3 active torsions:
REMARK  status: ('A' for Active; 'I' for Inactive)
REMARK    5  A    between atoms: CA   and  CB  
REMARK    6  A    between atoms: CB   and  CG  
REMARK    7  A    between atoms: CG   and  CD  
ROOT
ATOM     14  CA  GLU D 570     -18.033  -6.348 -13.375  1.00 32.92     0.160 C 
ENDROOT
BRANCH  14  15
ATOM     15  CB  GLU D 570     -19.500  -6.345 -13.794  1.00 32.92     0.043 C 
BRANCH  15  16
ATOM     16  CG  GLU D 570     -20.447  -5.557 -12.964  1.00 32.92     0.100 C 
BRANCH  16  17
ATOM     17  CD  GLU D 570     -21.740  -5.245 -13.681  1.00 32.92     0.185 C 
ATOM     18  OE1 GLU D 570     -22.267  -4.127 -13.520  1.00 32.92    -0.647 OA
ATOM     19  OE2 GLU D 570     -22.241  -6.134 -14.397  1.00 32.92    -0.647 OA
ENDBRANCH  16  17
ENDBRANCH  15  16
ENDBRANCH  14  15
END_RES GLU D 570
ENDMDL
MODEL 5
REMARK VINA RESULT:      -7.6      1.887      2.800
REMARK  5 active torsions:
REMARK  status: ('A' for Active; 'I' for Inactive)
REMARK    1  A    between atoms: C_5  and  C_8 
REMARK    2  A    between atoms: C_8  and  C_10 
REMARK    3  A    between atoms: C_8  and  O_16 
REMARK    4  A    between atoms: C_10  and  C_11 
REMARK    5  A    between atoms: C_11  and  C_12 
ROOT
HETATM    1  C   UNL     1     -22.340  -3.819 -11.401  1.00  0.00     0.058 C 
HETATM    2  C   UNL     1     -22.268  -4.919 -12.474  1.00  0.00     0.046 C 
ENDROOT
BRANCH   1   3
HETATM    3  C   UNL     1     -21.835  -4.315  -9.999  1.00  0.00     0.023 C 
HETATM    4  C   UNL     1     -22.644  -3.732  -8.814  1.00  0.00     0.035 C 
HETATM    5  C   UNL     1     -22.036  -3.993  -7.463  1.00  0.00    -0.024 C 
HETATM    6  C   UNL     1     -20.789  -4.457  -7.279  1.00  0.00    -0.087 C 
HETATM    7  C   UNL     1     -20.224  -4.713  -5.911  1.00  0.00     0.043 C 
HETATM    8  C   UNL     1     -19.874  -4.744  -8.441  1.00  0.00     0.034 C 
HETATM    9  C   UNL     1     -20.331  -4.089  -9.752  1.00  0.00     0.012 C 
ENDBRANCH   1   3
BRANCH   1  10
HETATM   10  C   UNL     1     -23.785  -3.237 -11.371  1.00  0.00     0.041 C 
BRANCH  10  11
HETATM   11  C   UNL     1     -24.498  -3.339 -12.726  1.00  0.00     0.030 C 
BRANCH  11  12
HETATM   12  C   UNL     1     -24.605  -2.058 -13.510  1.00  0.00    -0.025 C 
HETATM   13  C   UNL     1     -23.899  -1.740 -14.614  1.00  0.00    -0.091 C 
HETATM   14  C   UNL     1     -22.726  -2.529 -15.127  1.00  0.00     0.042 C 
HETATM   15  C   UNL     1     -24.274  -0.558 -15.466  1.00  0.00     0.042 C 
ENDBRANCH  11  12
ENDBRANCH  10  11
ENDBRANCH   1  10
BRANCH   1  16
HETATM   16  O   UNL     1     -21.489  -2.752 -11.840  1.00  0.00    -0.390 OA
HETATM   17  H   UNL     1     -21.251  -2.203 -11.074  1.00  0.00     0.210 HD
ENDBRANCH   1  16
TORSDOF 5
BEGIN_RES ARG D 557
REMARK  4 active torsions:
REMARK  status: ('A' for Active; 'I' for Inactive)
REMARK    1  A    between atoms: CA   and  CB  
REMARK    2  A    between atoms: CB   and  CG  
REMARK    3  A    between atoms: CG   and  CD  
REMARK    4  A    between atoms: CD   and  NE  
REMARK       I    between atoms: NE   and  CZ  
REMARK       I    between atoms: CZ   and  NH1 
REMARK       I    between atoms: CZ   and  NH2 
ROOT
ATOM      1  CA  ARG D 557     -26.217   2.705 -17.014  1.00 35.49     0.159 C 
ENDROOT
BRANCH   1   2
ATOM      2  CB  ARG D 557     -26.789   1.319 -17.183  1.00 35.49     0.034 C 
BRANCH   2   3
ATOM      3  CG  ARG D 557     -28.230   1.227 -17.446  1.00 35.49     0.027 C 
BRANCH   3   4
ATOM      4  CD  ARG D 557     -28.917   0.308 -16.509  1.00 35.49     0.116 C 
BRANCH   4   5
ATOM      5  NE  ARG D 557     -29.266  -0.941 -17.133  1.00 35.49    -0.212 N 
ATOM      6  CZ  ARG D 557     -28.605  -2.070 -17.014  1.00 35.49     0.666 C 
ATOM      7  NH1 ARG D 557     -27.502  -2.174 -16.294  1.00 35.49    -0.235 N 
ATOM      8  NH2 ARG D 557     -29.078  -3.112 -17.633  1.00 35.49    -0.235 N 
ATOM      9  HH  ARG D 557     -27.174  -1.501 -15.877  1.00 35.49     0.174 HD
ATOM     10  HH  ARG D 557     -27.115  -2.936 -16.251  1.00 35.49     0.174 HD
ATOM     11  HH  ARG D 557     -29.796  -3.017 -18.085  1.00 35.49     0.174 HD
ATOM     12  HH  ARG D 557     -28.681  -3.859 -17.577  1.00 35.49     0.174 HD
ATOM     13  HE  ARG D 557     -29.923  -0.948 -17.673  1.00 35.49     0.178 HD
ENDBRANCH   4   5
ENDBRANCH   3   4
ENDBRANCH   2   3
ENDBRANCH   1   2
END_RES ARG D 557
BEGIN_RES GLU D 570
REMARK  3 active torsions:
REMARK  status: ('A' for Active; 'I' for Inactive)
REMARK    5  A    between atoms: CA   and  CB  
REMARK    6  A    between atoms: CB   and  CG  
REMARK    7  A    between atoms: CG   and  CD  
ROOT
ATOM     14  CA  GLU D 570     -18.033  -6.348 -13.375  1.00 32.92     0.160 C 
ENDROOT
BRANCH  14  15
ATOM     15  CB  GLU D 570     -19.500  -6.345 -13.794  1.00 32.92     0.043 C 
BRANCH  15  16
ATOM     16  CG  GLU D 570     -19.797  -6.247 -15.246  1.00 32.92     0.100 C 
BRANCH  16  17
ATOM     17  CD  GLU D 570     -20.655  -7.383 -15.751  1.00 32.92     0.185 C 
ATOM     18  OE1 GLU D 570     -20.567  -8.498 -15.202  1.00 32.92    -0.647 OA
ATOM     19  OE2 GLU D 570     -21.412  -7.160 -16.717  1.00 32.92    -0.647 OA
ENDBRANCH  16  17
ENDBRANCH  15  16
ENDBRANCH  14  15
END_RES GLU D 570
ENDMDL
MODEL 6
REMARK VINA RESULT:      -7.6      4.379      6.648
REMARK  5 active torsions:
REMARK  status: ('A' for Active; 'I' for Inactive)
REMARK    1  A    between atoms: C_5  and  C_8 
REMARK    2  A    between atoms: C_8  and  C_10 
REMARK    3  A    between atoms: C_8  and  O_16 
REMARK    4  A    between atoms: C_10  and  C_11 
REMARK    5  A    between atoms: C_11  and  C_12 
ROOT
HETATM    1  C   UNL     1     -21.118  -6.404  -4.791  1.00  0.00     0.058 C 
HETATM    2  C   UNL     1     -20.123  -7.283  -5.568  1.00  0.00     0.046 C 
ENDROOT
BRANCH   1   3
HETATM    3  C   UNL     1     -21.599  -7.078  -3.457  1.00  0.00     0.023 C 
HETATM    4  C   UNL     1     -22.067  -6.058  -2.389  1.00  0.00     0.035 C 
HETATM    5  C   UNL     1     -22.300  -6.654  -1.027  1.00  0.00    -0.024 C 
HETATM    6  C   UNL     1     -21.907  -7.888  -0.671  1.00  0.00    -0.087 C 
HETATM    7  C   UNL     1     -22.168  -8.446   0.699  1.00  0.00     0.043 C 
HETATM    8  C   UNL     1     -21.168  -8.788  -1.627  1.00  0.00     0.034 C 
HETATM    9  C   UNL     1     -20.573  -8.042  -2.830  1.00  0.00     0.012 C 
ENDBRANCH   1   3
BRANCH   1  10
HETATM   10  C   UNL     1     -22.286  -6.004  -5.742  1.00  0.00     0.041 C 
BRANCH  10  11
HETATM   11  C   UNL     1     -21.866  -4.985  -6.810  1.00  0.00     0.030 C 
BRANCH  11  12
HETATM   12  C   UNL     1     -22.989  -4.302  -7.544  1.00  0.00    -0.025 C 
HETATM   13  C   UNL     1     -23.008  -3.990  -8.855  1.00  0.00    -0.091 C 
HETATM   14  C   UNL     1     -21.816  -4.081  -9.767  1.00  0.00     0.042 C 
HETATM   15  C   UNL     1     -24.279  -3.555  -9.535  1.00  0.00     0.042 C 
ENDBRANCH  11  12
ENDBRANCH  10  11
ENDBRANCH   1  10
BRANCH   1  16
HETATM   16  O   UNL     1     -20.434  -5.187  -4.466  1.00  0.00    -0.390 OA
HETATM   17  H   UNL     1     -19.527  -5.399  -4.190  1.00  0.00     0.210 HD
ENDBRANCH   1  16
TORSDOF 5
BEGIN_RES ARG D 557
REMARK  4 active torsions:
REMARK  status: ('A' for Active; 'I' for Inactive)
REMARK    1  A    between atoms: CA   and  CB  
REMARK    2  A    between atoms: CB   and  CG  
REMARK    3  A    between atoms: CG   and  CD  
REMARK    4  A    between atoms: CD   and  NE  
REMARK       I    between atoms: NE   and  CZ  
REMARK       I    between atoms: CZ   and  NH1 
REMARK       I    between atoms: CZ   and  NH2 
ROOT
ATOM      1  CA  ARG D 557     -26.217   2.705 -17.014  1.00 35.49     0.159 C 
ENDROOT
BRANCH   1   2
ATOM      2  CB  ARG D 557     -26.789   1.319 -17.183  1.00 35.49     0.034 C 
BRANCH   2   3
ATOM      3  CG  ARG D 557     -25.840   0.201 -17.123  1.00 35.49     0.027 C 
BRANCH   3   4
ATOM      4  CD  ARG D 557     -24.757   0.432 -16.140  1.00 35.49     0.116 C 
BRANCH   4   5
ATOM      5  NE  ARG D 557     -24.866  -0.438 -14.999  1.00 35.49    -0.212 N 
ATOM      6  CZ  ARG D 557     -24.033  -1.406 -14.688  1.00 35.49     0.666 C 
ATOM      7  NH1 ARG D 557     -22.979  -1.699 -15.428  1.00 35.49    -0.235 N 
ATOM      8  NH2 ARG D 557     -24.275  -2.081 -13.602  1.00 35.49    -0.235 N 
ATOM      9  HH  ARG D 557     -22.799  -1.266 -16.145  1.00 35.49     0.174 HD
ATOM     10  HH  ARG D 557     -22.469  -2.339 -15.174  1.00 35.49     0.174 HD
ATOM     11  HH  ARG D 557     -24.958  -1.864 -13.140  1.00 35.49     0.174 HD
ATOM     12  HH  ARG D 557     -23.757  -2.710 -13.367  1.00 35.49     0.174 HD
ATOM     13  HE  ARG D 557     -25.556  -0.366 -14.507  1.00 35.49     0.178 HD
ENDBRANCH   4   5
ENDBRANCH   3   4
ENDBRANCH   2   3
ENDBRANCH   1   2
END_RES ARG D 557
BEGIN_RES GLU D 570
REMARK  3 active torsions:
REMARK  status: ('A' for Active; 'I' for Inactive)
REMARK    5  A    between atoms: CA   and  CB  
REMARK    6  A    between atoms: CB   and  CG  
REMARK    7  A    between atoms: CG   and  CD  
ROOT
ATOM     14  CA  GLU D 570     -18.033  -6.348 -13.375  1.00 32.92     0.160 C 
ENDROOT
BRANCH  14  15
ATOM     15  CB  GLU D 570     -19.500  -6.345 -13.794  1.00 32.92     0.043 C 
BRANCH  15  16
ATOM     16  CG  GLU D 570     -20.447  -5.557 -12.964  1.00 32.92     0.100 C 
BRANCH  16  17
ATOM     17  CD  GLU D 570     -21.630  -5.039 -13.750  1.00 32.92     0.185 C 
ATOM     18  OE1 GLU D 570     -21.569  -5.024 -14.994  1.00 32.92    -0.647 OA
ATOM     19  OE2 GLU D 570     -22.620  -4.629 -13.113  1.00 32.92    -0.647 OA
ENDBRANCH  16  17
ENDBRANCH  15  16
ENDBRANCH  14  15
END_RES GLU D 570
ENDMDL
MODEL 7
REMARK VINA RESULT:      -7.4      2.570      6.672
REMARK  5 active torsions:
REMARK  status: ('A' for Active; 'I' for Inactive)
REMARK    1  A    between atoms: C_5  and  C_8 
REMARK    2  A    between atoms: C_8  and  C_10 
REMARK    3  A    between atoms: C_8  and  O_16 
REMARK    4  A    between atoms: C_10  and  C_11 
REMARK    5  A    between atoms: C_11  and  C_12 
ROOT
HETATM    1  C   UNL     1     -25.474  -6.376 -16.009  1.00  0.00     0.058 C 
HETATM    2  C   UNL     1     -24.496  -6.934 -17.056  1.00  0.00     0.046 C 
ENDROOT
BRANCH   1   3
HETATM    3  C   UNL     1     -26.779  -5.793 -16.659  1.00  0.00     0.023 C 
HETATM    4  C   UNL     1     -27.096  -4.345 -16.207  1.00  0.00     0.035 C 
HETATM    5  C   UNL     1     -28.457  -3.854 -16.619  1.00  0.00    -0.024 C 
HETATM    6  C   UNL     1     -29.425  -4.647 -17.106  1.00  0.00    -0.087 C 
HETATM    7  C   UNL     1     -30.768  -4.112 -17.514  1.00  0.00     0.043 C 
HETATM    8  C   UNL     1     -29.224  -6.131 -17.267  1.00  0.00     0.034 C 
HETATM    9  C   UNL     1     -28.029  -6.674 -16.469  1.00  0.00     0.012 C 
ENDBRANCH   1   3
BRANCH   1  10
HETATM   10  C   UNL     1     -24.719  -5.355 -15.106  1.00  0.00     0.041 C 
BRANCH  10  11
HETATM   11  C   UNL     1     -23.747  -6.027 -14.127  1.00  0.00     0.030 C 
BRANCH  11  12
HETATM   12  C   UNL     1     -22.701  -5.130 -13.521  1.00  0.00    -0.025 C 
HETATM   13  C   UNL     1     -22.633  -4.746 -12.231  1.00  0.00    -0.091 C 
HETATM   14  C   UNL     1     -23.719  -4.980 -11.218  1.00  0.00     0.042 C 
HETATM   15  C   UNL     1     -21.404  -4.072 -11.681  1.00  0.00     0.042 C 
ENDBRANCH  11  12
ENDBRANCH  10  11
ENDBRANCH   1  10
BRANCH   1  16
HETATM   16  O   UNL     1     -25.840  -7.468 -15.155  1.00  0.00    -0.390 OA
HETATM   17  H   UNL     1     -25.035  -7.849 -14.767  1.00  0.00     0.210 HD
ENDBRANCH   1  16
TORSDOF 5
BEGIN_RES ARG D 557
REMARK  4 active torsions:
REMARK  status: ('A' for Active; 'I' for Inactive)
REMARK    1  A    between atoms: CA   and  CB  
REMARK    2  A    between atoms: CB   and  CG  
REMARK    3  A    between atoms: CG   and  CD  
REMARK    4  A    between atoms: CD   and  NE  
REMARK       I    between atoms: NE   and  CZ  
REMARK       I    between atoms: CZ   and  NH1 
REMARK       I    between atoms: CZ   and  NH2 
ROOT
ATOM      1  CA  ARG D 557     -26.217   2.705 -17.014  1.00 35.49     0.159 C 
ENDROOT
BRANCH   1   2
ATOM      2  CB  ARG D 557     -26.789   1.319 -17.183  1.00 35.49     0.034 C 
BRANCH   2   3
ATOM      3  CG  ARG D 557     -25.833   0.205 -17.183  1.00 35.49     0.027 C 
BRANCH   3   4
ATOM      4  CD  ARG D 557     -24.742   0.398 -16.201  1.00 35.49     0.116 C 
BRANCH   4   5
ATOM      5  NE  ARG D 557     -24.910  -0.428 -15.034  1.00 35.49    -0.212 N 
ATOM      6  CZ  ARG D 557     -24.115  -1.408 -14.666  1.00 35.49     0.666 C 
ATOM      7  NH1 ARG D 557     -23.050  -1.757 -15.363  1.00 35.49    -0.235 N 
ATOM      8  NH2 ARG D 557     -24.409  -2.037 -13.566  1.00 35.49    -0.235 N 
ATOM      9  HH  ARG D 557     -22.836  -1.355 -16.089  1.00 35.49     0.174 HD
ATOM     10  HH  ARG D 557     -22.567  -2.403 -15.073  1.00 35.49     0.174 HD
ATOM     11  HH  ARG D 557     -25.099  -1.785 -13.132  1.00 35.49     0.174 HD
ATOM     12  HH  ARG D 557     -23.918  -2.673 -13.294  1.00 35.49     0.174 HD
ATOM     13  HE  ARG D 557     -25.611  -0.319 -14.566  1.00 35.49     0.178 HD
ENDBRANCH   4   5
ENDBRANCH   3   4
ENDBRANCH   2   3
ENDBRANCH   1   2
END_RES ARG D 557
BEGIN_RES GLU D 570
REMARK  3 active torsions:
REMARK  status: ('A' for Active; 'I' for Inactive)
REMARK    5  A    between atoms: CA   and  CB  
REMARK    6  A    between atoms: CB   and  CG  
REMARK    7  A    between atoms: CG   and  CD  
ROOT
ATOM     14  CA  GLU D 570     -18.033  -6.348 -13.375  1.00 32.92     0.160 C 
ENDROOT
BRANCH  14  15
ATOM     15  CB  GLU D 570     -19.500  -6.345 -13.794  1.00 32.92     0.043 C 
BRANCH  15  16
ATOM     16  CG  GLU D 570     -20.089  -7.636 -14.233  1.00 32.92     0.100 C 
BRANCH  16  17
ATOM     17  CD  GLU D 570     -20.684  -7.572 -15.620  1.00 32.92     0.185 C 
ATOM     18  OE1 GLU D 570     -21.179  -8.603 -16.115  1.00 32.92    -0.647 OA
ATOM     19  OE2 GLU D 570     -20.639  -6.483 -16.226  1.00 32.92    -0.647 OA
ENDBRANCH  16  17
ENDBRANCH  15  16
ENDBRANCH  14  15
END_RES GLU D 570
ENDMDL
MODEL 8
REMARK VINA RESULT:      -7.3      4.228      7.811
REMARK  5 active torsions:
REMARK  status: ('A' for Active; 'I' for Inactive)
REMARK    1  A    between atoms: C_5  and  C_8 
REMARK    2  A    between atoms: C_8  and  C_10 
REMARK    3  A    between atoms: C_8  and  O_16 
REMARK    4  A    between atoms: C_10  and  C_11 
REMARK    5  A    between atoms: C_11  and  C_12 
ROOT
HETATM    1  C   UNL     1     -21.830  -6.395  -4.649  1.00  0.00     0.058 C 
HETATM    2  C   UNL     1     -21.558  -7.892  -4.871  1.00  0.00     0.046 C 
ENDROOT
BRANCH   1   3
HETATM    3  C   UNL     1     -21.331  -5.511  -5.847  1.00  0.00     0.023 C 
HETATM    4  C   UNL     1     -22.482  -4.958  -6.723  1.00  0.00     0.035 C 
HETATM    5  C   UNL     1     -22.029  -4.317  -8.007  1.00  0.00    -0.024 C 
HETATM    6  C   UNL     1     -20.783  -4.422  -8.498  1.00  0.00    -0.087 C 
HETATM    7  C   UNL     1     -20.371  -3.758  -9.781  1.00  0.00     0.043 C 
HETATM    8  C   UNL     1     -19.722  -5.225  -7.793  1.00  0.00     0.034 C 
HETATM    9  C   UNL     1     -20.287  -6.198  -6.748  1.00  0.00     0.012 C 
ENDBRANCH   1   3
BRANCH   1  10
HETATM   10  C   UNL     1     -21.234  -5.971  -3.273  1.00  0.00     0.041 C 
BRANCH  10  11
HETATM   11  C   UNL     1     -22.030  -6.522  -2.082  1.00  0.00     0.030 C 
BRANCH  11  12
HETATM   12  C   UNL     1     -21.326  -7.557  -1.245  1.00  0.00    -0.025 C 
HETATM   13  C   UNL     1     -21.855  -8.235  -0.207  1.00  0.00    -0.091 C 
HETATM   14  C   UNL     1     -23.180  -7.915   0.428  1.00  0.00     0.042 C 
HETATM   15  C   UNL     1     -21.155  -9.430   0.383  1.00  0.00     0.042 C 
ENDBRANCH  11  12
ENDBRANCH  10  11
ENDBRANCH   1  10
BRANCH   1  16
HETATM   16  O   UNL     1     -23.251  -6.242  -4.532  1.00  0.00    -0.390 OA
HETATM   17  H   UNL     1     -23.457  -5.302  -4.397  1.00  0.00     0.210 HD
ENDBRANCH   1  16
TORSDOF 5
BEGIN_RES ARG D 557
REMARK  4 active torsions:
REMARK  status: ('A' for Active; 'I' for Inactive)
REMARK    1  A    between atoms: CA   and  CB  
REMARK    2  A    between atoms: CB   and  CG  
REMARK    3  A    between atoms: CG   and  CD  
REMARK    4  A    between atoms: CD   and  NE  
REMARK       I    between atoms: NE   and  CZ  
REMARK       I    between atoms: CZ   and  NH1 
REMARK       I    between atoms: CZ   and  NH2 
ROOT
ATOM      1  CA  ARG D 557     -26.217   2.705 -17.014  1.00 35.49     0.159 C 
ENDROOT
BRANCH   1   2
ATOM      2  CB  ARG D 557     -26.789   1.319 -17.183  1.00 35.49     0.034 C 
BRANCH   2   3
ATOM      3  CG  ARG D 557     -25.963   0.201 -16.711  1.00 35.49     0.027 C 
BRANCH   3   4
ATOM      4  CD  ARG D 557     -26.763  -0.848 -16.040  1.00 35.49     0.116 C 
BRANCH   4   5
ATOM      5  NE  ARG D 557     -28.015  -1.087 -16.710  1.00 35.49    -0.212 N 
ATOM      6  CZ  ARG D 557     -28.539  -2.266 -16.960  1.00 35.49     0.666 C 
ATOM      7  NH1 ARG D 557     -27.942  -3.394 -16.623  1.00 35.49    -0.235 N 
ATOM      8  NH2 ARG D 557     -29.694  -2.294 -17.559  1.00 35.49    -0.235 N 
ATOM      9  HH  ARG D 557     -27.182  -3.399 -16.226  1.00 35.49     0.174 HD
ATOM     10  HH  ARG D 557     -28.333  -4.133 -16.809  1.00 35.49     0.174 HD
ATOM     11  HH  ARG D 557     -30.060  -1.550 -17.758  1.00 35.49     0.174 HD
ATOM     12  HH  ARG D 557     -30.066  -3.036 -17.734  1.00 35.49     0.174 HD
ATOM     13  HE  ARG D 557     -28.432  -0.418 -17.027  1.00 35.49     0.178 HD
ENDBRANCH   4   5
ENDBRANCH   3   4
ENDBRANCH   2   3
ENDBRANCH   1   2
END_RES ARG D 557
BEGIN_RES GLU D 570
REMARK  3 active torsions:
REMARK  status: ('A' for Active; 'I' for Inactive)
REMARK    5  A    between atoms: CA   and  CB  
REMARK    6  A    between atoms: CB   and  CG  
REMARK    7  A    between atoms: CG   and  CD  
ROOT
ATOM     14  CA  GLU D 570     -18.033  -6.348 -13.375  1.00 32.92     0.160 C 
ENDROOT
BRANCH  14  15
ATOM     15  CB  GLU D 570     -19.500  -6.345 -13.794  1.00 32.92     0.043 C 
BRANCH  15  16
ATOM     16  CG  GLU D 570     -20.451  -5.576 -12.951  1.00 32.92     0.100 C 
BRANCH  16  17
ATOM     17  CD  GLU D 570     -21.697  -5.159 -13.698  1.00 32.92     0.185 C 
ATOM     18  OE1 GLU D 570     -21.664  -5.095 -14.941  1.00 32.92    -0.647 OA
ATOM     19  OE2 GLU D 570     -22.712  -4.878 -13.030  1.00 32.92    -0.647 OA
ENDBRANCH  16  17
ENDBRANCH  15  16
ENDBRANCH  14  15
END_RES GLU D 570
ENDMDL
MODEL 9
REMARK VINA RESULT:      -7.2      7.192      9.857
REMARK  5 active torsions:
REMARK  status: ('A' for Active; 'I' for Inactive)
REMARK    1  A    between atoms: C_5  and  C_8 
REMARK    2  A    between atoms: C_8  and  C_10 
REMARK    3  A    between atoms: C_8  and  O_16 
REMARK    4  A    between atoms: C_10  and  C_11 
REMARK    5  A    between atoms: C_11  and  C_12 
ROOT
HETATM    1  C   UNL     1     -21.980  -8.706   0.198  1.00  0.00     0.058 C 
HETATM    2  C   UNL     1     -23.301  -8.127   0.734  1.00  0.00     0.046 C 
ENDROOT
BRANCH   1   3
HETATM    3  C   UNL     1     -21.457  -7.935  -1.065  1.00  0.00     0.023 C 
HETATM    4  C   UNL     1     -22.238  -6.630  -1.355  1.00  0.00     0.035 C 
HETATM    5  C   UNL     1     -21.922  -6.003  -2.686  1.00  0.00    -0.024 C 
HETATM    6  C   UNL     1     -21.230  -6.618  -3.659  1.00  0.00    -0.087 C 
HETATM    7  C   UNL     1     -20.929  -5.951  -4.970  1.00  0.00     0.043 C 
HETATM    8  C   UNL     1     -20.719  -8.026  -3.495  1.00  0.00     0.034 C 
HETATM    9  C   UNL     1     -21.393  -8.789  -2.346  1.00  0.00     0.012 C 
ENDBRANCH   1   3
BRANCH   1  10
HETATM   10  C   UNL     1     -22.158 -10.237  -0.036  1.00  0.00     0.041 C 
BRANCH  10  11
HETATM   11  C   UNL     1     -23.630 -10.661  -0.119  1.00  0.00     0.030 C 
BRANCH  11  12
HETATM   12  C   UNL     1     -23.904 -11.940  -0.866  1.00  0.00    -0.025 C 
HETATM   13  C   UNL     1     -23.857 -13.186  -0.354  1.00  0.00    -0.091 C 
HETATM   14  C   UNL     1     -23.313 -13.524   1.006  1.00  0.00     0.042 C 
HETATM   15  C   UNL     1     -24.406 -14.363  -1.115  1.00  0.00     0.042 C 
ENDBRANCH  11  12
ENDBRANCH  10  11
ENDBRANCH   1  10
BRANCH   1  16
HETATM   16  O   UNL     1     -21.011  -8.574   1.246  1.00  0.00    -0.390 OA
HETATM   17  H   UNL     1     -21.278  -9.132   1.996  1.00  0.00     0.210 HD
ENDBRANCH   1  16
TORSDOF 5
BEGIN_RES ARG D 557
REMARK  4 active torsions:
REMARK  status: ('A' for Active; 'I' for Inactive)
REMARK    1  A    between atoms: CA   and  CB  
REMARK    2  A    between atoms: CB   and  CG  
REMARK    3  A    between atoms: CG   and  CD  
REMARK    4  A    between atoms: CD   and  NE  
REMARK       I    between atoms: NE   and  CZ  
REMARK       I    between atoms: CZ   and  NH1 
REMARK       I    between atoms: CZ   and  NH2 
ROOT
ATOM      1  CA  ARG D 557     -26.217   2.705 -17.014  1.00 35.49     0.159 C 
ENDROOT
BRANCH   1   2
ATOM      2  CB  ARG D 557     -26.789   1.319 -17.183  1.00 35.49     0.034 C 
BRANCH   2   3
ATOM      3  CG  ARG D 557     -28.220   1.156 -16.899  1.00 35.49     0.027 C 
BRANCH   3   4
ATOM      4  CD  ARG D 557     -28.605  -0.266 -16.742  1.00 35.49     0.116 C 
BRANCH   4   5
ATOM      5  NE  ARG D 557     -27.607  -1.023 -16.034  1.00 35.49    -0.212 N 
ATOM      6  CZ  ARG D 557     -27.438  -2.325 -16.104  1.00 35.49     0.666 C 
ATOM      7  NH1 ARG D 557     -28.204  -3.100 -16.848  1.00 35.49    -0.235 N 
ATOM      8  NH2 ARG D 557     -26.467  -2.842 -15.408  1.00 35.49    -0.235 N 
ATOM      9  HH  ARG D 557     -28.848  -2.781 -17.315  1.00 35.49     0.174 HD
ATOM     10  HH  ARG D 557     -28.045  -3.942 -16.856  1.00 35.49     0.174 HD
ATOM     11  HH  ARG D 557     -25.984  -2.315 -14.942  1.00 35.49     0.174 HD
ATOM     12  HH  ARG D 557     -26.325  -3.677 -15.431  1.00 35.49     0.174 HD
ATOM     13  HE  ARG D 557     -27.116  -0.612 -15.475  1.00 35.49     0.178 HD
ENDBRANCH   4   5
ENDBRANCH   3   4
ENDBRANCH   2   3
ENDBRANCH   1   2
END_RES ARG D 557
BEGIN_RES GLU D 570
REMARK  3 active torsions:
REMARK  status: ('A' for Active; 'I' for Inactive)
REMARK    5  A    between atoms: CA   and  CB  
REMARK    6  A    between atoms: CB   and  CG  
REMARK    7  A    between atoms: CG   and  CD  
ROOT
ATOM     14  CA  GLU D 570     -18.033  -6.348 -13.375  1.00 32.92     0.160 C 
ENDROOT
BRANCH  14  15
ATOM     15  CB  GLU D 570     -19.500  -6.345 -13.794  1.00 32.92     0.043 C 
BRANCH  15  16
ATOM     16  CG  GLU D 570     -20.443  -5.535 -12.980  1.00 32.92     0.100 C 
BRANCH  16  17
ATOM     17  CD  GLU D 570     -21.740  -5.243 -13.698  1.00 32.92     0.185 C 
ATOM     18  OE1 GLU D 570     -22.293  -4.140 -13.524  1.00 32.92    -0.647 OA
ATOM     19  OE2 GLU D 570     -22.217  -6.133 -14.428  1.00 32.92    -0.647 OA
ENDBRANCH  16  17
ENDBRANCH  15  16
ENDBRANCH  14  15
END_RES GLU D 570
ENDMDL
