MODEL 1
REMARK VINA RESULT:      -1.3      0.000      0.000
REMARK  7 active torsions:
REMARK  status: ('A' for Active; 'I' for Inactive)
REMARK    1  A    between atoms: C_4  and  N_14 
REMARK    2  A    between atoms: C_5  and  O_12 
REMARK    3  A    between atoms: C_7  and  S_8 
REMARK    4  A    between atoms: S_8  and  O_10 
REMARK    5  A    between atoms: N_16  and  C_18 
REMARK    6  A    between atoms: C_19  and  O_32 
REMARK    7  A    between atoms: C_26  and  S_28 
ROOT
HETATM    1 NA   UNL     3     -32.366  -8.533   4.528  1.00  0.00     0.000 Na
ENDROOT
TORSDOF 7
BEGIN_RES ARG D 557
REMARK  4 active torsions:
REMARK  status: ('A' for Active; 'I' for Inactive)
REMARK    1  A    between atoms: CA   and  CB  
REMARK    2  A    between atoms: CB   and  CG  
REMARK    3  A    between atoms: CG   and  CD  
REMARK    4  A    between atoms: CD   and  NE  
REMARK       I    between atoms: NE   and  CZ  
REMARK       I    between atoms: CZ   and  NH1 
REMARK       I    between atoms: CZ   and  NH2 
ROOT
ATOM      1  CA  ARG D 557     -26.217   2.705 -17.014  1.00 35.49     0.159 C 
ENDROOT
BRANCH   1   2
ATOM      2  CB  ARG D 557     -26.789   1.319 -17.183  1.00 35.49     0.034 C 
BRANCH   2   3
ATOM      3  CG  ARG D 557     -25.836   0.203 -17.156  1.00 35.49     0.027 C 
BRANCH   3   4
ATOM      4  CD  ARG D 557     -24.767   0.398 -16.150  1.00 35.49     0.116 C 
BRANCH   4   5
ATOM      5  NE  ARG D 557     -24.935  -0.459 -15.007  1.00 35.49    -0.212 N 
ATOM      6  CZ  ARG D 557     -24.125  -1.431 -14.649  1.00 35.49     0.666 C 
ATOM      7  NH1 ARG D 557     -23.041  -1.740 -15.337  1.00 35.49    -0.235 N 
ATOM      8  NH2 ARG D 557     -24.422  -2.093 -13.569  1.00 35.49    -0.235 N 
ATOM      9  HH  ARG D 557     -22.825  -1.315 -16.050  1.00 35.49     0.174 HD
ATOM     10  HH  ARG D 557     -22.549  -2.381 -15.055  1.00 35.49     0.174 HD
ATOM     11  HH  ARG D 557     -25.124  -1.867 -13.141  1.00 35.49     0.174 HD
ATOM     12  HH  ARG D 557     -23.921  -2.725 -13.305  1.00 35.49     0.174 HD
ATOM     13  HE  ARG D 557     -25.646  -0.378 -14.547  1.00 35.49     0.178 HD
ENDBRANCH   4   5
ENDBRANCH   3   4
ENDBRANCH   2   3
ENDBRANCH   1   2
END_RES ARG D 557
BEGIN_RES GLU D 570
REMARK  3 active torsions:
REMARK  status: ('A' for Active; 'I' for Inactive)
REMARK    5  A    between atoms: CA   and  CB  
REMARK    6  A    between atoms: CB   and  CG  
REMARK    7  A    between atoms: CG   and  CD  
ROOT
ATOM     14  CA  GLU D 570     -18.033  -6.348 -13.375  1.00 32.92     0.160 C 
ENDROOT
BRANCH  14  15
ATOM     15  CB  GLU D 570     -19.500  -6.345 -13.794  1.00 32.92     0.043 C 
BRANCH  15  16
ATOM     16  CG  GLU D 570     -20.439  -5.517 -12.993  1.00 32.92     0.100 C 
BRANCH  16  17
ATOM     17  CD  GLU D 570     -21.583  -4.965 -13.812  1.00 32.92     0.185 C 
ATOM     18  OE1 GLU D 570     -22.403  -4.202 -13.267  1.00 32.92    -0.647 OA
ATOM     19  OE2 GLU D 570     -21.668  -5.313 -15.006  1.00 32.92    -0.647 OA
ENDBRANCH  16  17
ENDBRANCH  15  16
ENDBRANCH  14  15
END_RES GLU D 570
ENDMDL
MODEL 2
REMARK VINA RESULT:      -1.3      3.727      3.816
REMARK  7 active torsions:
REMARK  status: ('A' for Active; 'I' for Inactive)
REMARK    1  A    between atoms: C_4  and  N_14 
REMARK    2  A    between atoms: C_5  and  O_12 
REMARK    3  A    between atoms: C_7  and  S_8 
REMARK    4  A    between atoms: S_8  and  O_10 
REMARK    5  A    between atoms: N_16  and  C_18 
REMARK    6  A    between atoms: C_19  and  O_32 
REMARK    7  A    between atoms: C_26  and  S_28 
ROOT
HETATM    1 NA   UNL     3     -25.246  -5.279  -4.950  1.00  0.00     0.000 Na
ENDROOT
TORSDOF 7
BEGIN_RES ARG D 557
REMARK  4 active torsions:
REMARK  status: ('A' for Active; 'I' for Inactive)
REMARK    1  A    between atoms: CA   and  CB  
REMARK    2  A    between atoms: CB   and  CG  
REMARK    3  A    between atoms: CG   and  CD  
REMARK    4  A    between atoms: CD   and  NE  
REMARK       I    between atoms: NE   and  CZ  
REMARK       I    between atoms: CZ   and  NH1 
REMARK       I    between atoms: CZ   and  NH2 
ROOT
ATOM      1  CA  ARG D 557     -26.217   2.705 -17.014  1.00 35.49     0.159 C 
ENDROOT
BRANCH   1   2
ATOM      2  CB  ARG D 557     -26.789   1.319 -17.183  1.00 35.49     0.034 C 
BRANCH   2   3
ATOM      3  CG  ARG D 557     -25.836   0.203 -17.154  1.00 35.49     0.027 C 
BRANCH   3   4
ATOM      4  CD  ARG D 557     -24.748   0.415 -16.172  1.00 35.49     0.116 C 
BRANCH   4   5
ATOM      5  NE  ARG D 557     -24.889  -0.431 -15.016  1.00 35.49    -0.212 N 
ATOM      6  CZ  ARG D 557     -24.073  -1.402 -14.671  1.00 35.49     0.666 C 
ATOM      7  NH1 ARG D 557     -23.010  -1.722 -15.385  1.00 35.49    -0.235 N 
ATOM      8  NH2 ARG D 557     -24.344  -2.053 -13.577  1.00 35.49    -0.235 N 
ATOM      9  HH  ARG D 557     -22.811  -1.305 -16.107  1.00 35.49     0.174 HD
ATOM     10  HH  ARG D 557     -22.512  -2.363 -15.109  1.00 35.49     0.174 HD
ATOM     11  HH  ARG D 557     -25.034  -1.820 -13.133  1.00 35.49     0.174 HD
ATOM     12  HH  ARG D 557     -23.839  -2.684 -13.320  1.00 35.49     0.174 HD
ATOM     13  HE  ARG D 557     -25.587  -0.342 -14.539  1.00 35.49     0.178 HD
ENDBRANCH   4   5
ENDBRANCH   3   4
ENDBRANCH   2   3
ENDBRANCH   1   2
END_RES ARG D 557
BEGIN_RES GLU D 570
REMARK  3 active torsions:
REMARK  status: ('A' for Active; 'I' for Inactive)
REMARK    5  A    between atoms: CA   and  CB  
REMARK    6  A    between atoms: CB   and  CG  
REMARK    7  A    between atoms: CG   and  CD  
ROOT
ATOM     14  CA  GLU D 570     -18.033  -6.348 -13.375  1.00 32.92     0.160 C 
ENDROOT
BRANCH  14  15
ATOM     15  CB  GLU D 570     -19.500  -6.345 -13.794  1.00 32.92     0.043 C 
BRANCH  15  16
ATOM     16  CG  GLU D 570     -20.444  -5.542 -12.975  1.00 32.92     0.100 C 
BRANCH  16  17
ATOM     17  CD  GLU D 570     -21.745  -5.253 -13.688  1.00 32.92     0.185 C 
ATOM     18  OE1 GLU D 570     -22.252  -6.138 -14.403  1.00 32.92    -0.647 OA
ATOM     19  OE2 GLU D 570     -22.253  -4.124 -13.544  1.00 32.92    -0.647 OA
ENDBRANCH  16  17
ENDBRANCH  15  16
ENDBRANCH  14  15
END_RES GLU D 570
ENDMDL
MODEL 3
REMARK VINA RESULT:      -1.2      4.562      4.712
REMARK  7 active torsions:
REMARK  status: ('A' for Active; 'I' for Inactive)
REMARK    1  A    between atoms: C_4  and  N_14 
REMARK    2  A    between atoms: C_5  and  O_12 
REMARK    3  A    between atoms: C_7  and  S_8 
REMARK    4  A    between atoms: S_8  and  O_10 
REMARK    5  A    between atoms: N_16  and  C_18 
REMARK    6  A    between atoms: C_19  and  O_32 
REMARK    7  A    between atoms: C_26  and  S_28 
ROOT
HETATM    1 NA   UNL     3     -27.267  -5.723  -9.124  1.00  0.00     0.000 Na
ENDROOT
TORSDOF 7
BEGIN_RES ARG D 557
REMARK  4 active torsions:
REMARK  status: ('A' for Active; 'I' for Inactive)
REMARK    1  A    between atoms: CA   and  CB  
REMARK    2  A    between atoms: CB   and  CG  
REMARK    3  A    between atoms: CG   and  CD  
REMARK    4  A    between atoms: CD   and  NE  
REMARK       I    between atoms: NE   and  CZ  
REMARK       I    between atoms: CZ   and  NH1 
REMARK       I    between atoms: CZ   and  NH2 
ROOT
ATOM      1  CA  ARG D 557     -26.217   2.705 -17.014  1.00 35.49     0.159 C 
ENDROOT
BRANCH   1   2
ATOM      2  CB  ARG D 557     -26.789   1.319 -17.183  1.00 35.49     0.034 C 
BRANCH   2   3
ATOM      3  CG  ARG D 557     -25.862   0.195 -17.001  1.00 35.49     0.027 C 
BRANCH   3   4
ATOM      4  CD  ARG D 557     -26.295  -0.724 -15.924  1.00 35.49     0.116 C 
BRANCH   4   5
ATOM      5  NE  ARG D 557     -25.269  -0.921 -14.934  1.00 35.49    -0.212 N 
ATOM      6  CZ  ARG D 557     -24.974  -2.060 -14.349  1.00 35.49     0.666 C 
ATOM      7  NH1 ARG D 557     -25.624  -3.179 -14.608  1.00 35.49    -0.235 N 
ATOM      8  NH2 ARG D 557     -23.997  -2.058 -13.489  1.00 35.49    -0.235 N 
ATOM      9  HH  ARG D 557     -26.269  -3.204 -15.172  1.00 35.49     0.174 HD
ATOM     10  HH  ARG D 557     -25.386  -3.893 -14.198  1.00 35.49     0.174 HD
ATOM     11  HH  ARG D 557     -23.590  -1.322 -13.347  1.00 35.49     0.174 HD
ATOM     12  HH  ARG D 557     -23.776  -2.775 -13.094  1.00 35.49     0.174 HD
ATOM     13  HE  ARG D 557     -24.848  -0.237 -14.654  1.00 35.49     0.178 HD
ENDBRANCH   4   5
ENDBRANCH   3   4
ENDBRANCH   2   3
ENDBRANCH   1   2
END_RES ARG D 557
BEGIN_RES GLU D 570
REMARK  3 active torsions:
REMARK  status: ('A' for Active; 'I' for Inactive)
REMARK    5  A    between atoms: CA   and  CB  
REMARK    6  A    between atoms: CB   and  CG  
REMARK    7  A    between atoms: CG   and  CD  
ROOT
ATOM     14  CA  GLU D 570     -18.033  -6.348 -13.375  1.00 32.92     0.160 C 
ENDROOT
BRANCH  14  15
ATOM     15  CB  GLU D 570     -19.500  -6.345 -13.794  1.00 32.92     0.043 C 
BRANCH  15  16
ATOM     16  CG  GLU D 570     -20.447  -5.557 -12.964  1.00 32.92     0.100 C 
BRANCH  16  17
ATOM     17  CD  GLU D 570     -21.668  -5.105 -13.731  1.00 32.92     0.185 C 
ATOM     18  OE1 GLU D 570     -21.616  -5.053 -14.975  1.00 32.92    -0.647 OA
ATOM     19  OE2 GLU D 570     -22.682  -4.784 -13.080  1.00 32.92    -0.647 OA
ENDBRANCH  16  17
ENDBRANCH  15  16
ENDBRANCH  14  15
END_RES GLU D 570
ENDMDL
MODEL 4
REMARK VINA RESULT:      -1.1     10.949     10.982
REMARK  7 active torsions:
REMARK  status: ('A' for Active; 'I' for Inactive)
REMARK    1  A    between atoms: C_4  and  N_14 
REMARK    2  A    between atoms: C_5  and  O_12 
REMARK    3  A    between atoms: C_7  and  S_8 
REMARK    4  A    between atoms: S_8  and  O_10 
REMARK    5  A    between atoms: N_16  and  C_18 
REMARK    6  A    between atoms: C_19  and  O_32 
REMARK    7  A    between atoms: C_26  and  S_28 
ROOT
HETATM    1 NA   UNL     3      -9.465   8.960 -17.537  1.00  0.00     0.000 Na
ENDROOT
TORSDOF 7
BEGIN_RES ARG D 557
REMARK  4 active torsions:
REMARK  status: ('A' for Active; 'I' for Inactive)
REMARK    1  A    between atoms: CA   and  CB  
REMARK    2  A    between atoms: CB   and  CG  
REMARK    3  A    between atoms: CG   and  CD  
REMARK    4  A    between atoms: CD   and  NE  
REMARK       I    between atoms: NE   and  CZ  
REMARK       I    between atoms: CZ   and  NH1 
REMARK       I    between atoms: CZ   and  NH2 
ROOT
ATOM      1  CA  ARG D 557     -26.217   2.705 -17.014  1.00 35.49     0.159 C 
ENDROOT
BRANCH   1   2
ATOM      2  CB  ARG D 557     -26.789   1.319 -17.183  1.00 35.49     0.034 C 
BRANCH   2   3
ATOM      3  CG  ARG D 557     -25.835   0.204 -17.165  1.00 35.49     0.027 C 
BRANCH   3   4
ATOM      4  CD  ARG D 557     -24.752   0.403 -16.174  1.00 35.49     0.116 C 
BRANCH   4   5
ATOM      5  NE  ARG D 557     -24.910  -0.445 -15.022  1.00 35.49    -0.212 N 
ATOM      6  CZ  ARG D 557     -24.099  -1.416 -14.666  1.00 35.49     0.666 C 
ATOM      7  NH1 ARG D 557     -23.024  -1.734 -15.365  1.00 35.49    -0.235 N 
ATOM      8  NH2 ARG D 557     -24.385  -2.069 -13.578  1.00 35.49    -0.235 N 
ATOM      9  HH  ARG D 557     -22.816  -1.317 -16.083  1.00 35.49     0.174 HD
ATOM     10  HH  ARG D 557     -22.531  -2.375 -15.083  1.00 35.49     0.174 HD
ATOM     11  HH  ARG D 557     -25.081  -1.837 -13.143  1.00 35.49     0.174 HD
ATOM     12  HH  ARG D 557     -23.883  -2.700 -13.314  1.00 35.49     0.174 HD
ATOM     13  HE  ARG D 557     -25.615  -0.357 -14.555  1.00 35.49     0.178 HD
ENDBRANCH   4   5
ENDBRANCH   3   4
ENDBRANCH   2   3
ENDBRANCH   1   2
END_RES ARG D 557
BEGIN_RES GLU D 570
REMARK  3 active torsions:
REMARK  status: ('A' for Active; 'I' for Inactive)
REMARK    5  A    between atoms: CA   and  CB  
REMARK    6  A    between atoms: CB   and  CG  
REMARK    7  A    between atoms: CG   and  CD  
ROOT
ATOM     14  CA  GLU D 570     -18.033  -6.348 -13.375  1.00 32.92     0.160 C 
ENDROOT
BRANCH  14  15
ATOM     15  CB  GLU D 570     -19.500  -6.345 -13.794  1.00 32.92     0.043 C 
BRANCH  15  16
ATOM     16  CG  GLU D 570     -20.442  -5.533 -12.982  1.00 32.92     0.100 C 
BRANCH  16  17
ATOM     17  CD  GLU D 570     -21.742  -5.247 -13.697  1.00 32.92     0.185 C 
ATOM     18  OE1 GLU D 570     -22.209  -6.106 -14.469  1.00 32.92    -0.647 OA
ATOM     19  OE2 GLU D 570     -22.290  -4.146 -13.496  1.00 32.92    -0.647 OA
ENDBRANCH  16  17
ENDBRANCH  15  16
ENDBRANCH  14  15
END_RES GLU D 570
ENDMDL
MODEL 5
REMARK VINA RESULT:      -1.1      6.909      6.909
REMARK  7 active torsions:
REMARK  status: ('A' for Active; 'I' for Inactive)
REMARK    1  A    between atoms: C_4  and  N_14 
REMARK    2  A    between atoms: C_5  and  O_12 
REMARK    3  A    between atoms: C_7  and  S_8 
REMARK    4  A    between atoms: S_8  and  O_10 
REMARK    5  A    between atoms: N_16  and  C_18 
REMARK    6  A    between atoms: C_19  and  O_32 
REMARK    7  A    between atoms: C_26  and  S_28 
ROOT
HETATM    1 NA   UNL     3     -11.816   0.809   0.705  1.00  0.00     0.000 Na
ENDROOT
TORSDOF 7
BEGIN_RES ARG D 557
REMARK  4 active torsions:
REMARK  status: ('A' for Active; 'I' for Inactive)
REMARK    1  A    between atoms: CA   and  CB  
REMARK    2  A    between atoms: CB   and  CG  
REMARK    3  A    between atoms: CG   and  CD  
REMARK    4  A    between atoms: CD   and  NE  
REMARK       I    between atoms: NE   and  CZ  
REMARK       I    between atoms: CZ   and  NH1 
REMARK       I    between atoms: CZ   and  NH2 
ROOT
ATOM      1  CA  ARG D 557     -26.217   2.705 -17.014  1.00 35.49     0.159 C 
ENDROOT
BRANCH   1   2
ATOM      2  CB  ARG D 557     -26.789   1.319 -17.183  1.00 35.49     0.034 C 
BRANCH   2   3
ATOM      3  CG  ARG D 557     -25.835   0.203 -17.159  1.00 35.49     0.027 C 
BRANCH   3   4
ATOM      4  CD  ARG D 557     -24.770   0.394 -16.148  1.00 35.49     0.116 C 
BRANCH   4   5
ATOM      5  NE  ARG D 557     -24.936  -0.477 -15.014  1.00 35.49    -0.212 N 
ATOM      6  CZ  ARG D 557     -24.120  -1.447 -14.665  1.00 35.49     0.666 C 
ATOM      7  NH1 ARG D 557     -23.033  -1.741 -15.353  1.00 35.49    -0.235 N 
ATOM      8  NH2 ARG D 557     -24.416  -2.123 -13.593  1.00 35.49    -0.235 N 
ATOM      9  HH  ARG D 557     -22.817  -1.308 -16.060  1.00 35.49     0.174 HD
ATOM     10  HH  ARG D 557     -22.537  -2.383 -15.076  1.00 35.49     0.174 HD
ATOM     11  HH  ARG D 557     -25.121  -1.906 -13.165  1.00 35.49     0.174 HD
ATOM     12  HH  ARG D 557     -23.912  -2.754 -13.334  1.00 35.49     0.174 HD
ATOM     13  HE  ARG D 557     -25.648  -0.405 -14.556  1.00 35.49     0.178 HD
ENDBRANCH   4   5
ENDBRANCH   3   4
ENDBRANCH   2   3
ENDBRANCH   1   2
END_RES ARG D 557
BEGIN_RES GLU D 570
REMARK  3 active torsions:
REMARK  status: ('A' for Active; 'I' for Inactive)
REMARK    5  A    between atoms: CA   and  CB  
REMARK    6  A    between atoms: CB   and  CG  
REMARK    7  A    between atoms: CG   and  CD  
ROOT
ATOM     14  CA  GLU D 570     -18.033  -6.348 -13.375  1.00 32.92     0.160 C 
ENDROOT
BRANCH  14  15
ATOM     15  CB  GLU D 570     -19.500  -6.345 -13.794  1.00 32.92     0.043 C 
BRANCH  15  16
ATOM     16  CG  GLU D 570     -20.437  -5.507 -13.001  1.00 32.92     0.100 C 
BRANCH  16  17
ATOM     17  CD  GLU D 570     -21.721  -5.203 -13.736  1.00 32.92     0.185 C 
ATOM     18  OE1 GLU D 570     -22.357  -4.172 -13.442  1.00 32.92    -0.647 OA
ATOM     19  OE2 GLU D 570     -22.104  -6.012 -14.604  1.00 32.92    -0.647 OA
ENDBRANCH  16  17
ENDBRANCH  15  16
ENDBRANCH  14  15
END_RES GLU D 570
ENDMDL
MODEL 6
REMARK VINA RESULT:      -1.1      2.963      3.630
REMARK  7 active torsions:
REMARK  status: ('A' for Active; 'I' for Inactive)
REMARK    1  A    between atoms: C_4  and  N_14 
REMARK    2  A    between atoms: C_5  and  O_12 
REMARK    3  A    between atoms: C_7  and  S_8 
REMARK    4  A    between atoms: S_8  and  O_10 
REMARK    5  A    between atoms: N_16  and  C_18 
REMARK    6  A    between atoms: C_19  and  O_32 
REMARK    7  A    between atoms: C_26  and  S_28 
ROOT
HETATM    1 NA   UNL     3     -32.396  -8.550   4.546  1.00  0.00     0.000 Na
ENDROOT
TORSDOF 7
BEGIN_RES ARG D 557
REMARK  4 active torsions:
REMARK  status: ('A' for Active; 'I' for Inactive)
REMARK    1  A    between atoms: CA   and  CB  
REMARK    2  A    between atoms: CB   and  CG  
REMARK    3  A    between atoms: CG   and  CD  
REMARK    4  A    between atoms: CD   and  NE  
REMARK       I    between atoms: NE   and  CZ  
REMARK       I    between atoms: CZ   and  NH1 
REMARK       I    between atoms: CZ   and  NH2 
ROOT
ATOM      1  CA  ARG D 557     -26.217   2.705 -17.014  1.00 35.49     0.159 C 
ENDROOT
BRANCH   1   2
ATOM      2  CB  ARG D 557     -26.789   1.319 -17.183  1.00 35.49     0.034 C 
BRANCH   2   3
ATOM      3  CG  ARG D 557     -28.232   1.226 -17.436  1.00 35.49     0.027 C 
BRANCH   3   4
ATOM      4  CD  ARG D 557     -28.911   0.301 -16.501  1.00 35.49     0.116 C 
BRANCH   4   5
ATOM      5  NE  ARG D 557     -29.274  -0.940 -17.133  1.00 35.49    -0.212 N 
ATOM      6  CZ  ARG D 557     -28.628  -2.079 -17.018  1.00 35.49     0.666 C 
ATOM      7  NH1 ARG D 557     -27.530  -2.201 -16.294  1.00 35.49    -0.235 N 
ATOM      8  NH2 ARG D 557     -29.113  -3.110 -17.646  1.00 35.49    -0.235 N 
ATOM      9  HH  ARG D 557     -27.195  -1.536 -15.871  1.00 35.49     0.174 HD
ATOM     10  HH  ARG D 557     -27.153  -2.970 -16.254  1.00 35.49     0.174 HD
ATOM     11  HH  ARG D 557     -29.827  -3.003 -18.100  1.00 35.49     0.174 HD
ATOM     12  HH  ARG D 557     -28.726  -3.863 -17.592  1.00 35.49     0.174 HD
ATOM     13  HE  ARG D 557     -29.928  -0.935 -17.677  1.00 35.49     0.178 HD
ENDBRANCH   4   5
ENDBRANCH   3   4
ENDBRANCH   2   3
ENDBRANCH   1   2
END_RES ARG D 557
BEGIN_RES GLU D 570
REMARK  3 active torsions:
REMARK  status: ('A' for Active; 'I' for Inactive)
REMARK    5  A    between atoms: CA   and  CB  
REMARK    6  A    between atoms: CB   and  CG  
REMARK    7  A    between atoms: CG   and  CD  
ROOT
ATOM     14  CA  GLU D 570     -18.033  -6.348 -13.375  1.00 32.92     0.160 C 
ENDROOT
BRANCH  14  15
ATOM     15  CB  GLU D 570     -19.500  -6.345 -13.794  1.00 32.92     0.043 C 
BRANCH  15  16
ATOM     16  CG  GLU D 570     -20.447  -5.554 -12.966  1.00 32.92     0.100 C 
BRANCH  16  17
ATOM     17  CD  GLU D 570     -21.713  -5.189 -13.705  1.00 32.92     0.185 C 
ATOM     18  OE1 GLU D 570     -21.907  -5.660 -14.843  1.00 32.92    -0.647 OA
ATOM     19  OE2 GLU D 570     -22.512  -4.412 -13.148  1.00 32.92    -0.647 OA
ENDBRANCH  16  17
ENDBRANCH  15  16
ENDBRANCH  14  15
END_RES GLU D 570
ENDMDL
MODEL 7
REMARK VINA RESULT:      -1.1      5.104      5.104
REMARK  7 active torsions:
REMARK  status: ('A' for Active; 'I' for Inactive)
REMARK    1  A    between atoms: C_4  and  N_14 
REMARK    2  A    between atoms: C_5  and  O_12 
REMARK    3  A    between atoms: C_7  and  S_8 
REMARK    4  A    between atoms: S_8  and  O_10 
REMARK    5  A    between atoms: N_16  and  C_18 
REMARK    6  A    between atoms: C_19  and  O_32 
REMARK    7  A    between atoms: C_26  and  S_28 
ROOT
HETATM    1 NA   UNL     3     -35.361  -8.118 -12.085  1.00  0.00     0.000 Na
ENDROOT
TORSDOF 7
BEGIN_RES ARG D 557
REMARK  4 active torsions:
REMARK  status: ('A' for Active; 'I' for Inactive)
REMARK    1  A    between atoms: CA   and  CB  
REMARK    2  A    between atoms: CB   and  CG  
REMARK    3  A    between atoms: CG   and  CD  
REMARK    4  A    between atoms: CD   and  NE  
REMARK       I    between atoms: NE   and  CZ  
REMARK       I    between atoms: CZ   and  NH1 
REMARK       I    between atoms: CZ   and  NH2 
ROOT
ATOM      1  CA  ARG D 557     -26.217   2.705 -17.014  1.00 35.49     0.159 C 
ENDROOT
BRANCH   1   2
ATOM      2  CB  ARG D 557     -26.789   1.319 -17.183  1.00 35.49     0.034 C 
BRANCH   2   3
ATOM      3  CG  ARG D 557     -25.837   0.202 -17.145  1.00 35.49     0.027 C 
BRANCH   3   4
ATOM      4  CD  ARG D 557     -24.771   0.404 -16.137  1.00 35.49     0.116 C 
BRANCH   4   5
ATOM      5  NE  ARG D 557     -24.928  -0.465 -15.000  1.00 35.49    -0.212 N 
ATOM      6  CZ  ARG D 557     -24.109  -1.433 -14.655  1.00 35.49     0.666 C 
ATOM      7  NH1 ARG D 557     -23.026  -1.728 -15.349  1.00 35.49    -0.235 N 
ATOM      8  NH2 ARG D 557     -24.397  -2.107 -13.579  1.00 35.49    -0.235 N 
ATOM      9  HH  ARG D 557     -22.816  -1.296 -16.059  1.00 35.49     0.174 HD
ATOM     10  HH  ARG D 557     -22.528  -2.369 -15.074  1.00 35.49     0.174 HD
ATOM     11  HH  ARG D 557     -25.099  -1.890 -13.146  1.00 35.49     0.174 HD
ATOM     12  HH  ARG D 557     -23.891  -2.737 -13.322  1.00 35.49     0.174 HD
ATOM     13  HE  ARG D 557     -25.638  -0.392 -14.538  1.00 35.49     0.178 HD
ENDBRANCH   4   5
ENDBRANCH   3   4
ENDBRANCH   2   3
ENDBRANCH   1   2
END_RES ARG D 557
BEGIN_RES GLU D 570
REMARK  3 active torsions:
REMARK  status: ('A' for Active; 'I' for Inactive)
REMARK    5  A    between atoms: CA   and  CB  
REMARK    6  A    between atoms: CB   and  CG  
REMARK    7  A    between atoms: CG   and  CD  
ROOT
ATOM     14  CA  GLU D 570     -18.033  -6.348 -13.375  1.00 32.92     0.160 C 
ENDROOT
BRANCH  14  15
ATOM     15  CB  GLU D 570     -19.500  -6.345 -13.794  1.00 32.92     0.043 C 
BRANCH  15  16
ATOM     16  CG  GLU D 570     -20.443  -5.536 -12.979  1.00 32.92     0.100 C 
BRANCH  16  17
ATOM     17  CD  GLU D 570     -21.736  -5.235 -13.700  1.00 32.92     0.185 C 
ATOM     18  OE1 GLU D 570     -22.297  -4.140 -13.505  1.00 32.92    -0.647 OA
ATOM     19  OE2 GLU D 570     -22.202  -6.111 -14.456  1.00 32.92    -0.647 OA
ENDBRANCH  16  17
ENDBRANCH  15  16
ENDBRANCH  14  15
END_RES GLU D 570
ENDMDL
MODEL 8
REMARK VINA RESULT:      -1.0      9.456      9.456
REMARK  7 active torsions:
REMARK  status: ('A' for Active; 'I' for Inactive)
REMARK    1  A    between atoms: C_4  and  N_14 
REMARK    2  A    between atoms: C_5  and  O_12 
REMARK    3  A    between atoms: C_7  and  S_8 
REMARK    4  A    between atoms: S_8  and  O_10 
REMARK    5  A    between atoms: N_16  and  C_18 
REMARK    6  A    between atoms: C_19  and  O_32 
REMARK    7  A    between atoms: C_26  and  S_28 
ROOT
HETATM    1 NA   UNL     3     -15.938  -4.921 -21.914  1.00  0.00     0.000 Na
ENDROOT
TORSDOF 7
BEGIN_RES ARG D 557
REMARK  4 active torsions:
REMARK  status: ('A' for Active; 'I' for Inactive)
REMARK    1  A    between atoms: CA   and  CB  
REMARK    2  A    between atoms: CB   and  CG  
REMARK    3  A    between atoms: CG   and  CD  
REMARK    4  A    between atoms: CD   and  NE  
REMARK       I    between atoms: NE   and  CZ  
REMARK       I    between atoms: CZ   and  NH1 
REMARK       I    between atoms: CZ   and  NH2 
ROOT
ATOM      1  CA  ARG D 557     -26.217   2.705 -17.014  1.00 35.49     0.159 C 
ENDROOT
BRANCH   1   2
ATOM      2  CB  ARG D 557     -26.789   1.319 -17.183  1.00 35.49     0.034 C 
BRANCH   2   3
ATOM      3  CG  ARG D 557     -25.835   0.203 -17.162  1.00 35.49     0.027 C 
BRANCH   3   4
ATOM      4  CD  ARG D 557     -24.748   0.410 -16.178  1.00 35.49     0.116 C 
BRANCH   4   5
ATOM      5  NE  ARG D 557     -24.894  -0.436 -15.023  1.00 35.49    -0.212 N 
ATOM      6  CZ  ARG D 557     -24.079  -1.407 -14.674  1.00 35.49     0.666 C 
ATOM      7  NH1 ARG D 557     -23.012  -1.726 -15.382  1.00 35.49    -0.235 N 
ATOM      8  NH2 ARG D 557     -24.355  -2.058 -13.581  1.00 35.49    -0.235 N 
ATOM      9  HH  ARG D 557     -22.810  -1.310 -16.103  1.00 35.49     0.174 HD
ATOM     10  HH  ARG D 557     -22.516  -2.367 -15.104  1.00 35.49     0.174 HD
ATOM     11  HH  ARG D 557     -25.047  -1.825 -13.140  1.00 35.49     0.174 HD
ATOM     12  HH  ARG D 557     -23.851  -2.688 -13.322  1.00 35.49     0.174 HD
ATOM     13  HE  ARG D 557     -25.594  -0.348 -14.549  1.00 35.49     0.178 HD
ENDBRANCH   4   5
ENDBRANCH   3   4
ENDBRANCH   2   3
ENDBRANCH   1   2
END_RES ARG D 557
BEGIN_RES GLU D 570
REMARK  3 active torsions:
REMARK  status: ('A' for Active; 'I' for Inactive)
REMARK    5  A    between atoms: CA   and  CB  
REMARK    6  A    between atoms: CB   and  CG  
REMARK    7  A    between atoms: CG   and  CD  
ROOT
ATOM     14  CA  GLU D 570     -18.033  -6.348 -13.375  1.00 32.92     0.160 C 
ENDROOT
BRANCH  14  15
ATOM     15  CB  GLU D 570     -19.500  -6.345 -13.794  1.00 32.92     0.043 C 
BRANCH  15  16
ATOM     16  CG  GLU D 570     -20.441  -5.529 -12.984  1.00 32.92     0.100 C 
BRANCH  16  17
ATOM     17  CD  GLU D 570     -21.741  -5.246 -13.700  1.00 32.92     0.185 C 
ATOM     18  OE1 GLU D 570     -22.301  -4.146 -13.527  1.00 32.92    -0.647 OA
ATOM     19  OE2 GLU D 570     -22.214  -6.140 -14.429  1.00 32.92    -0.647 OA
ENDBRANCH  16  17
ENDBRANCH  15  16
ENDBRANCH  14  15
END_RES GLU D 570
ENDMDL
MODEL 9
REMARK VINA RESULT:      -1.0      5.934      6.059
REMARK  7 active torsions:
REMARK  status: ('A' for Active; 'I' for Inactive)
REMARK    1  A    between atoms: C_4  and  N_14 
REMARK    2  A    between atoms: C_5  and  O_12 
REMARK    3  A    between atoms: C_7  and  S_8 
REMARK    4  A    between atoms: S_8  and  O_10 
REMARK    5  A    between atoms: N_16  and  C_18 
REMARK    6  A    between atoms: C_19  and  O_32 
REMARK    7  A    between atoms: C_26  and  S_28 
ROOT
HETATM    1 NA   UNL     3     -27.034 -13.670 -13.039  1.00  0.00     0.000 Na
ENDROOT
TORSDOF 7
BEGIN_RES ARG D 557
REMARK  4 active torsions:
REMARK  status: ('A' for Active; 'I' for Inactive)
REMARK    1  A    between atoms: CA   and  CB  
REMARK    2  A    between atoms: CB   and  CG  
REMARK    3  A    between atoms: CG   and  CD  
REMARK    4  A    between atoms: CD   and  NE  
REMARK       I    between atoms: NE   and  CZ  
REMARK       I    between atoms: CZ   and  NH1 
REMARK       I    between atoms: CZ   and  NH2 
ROOT
ATOM      1  CA  ARG D 557     -26.217   2.705 -17.014  1.00 35.49     0.159 C 
ENDROOT
BRANCH   1   2
ATOM      2  CB  ARG D 557     -26.789   1.319 -17.183  1.00 35.49     0.034 C 
BRANCH   2   3
ATOM      3  CG  ARG D 557     -25.925   0.196 -16.799  1.00 35.49     0.027 C 
BRANCH   3   4
ATOM      4  CD  ARG D 557     -26.664  -0.865 -16.078  1.00 35.49     0.116 C 
BRANCH   4   5
ATOM      5  NE  ARG D 557     -25.847  -1.522 -15.093  1.00 35.49    -0.212 N 
ATOM      6  CZ  ARG D 557     -25.892  -2.799 -14.785  1.00 35.49     0.666 C 
ATOM      7  NH1 ARG D 557     -26.735  -3.637 -15.360  1.00 35.49    -0.235 N 
ATOM      8  NH2 ARG D 557     -25.061  -3.229 -13.881  1.00 35.49    -0.235 N 
ATOM      9  HH  ARG D 557     -27.289  -3.377 -15.960  1.00 35.49     0.174 HD
ATOM     10  HH  ARG D 557     -26.717  -4.460 -15.121  1.00 35.49     0.174 HD
ATOM     11  HH  ARG D 557     -24.523  -2.666 -13.532  1.00 35.49     0.174 HD
ATOM     12  HH  ARG D 557     -25.058  -4.047 -13.659  1.00 35.49     0.174 HD
ATOM     13  HE  ARG D 557     -25.326  -1.043 -14.622  1.00 35.49     0.178 HD
ENDBRANCH   4   5
ENDBRANCH   3   4
ENDBRANCH   2   3
ENDBRANCH   1   2
END_RES ARG D 557
BEGIN_RES GLU D 570
REMARK  3 active torsions:
REMARK  status: ('A' for Active; 'I' for Inactive)
REMARK    5  A    between atoms: CA   and  CB  
REMARK    6  A    between atoms: CB   and  CG  
REMARK    7  A    between atoms: CG   and  CD  
ROOT
ATOM     14  CA  GLU D 570     -18.033  -6.348 -13.375  1.00 32.92     0.160 C 
ENDROOT
BRANCH  14  15
ATOM     15  CB  GLU D 570     -19.500  -6.345 -13.794  1.00 32.92     0.043 C 
BRANCH  15  16
ATOM     16  CG  GLU D 570     -20.445  -5.543 -12.974  1.00 32.92     0.100 C 
BRANCH  16  17
ATOM     17  CD  GLU D 570     -21.703  -5.168 -13.722  1.00 32.92     0.185 C 
ATOM     18  OE1 GLU D 570     -21.641  -4.977 -14.952  1.00 32.92    -0.647 OA
ATOM     19  OE2 GLU D 570     -22.757  -5.047 -13.068  1.00 32.92    -0.647 OA
ENDBRANCH  16  17
ENDBRANCH  15  16
ENDBRANCH  14  15
END_RES GLU D 570
ENDMDL
