MODEL 1
REMARK VINA RESULT:      -8.3      0.000      0.000
REMARK  4 active torsions:
REMARK  status: ('A' for Active; 'I' for Inactive)
REMARK    1  A    between atoms: O_2  and  C_3 
REMARK    2  A    between atoms: C_5  and  O_17 
REMARK    3  A    between atoms: C_6  and  C_9 
REMARK    4  A    between atoms: C_9  and  C_11 
ROOT
HETATM    1  C   UNL     1     -20.644  -4.388  -7.852  1.00  0.00     0.070 A 
HETATM    2  C   UNL     1     -22.005  -4.347  -7.543  1.00  0.00     0.074 A 
HETATM    3  C   UNL     1     -22.939  -4.016  -8.535  1.00  0.00     0.082 A 
HETATM    4  C   UNL     1     -22.527  -3.745  -9.847  1.00  0.00     0.048 A 
HETATM    5  C   UNL     1     -21.162  -3.818 -10.154  1.00  0.00     0.021 A 
HETATM    6  C   UNL     1     -20.230  -4.118  -9.157  1.00  0.00     0.038 A 
ENDROOT
BRANCH   4   7
HETATM    7  C   UNL     1     -23.508  -3.456 -10.929  1.00  0.00     0.195 C 
HETATM    8  O   UNL     1     -24.575  -2.910 -10.659  1.00  0.00    -0.287 OA
BRANCH   7   9
HETATM    9  C   UNL     1     -23.263  -3.896 -12.336  1.00  0.00     0.015 A 
HETATM   10  C   UNL     1     -22.827  -3.020 -13.337  1.00  0.00     0.015 A 
HETATM   11  C   UNL     1     -22.584  -3.498 -14.629  1.00  0.00     0.001 A 
HETATM   12  C   UNL     1     -22.797  -4.843 -14.930  1.00  0.00     0.000 A 
HETATM   13  C   UNL     1     -23.258  -5.714 -13.945  1.00  0.00     0.001 A 
HETATM   14  C   UNL     1     -23.494  -5.243 -12.653  1.00  0.00     0.015 A 
ENDBRANCH   7   9
ENDBRANCH   4   7
BRANCH   3  15
HETATM   15  O   UNL     1     -24.261  -3.922  -8.191  1.00  0.00    -0.360 OA
HETATM   16  H   UNL     1     -24.531  -2.991  -8.156  1.00  0.00     0.217 HD
ENDBRANCH   3  15
BRANCH   1  17
HETATM   17  O   UNL     1     -19.628  -4.673  -6.982  1.00  0.00    -0.356 OA
HETATM   18  C   UNL     1     -19.966  -4.792  -5.604  1.00  0.00     0.210 C 
ENDBRANCH   1  17
TORSDOF 4
BEGIN_RES ARG D 557
REMARK  4 active torsions:
REMARK  status: ('A' for Active; 'I' for Inactive)
REMARK    1  A    between atoms: CA   and  CB  
REMARK    2  A    between atoms: CB   and  CG  
REMARK    3  A    between atoms: CG   and  CD  
REMARK    4  A    between atoms: CD   and  NE  
REMARK       I    between atoms: NE   and  CZ  
REMARK       I    between atoms: CZ   and  NH1 
REMARK       I    between atoms: CZ   and  NH2 
ROOT
ATOM      1  CA  ARG D 557     -26.217   2.705 -17.014  1.00 35.49     0.159 C 
ENDROOT
BRANCH   1   2
ATOM      2  CB  ARG D 557     -26.789   1.319 -17.183  1.00 35.49     0.034 C 
BRANCH   2   3
ATOM      3  CG  ARG D 557     -28.230   1.227 -17.449  1.00 35.49     0.027 C 
BRANCH   3   4
ATOM      4  CD  ARG D 557     -28.920   0.316 -16.507  1.00 35.49     0.116 C 
BRANCH   4   5
ATOM      5  NE  ARG D 557     -29.294  -0.927 -17.130  1.00 35.49    -0.212 N 
ATOM      6  CZ  ARG D 557     -28.647  -2.065 -17.021  1.00 35.49     0.666 C 
ATOM      7  NH1 ARG D 557     -27.539  -2.186 -16.314  1.00 35.49    -0.235 N 
ATOM      8  NH2 ARG D 557     -29.142  -3.099 -17.638  1.00 35.49    -0.235 N 
ATOM      9  HH  ARG D 557     -27.196  -1.520 -15.898  1.00 35.49     0.174 HD
ATOM     10  HH  ARG D 557     -27.161  -2.955 -16.276  1.00 35.49     0.174 HD
ATOM     11  HH  ARG D 557     -29.863  -2.992 -18.082  1.00 35.49     0.174 HD
ATOM     12  HH  ARG D 557     -28.755  -3.851 -17.588  1.00 35.49     0.174 HD
ATOM     13  HE  ARG D 557     -29.956  -0.923 -17.664  1.00 35.49     0.178 HD
ENDBRANCH   4   5
ENDBRANCH   3   4
ENDBRANCH   2   3
ENDBRANCH   1   2
END_RES ARG D 557
BEGIN_RES GLU D 570
REMARK  3 active torsions:
REMARK  status: ('A' for Active; 'I' for Inactive)
REMARK    5  A    between atoms: CA   and  CB  
REMARK    6  A    between atoms: CB   and  CG  
REMARK    7  A    between atoms: CG   and  CD  
ROOT
ATOM     14  CA  GLU D 570     -18.033  -6.348 -13.375  1.00 32.92     0.160 C 
ENDROOT
BRANCH  14  15
ATOM     15  CB  GLU D 570     -19.500  -6.345 -13.794  1.00 32.92     0.043 C 
BRANCH  15  16
ATOM     16  CG  GLU D 570     -20.090  -7.637 -14.231  1.00 32.92     0.100 C 
BRANCH  16  17
ATOM     17  CD  GLU D 570     -20.475  -7.645 -15.692  1.00 32.92     0.185 C 
ATOM     18  OE1 GLU D 570     -20.852  -8.712 -16.212  1.00 32.92    -0.647 OA
ATOM     19  OE2 GLU D 570     -20.383  -6.576 -16.327  1.00 32.92    -0.647 OA
ENDBRANCH  16  17
ENDBRANCH  15  16
ENDBRANCH  14  15
END_RES GLU D 570
ENDMDL
MODEL 2
REMARK VINA RESULT:      -7.7      1.490      4.682
REMARK  4 active torsions:
REMARK  status: ('A' for Active; 'I' for Inactive)
REMARK    1  A    between atoms: O_2  and  C_3 
REMARK    2  A    between atoms: C_5  and  O_17 
REMARK    3  A    between atoms: C_6  and  C_9 
REMARK    4  A    between atoms: C_9  and  C_11 
ROOT
HETATM    1  C   UNL     1     -23.378  -3.558 -13.174  1.00  0.00     0.070 A 
HETATM    2  C   UNL     1     -24.389  -3.120 -12.316  1.00  0.00     0.074 A 
HETATM    3  C   UNL     1     -24.300  -3.379 -10.941  1.00  0.00     0.082 A 
HETATM    4  C   UNL     1     -23.195  -4.057 -10.408  1.00  0.00     0.048 A 
HETATM    5  C   UNL     1     -22.173  -4.466 -11.273  1.00  0.00     0.021 A 
HETATM    6  C   UNL     1     -22.277  -4.233 -12.647  1.00  0.00     0.038 A 
ENDROOT
BRANCH   4   7
HETATM    7  C   UNL     1     -23.052  -4.284  -8.943  1.00  0.00     0.195 C 
HETATM    8  O   UNL     1     -24.043  -4.251  -8.217  1.00  0.00    -0.287 OA
BRANCH   7   9
HETATM    9  C   UNL     1     -21.708  -4.465  -8.314  1.00  0.00     0.015 A 
HETATM   10  C   UNL     1     -20.539  -3.924  -8.860  1.00  0.00     0.015 A 
HETATM   11  C   UNL     1     -19.314  -4.101  -8.209  1.00  0.00     0.001 A 
HETATM   12  C   UNL     1     -19.249  -4.836  -7.026  1.00  0.00     0.000 A 
HETATM   13  C   UNL     1     -20.405  -5.402  -6.492  1.00  0.00     0.001 A 
HETATM   14  C   UNL     1     -21.631  -5.221  -7.135  1.00  0.00     0.015 A 
ENDBRANCH   7   9
ENDBRANCH   4   7
BRANCH   3  15
HETATM   15  O   UNL     1     -25.334  -2.995 -10.129  1.00  0.00    -0.360 OA
HETATM   16  H   UNL     1     -25.797  -3.775  -9.787  1.00  0.00     0.217 HD
ENDBRANCH   3  15
BRANCH   1  17
HETATM   17  O   UNL     1     -23.347  -3.394 -14.532  1.00  0.00    -0.356 OA
HETATM   18  C   UNL     1     -22.937  -2.123 -15.024  1.00  0.00     0.210 C 
ENDBRANCH   1  17
TORSDOF 4
BEGIN_RES ARG D 557
REMARK  4 active torsions:
REMARK  status: ('A' for Active; 'I' for Inactive)
REMARK    1  A    between atoms: CA   and  CB  
REMARK    2  A    between atoms: CB   and  CG  
REMARK    3  A    between atoms: CG   and  CD  
REMARK    4  A    between atoms: CD   and  NE  
REMARK       I    between atoms: NE   and  CZ  
REMARK       I    between atoms: CZ   and  NH1 
REMARK       I    between atoms: CZ   and  NH2 
ROOT
ATOM      1  CA  ARG D 557     -26.217   2.705 -17.014  1.00 35.49     0.159 C 
ENDROOT
BRANCH   1   2
ATOM      2  CB  ARG D 557     -26.789   1.319 -17.183  1.00 35.49     0.034 C 
BRANCH   2   3
ATOM      3  CG  ARG D 557     -28.233   1.169 -16.966  1.00 35.49     0.027 C 
BRANCH   3   4
ATOM      4  CD  ARG D 557     -28.621  -0.234 -16.697  1.00 35.49     0.116 C 
BRANCH   4   5
ATOM      5  NE  ARG D 557     -27.591  -0.956 -15.997  1.00 35.49    -0.212 N 
ATOM      6  CZ  ARG D 557     -27.374  -2.251 -16.072  1.00 35.49     0.666 C 
ATOM      7  NH1 ARG D 557     -28.116  -3.052 -16.814  1.00 35.49    -0.235 N 
ATOM      8  NH2 ARG D 557     -26.381  -2.734 -15.385  1.00 35.49    -0.235 N 
ATOM      9  HH  ARG D 557     -28.774  -2.755 -17.277  1.00 35.49     0.174 HD
ATOM     10  HH  ARG D 557     -27.926  -3.887 -16.826  1.00 35.49     0.174 HD
ATOM     11  HH  ARG D 557     -25.914  -2.191 -14.920  1.00 35.49     0.174 HD
ATOM     12  HH  ARG D 557     -26.208  -3.563 -15.411  1.00 35.49     0.174 HD
ATOM     13  HE  ARG D 557     -27.112  -0.529 -15.440  1.00 35.49     0.178 HD
ENDBRANCH   4   5
ENDBRANCH   3   4
ENDBRANCH   2   3
ENDBRANCH   1   2
END_RES ARG D 557
BEGIN_RES GLU D 570
REMARK  3 active torsions:
REMARK  status: ('A' for Active; 'I' for Inactive)
REMARK    5  A    between atoms: CA   and  CB  
REMARK    6  A    between atoms: CB   and  CG  
REMARK    7  A    between atoms: CG   and  CD  
ROOT
ATOM     14  CA  GLU D 570     -18.033  -6.348 -13.375  1.00 32.92     0.160 C 
ENDROOT
BRANCH  14  15
ATOM     15  CB  GLU D 570     -19.500  -6.345 -13.794  1.00 32.92     0.043 C 
BRANCH  15  16
ATOM     16  CG  GLU D 570     -20.100  -7.644 -14.195  1.00 32.92     0.100 C 
BRANCH  16  17
ATOM     17  CD  GLU D 570     -21.041  -7.521 -15.370  1.00 32.92     0.185 C 
ATOM     18  OE1 GLU D 570     -21.927  -6.645 -15.347  1.00 32.92    -0.647 OA
ATOM     19  OE2 GLU D 570     -20.901  -8.319 -16.317  1.00 32.92    -0.647 OA
ENDBRANCH  16  17
ENDBRANCH  15  16
ENDBRANCH  14  15
END_RES GLU D 570
ENDMDL
MODEL 3
REMARK VINA RESULT:      -7.7      1.547      1.906
REMARK  4 active torsions:
REMARK  status: ('A' for Active; 'I' for Inactive)
REMARK    1  A    between atoms: O_2  and  C_3 
REMARK    2  A    between atoms: C_5  and  O_17 
REMARK    3  A    between atoms: C_6  and  C_9 
REMARK    4  A    between atoms: C_9  and  C_11 
ROOT
HETATM    1  C   UNL     1     -21.540  -4.021  -8.376  1.00  0.00     0.070 A 
HETATM    2  C   UNL     1     -22.921  -4.216  -8.436  1.00  0.00     0.074 A 
HETATM    3  C   UNL     1     -23.548  -4.401  -9.676  1.00  0.00     0.082 A 
HETATM    4  C   UNL     1     -22.803  -4.415 -10.863  1.00  0.00     0.048 A 
HETATM    5  C   UNL     1     -21.414  -4.248 -10.790  1.00  0.00     0.021 A 
HETATM    6  C   UNL     1     -20.794  -4.033  -9.555  1.00  0.00     0.038 A 
ENDROOT
BRANCH   4   7
HETATM    7  C   UNL     1     -23.442  -4.676 -12.183  1.00  0.00     0.195 C 
HETATM    8  O   UNL     1     -23.681  -5.830 -12.530  1.00  0.00    -0.287 OA
BRANCH   7   9
HETATM    9  C   UNL     1     -23.723  -3.565 -13.141  1.00  0.00     0.015 A 
HETATM   10  C   UNL     1     -22.740  -3.014 -13.971  1.00  0.00     0.015 A 
HETATM   11  C   UNL     1     -23.071  -1.997 -14.871  1.00  0.00     0.001 A 
HETATM   12  C   UNL     1     -24.377  -1.511 -14.930  1.00  0.00     0.000 A 
HETATM   13  C   UNL     1     -25.355  -2.035 -14.086  1.00  0.00     0.001 A 
HETATM   14  C   UNL     1     -25.030  -3.056 -13.193  1.00  0.00     0.015 A 
ENDBRANCH   7   9
ENDBRANCH   4   7
BRANCH   3  15
HETATM   15  O   UNL     1     -24.911  -4.528  -9.713  1.00  0.00    -0.360 OA
HETATM   16  H   UNL     1     -25.166  -5.191 -10.375  1.00  0.00     0.217 HD
ENDBRANCH   3  15
BRANCH   1  17
HETATM   17  O   UNL     1     -20.804  -3.807  -7.243  1.00  0.00    -0.356 OA
HETATM   18  C   UNL     1     -20.597  -4.921  -6.382  1.00  0.00     0.210 C 
ENDBRANCH   1  17
TORSDOF 4
BEGIN_RES ARG D 557
REMARK  4 active torsions:
REMARK  status: ('A' for Active; 'I' for Inactive)
REMARK    1  A    between atoms: CA   and  CB  
REMARK    2  A    between atoms: CB   and  CG  
REMARK    3  A    between atoms: CG   and  CD  
REMARK    4  A    between atoms: CD   and  NE  
REMARK       I    between atoms: NE   and  CZ  
REMARK       I    between atoms: CZ   and  NH1 
REMARK       I    between atoms: CZ   and  NH2 
ROOT
ATOM      1  CA  ARG D 557     -26.217   2.705 -17.014  1.00 35.49     0.159 C 
ENDROOT
BRANCH   1   2
ATOM      2  CB  ARG D 557     -26.789   1.319 -17.183  1.00 35.49     0.034 C 
BRANCH   2   3
ATOM      3  CG  ARG D 557     -28.231   1.226 -17.442  1.00 35.49     0.027 C 
BRANCH   3   4
ATOM      4  CD  ARG D 557     -28.916   0.314 -16.498  1.00 35.49     0.116 C 
BRANCH   4   5
ATOM      5  NE  ARG D 557     -28.170  -0.896 -16.275  1.00 35.49    -0.212 N 
ATOM      6  CZ  ARG D 557     -28.462  -2.079 -16.767  1.00 35.49     0.666 C 
ATOM      7  NH1 ARG D 557     -29.516  -2.289 -17.533  1.00 35.49    -0.235 N 
ATOM      8  NH2 ARG D 557     -27.661  -3.063 -16.478  1.00 35.49    -0.235 N 
ATOM      9  HH  ARG D 557     -30.056  -1.655 -17.738  1.00 35.49     0.174 HD
ATOM     10  HH  ARG D 557     -29.654  -3.082 -17.828  1.00 35.49     0.174 HD
ATOM     11  HH  ARG D 557     -26.983  -2.897 -15.987  1.00 35.49     0.174 HD
ATOM     12  HH  ARG D 557     -27.814  -3.841 -16.780  1.00 35.49     0.174 HD
ATOM     13  HE  ARG D 557     -27.515  -0.868 -15.733  1.00 35.49     0.178 HD
ENDBRANCH   4   5
ENDBRANCH   3   4
ENDBRANCH   2   3
ENDBRANCH   1   2
END_RES ARG D 557
BEGIN_RES GLU D 570
REMARK  3 active torsions:
REMARK  status: ('A' for Active; 'I' for Inactive)
REMARK    5  A    between atoms: CA   and  CB  
REMARK    6  A    between atoms: CB   and  CG  
REMARK    7  A    between atoms: CG   and  CD  
ROOT
ATOM     14  CA  GLU D 570     -18.033  -6.348 -13.375  1.00 32.92     0.160 C 
ENDROOT
BRANCH  14  15
ATOM     15  CB  GLU D 570     -19.500  -6.345 -13.794  1.00 32.92     0.043 C 
BRANCH  15  16
ATOM     16  CG  GLU D 570     -19.800  -6.518 -15.239  1.00 32.92     0.100 C 
BRANCH  16  17
ATOM     17  CD  GLU D 570     -21.214  -6.126 -15.599  1.00 32.92     0.185 C 
ATOM     18  OE1 GLU D 570     -22.155  -6.861 -15.244  1.00 32.92    -0.647 OA
ATOM     19  OE2 GLU D 570     -21.381  -5.080 -16.257  1.00 32.92    -0.647 OA
ENDBRANCH  16  17
ENDBRANCH  15  16
ENDBRANCH  14  15
END_RES GLU D 570
ENDMDL
MODEL 4
REMARK VINA RESULT:      -7.5      7.553     11.853
REMARK  4 active torsions:
REMARK  status: ('A' for Active; 'I' for Inactive)
REMARK    1  A    between atoms: O_2  and  C_3 
REMARK    2  A    between atoms: C_5  and  O_17 
REMARK    3  A    between atoms: C_6  and  C_9 
REMARK    4  A    between atoms: C_9  and  C_11 
ROOT
HETATM    1  C   UNL     1     -36.821   0.345 -14.630  1.00  0.00     0.070 A 
HETATM    2  C   UNL     1     -37.681   0.073 -13.564  1.00  0.00     0.074 A 
HETATM    3  C   UNL     1     -37.198  -0.591 -12.428  1.00  0.00     0.082 A 
HETATM    4  C   UNL     1     -35.852  -0.971 -12.336  1.00  0.00     0.048 A 
HETATM    5  C   UNL     1     -34.991  -0.667 -13.398  1.00  0.00     0.021 A 
HETATM    6  C   UNL     1     -35.481  -0.032 -14.543  1.00  0.00     0.038 A 
ENDROOT
BRANCH   4   7
HETATM    7  C   UNL     1     -35.306  -1.618 -11.110  1.00  0.00     0.195 C 
HETATM    8  O   UNL     1     -35.338  -1.022 -10.037  1.00  0.00    -0.287 OA
BRANCH   7   9
HETATM    9  C   UNL     1     -34.634  -2.951 -11.172  1.00  0.00     0.015 A 
HETATM   10  C   UNL     1     -33.296  -3.107 -11.549  1.00  0.00     0.015 A 
HETATM   11  C   UNL     1     -32.713  -4.379 -11.556  1.00  0.00     0.001 A 
HETATM   12  C   UNL     1     -33.469  -5.498 -11.210  1.00  0.00     0.000 A 
HETATM   13  C   UNL     1     -34.810  -5.353 -10.861  1.00  0.00     0.001 A 
HETATM   14  C   UNL     1     -35.393  -4.085 -10.844  1.00  0.00     0.015 A 
ENDBRANCH   7   9
ENDBRANCH   4   7
BRANCH   3  15
HETATM   15  O   UNL     1     -38.075  -0.901 -11.423  1.00  0.00    -0.360 OA
HETATM   16  H   UNL     1     -38.219  -0.127 -10.856  1.00  0.00     0.217 HD
ENDBRANCH   3  15
BRANCH   1  17
HETATM   17  O   UNL     1     -37.161   0.963 -15.802  1.00  0.00    -0.356 OA
HETATM   18  C   UNL     1     -36.371   2.076 -16.204  1.00  0.00     0.210 C 
ENDBRANCH   1  17
TORSDOF 4
BEGIN_RES ARG D 557
REMARK  4 active torsions:
REMARK  status: ('A' for Active; 'I' for Inactive)
REMARK    1  A    between atoms: CA   and  CB  
REMARK    2  A    between atoms: CB   and  CG  
REMARK    3  A    between atoms: CG   and  CD  
REMARK    4  A    between atoms: CD   and  NE  
REMARK       I    between atoms: NE   and  CZ  
REMARK       I    between atoms: CZ   and  NH1 
REMARK       I    between atoms: CZ   and  NH2 
ROOT
ATOM      1  CA  ARG D 557     -26.217   2.705 -17.014  1.00 35.49     0.159 C 
ENDROOT
BRANCH   1   2
ATOM      2  CB  ARG D 557     -26.789   1.319 -17.183  1.00 35.49     0.034 C 
BRANCH   2   3
ATOM      3  CG  ARG D 557     -25.874   0.194 -16.952  1.00 35.49     0.027 C 
BRANCH   3   4
ATOM      4  CD  ARG D 557     -26.340  -0.698 -15.866  1.00 35.49     0.116 C 
BRANCH   4   5
ATOM      5  NE  ARG D 557     -25.308  -0.957 -14.897  1.00 35.49    -0.212 N 
ATOM      6  CZ  ARG D 557     -25.037  -2.124 -14.356  1.00 35.49     0.666 C 
ATOM      7  NH1 ARG D 557     -25.720  -3.215 -14.647  1.00 35.49    -0.235 N 
ATOM      8  NH2 ARG D 557     -24.050  -2.178 -13.509  1.00 35.49    -0.235 N 
ATOM      9  HH  ARG D 557     -26.372  -3.203 -15.202  1.00 35.49     0.174 HD
ATOM     10  HH  ARG D 557     -25.497  -3.949 -14.264  1.00 35.49     0.174 HD
ATOM     11  HH  ARG D 557     -23.622  -1.459 -13.347  1.00 35.49     0.174 HD
ATOM     12  HH  ARG D 557     -23.844  -2.914 -13.143  1.00 35.49     0.174 HD
ATOM     13  HE  ARG D 557     -24.866  -0.295 -14.598  1.00 35.49     0.178 HD
ENDBRANCH   4   5
ENDBRANCH   3   4
ENDBRANCH   2   3
ENDBRANCH   1   2
END_RES ARG D 557
BEGIN_RES GLU D 570
REMARK  3 active torsions:
REMARK  status: ('A' for Active; 'I' for Inactive)
REMARK    5  A    between atoms: CA   and  CB  
REMARK    6  A    between atoms: CB   and  CG  
REMARK    7  A    between atoms: CG   and  CD  
ROOT
ATOM     14  CA  GLU D 570     -18.033  -6.348 -13.375  1.00 32.92     0.160 C 
ENDROOT
BRANCH  14  15
ATOM     15  CB  GLU D 570     -19.500  -6.345 -13.794  1.00 32.92     0.043 C 
BRANCH  15  16
ATOM     16  CG  GLU D 570     -20.447  -5.553 -12.967  1.00 32.92     0.100 C 
BRANCH  16  17
ATOM     17  CD  GLU D 570     -21.720  -5.202 -13.701  1.00 32.92     0.185 C 
ATOM     18  OE1 GLU D 570     -21.778  -5.385 -14.932  1.00 32.92    -0.647 OA
ATOM     19  OE2 GLU D 570     -22.663  -4.725 -13.040  1.00 32.92    -0.647 OA
ENDBRANCH  16  17
ENDBRANCH  15  16
ENDBRANCH  14  15
END_RES GLU D 570
ENDMDL
MODEL 5
REMARK VINA RESULT:      -7.5      7.444     11.696
REMARK  4 active torsions:
REMARK  status: ('A' for Active; 'I' for Inactive)
REMARK    1  A    between atoms: O_2  and  C_3 
REMARK    2  A    between atoms: C_5  and  O_17 
REMARK    3  A    between atoms: C_6  and  C_9 
REMARK    4  A    between atoms: C_9  and  C_11 
ROOT
HETATM    1  C   UNL     1     -36.898   0.264 -14.604  1.00  0.00     0.070 A 
HETATM    2  C   UNL     1     -37.723   0.077 -13.493  1.00  0.00     0.074 A 
HETATM    3  C   UNL     1     -37.228  -0.577 -12.357  1.00  0.00     0.082 A 
HETATM    4  C   UNL     1     -35.903  -1.032 -12.310  1.00  0.00     0.048 A 
HETATM    5  C   UNL     1     -35.075  -0.814 -13.418  1.00  0.00     0.021 A 
HETATM    6  C   UNL     1     -35.579  -0.188 -14.562  1.00  0.00     0.038 A 
ENDROOT
BRANCH   4   7
HETATM    7  C   UNL     1     -35.340  -1.671 -11.087  1.00  0.00     0.195 C 
HETATM    8  O   UNL     1     -35.383  -1.079 -10.012  1.00  0.00    -0.287 OA
BRANCH   7   9
HETATM    9  C   UNL     1     -34.638  -2.988 -11.154  1.00  0.00     0.015 A 
HETATM   10  C   UNL     1     -33.305  -3.115 -11.560  1.00  0.00     0.015 A 
HETATM   11  C   UNL     1     -32.692  -4.373 -11.571  1.00  0.00     0.001 A 
HETATM   12  C   UNL     1     -33.414  -5.507 -11.200  1.00  0.00     0.000 A 
HETATM   13  C   UNL     1     -34.750  -5.391 -10.823  1.00  0.00     0.001 A 
HETATM   14  C   UNL     1     -35.362  -4.137 -10.802  1.00  0.00     0.015 A 
ENDBRANCH   7   9
ENDBRANCH   4   7
BRANCH   3  15
HETATM   15  O   UNL     1     -38.075  -0.803 -11.304  1.00  0.00    -0.360 OA
HETATM   16  H   UNL     1     -38.726  -1.482 -11.541  1.00  0.00     0.217 HD
ENDBRANCH   3  15
BRANCH   1  17
HETATM   17  O   UNL     1     -37.255   0.863 -15.781  1.00  0.00    -0.356 OA
HETATM   18  C   UNL     1     -36.449   1.947 -16.230  1.00  0.00     0.210 C 
ENDBRANCH   1  17
TORSDOF 4
BEGIN_RES ARG D 557
REMARK  4 active torsions:
REMARK  status: ('A' for Active; 'I' for Inactive)
REMARK    1  A    between atoms: CA   and  CB  
REMARK    2  A    between atoms: CB   and  CG  
REMARK    3  A    between atoms: CG   and  CD  
REMARK    4  A    between atoms: CD   and  NE  
REMARK       I    between atoms: NE   and  CZ  
REMARK       I    between atoms: CZ   and  NH1 
REMARK       I    between atoms: CZ   and  NH2 
ROOT
ATOM      1  CA  ARG D 557     -26.217   2.705 -17.014  1.00 35.49     0.159 C 
ENDROOT
BRANCH   1   2
ATOM      2  CB  ARG D 557     -26.789   1.319 -17.183  1.00 35.49     0.034 C 
BRANCH   2   3
ATOM      3  CG  ARG D 557     -28.232   1.226 -17.438  1.00 35.49     0.027 C 
BRANCH   3   4
ATOM      4  CD  ARG D 557     -28.906   0.275 -16.525  1.00 35.49     0.116 C 
BRANCH   4   5
ATOM      5  NE  ARG D 557     -29.249  -0.958 -17.184  1.00 35.49    -0.212 N 
ATOM      6  CZ  ARG D 557     -28.615  -2.102 -17.051  1.00 35.49     0.666 C 
ATOM      7  NH1 ARG D 557     -27.551  -2.238 -16.282  1.00 35.49    -0.235 N 
ATOM      8  NH2 ARG D 557     -29.079  -3.125 -17.709  1.00 35.49    -0.235 N 
ATOM      9  HH  ARG D 557     -27.230  -1.579 -15.838  1.00 35.49     0.174 HD
ATOM     10  HH  ARG D 557     -27.181  -3.010 -16.232  1.00 35.49     0.174 HD
ATOM     11  HH  ARG D 557     -29.772  -3.009 -18.192  1.00 35.49     0.174 HD
ATOM     12  HH  ARG D 557     -28.700  -3.880 -17.645  1.00 35.49     0.174 HD
ATOM     13  HE  ARG D 557     -29.879  -0.944 -17.755  1.00 35.49     0.178 HD
ENDBRANCH   4   5
ENDBRANCH   3   4
ENDBRANCH   2   3
ENDBRANCH   1   2
END_RES ARG D 557
BEGIN_RES GLU D 570
REMARK  3 active torsions:
REMARK  status: ('A' for Active; 'I' for Inactive)
REMARK    5  A    between atoms: CA   and  CB  
REMARK    6  A    between atoms: CB   and  CG  
REMARK    7  A    between atoms: CG   and  CD  
ROOT
ATOM     14  CA  GLU D 570     -18.033  -6.348 -13.375  1.00 32.92     0.160 C 
ENDROOT
BRANCH  14  15
ATOM     15  CB  GLU D 570     -19.500  -6.345 -13.794  1.00 32.92     0.043 C 
BRANCH  15  16
ATOM     16  CG  GLU D 570     -20.442  -5.533 -12.981  1.00 32.92     0.100 C 
BRANCH  16  17
ATOM     17  CD  GLU D 570     -21.720  -5.202 -13.717  1.00 32.92     0.185 C 
ATOM     18  OE1 GLU D 570     -22.788  -5.142 -13.077  1.00 32.92    -0.647 OA
ATOM     19  OE2 GLU D 570     -21.656  -5.018 -14.948  1.00 32.92    -0.647 OA
ENDBRANCH  16  17
ENDBRANCH  15  16
ENDBRANCH  14  15
END_RES GLU D 570
ENDMDL
MODEL 6
REMARK VINA RESULT:      -7.5      1.578      2.285
REMARK  4 active torsions:
REMARK  status: ('A' for Active; 'I' for Inactive)
REMARK    1  A    between atoms: O_2  and  C_3 
REMARK    2  A    between atoms: C_5  and  O_17 
REMARK    3  A    between atoms: C_6  and  C_9 
REMARK    4  A    between atoms: C_9  and  C_11 
ROOT
HETATM    1  C   UNL     1     -22.522  -4.187  -8.930  1.00  0.00     0.070 A 
HETATM    2  C   UNL     1     -21.438  -3.967  -9.782  1.00  0.00     0.074 A 
HETATM    3  C   UNL     1     -21.654  -3.772 -11.153  1.00  0.00     0.082 A 
HETATM    4  C   UNL     1     -22.952  -3.774 -11.683  1.00  0.00     0.048 A 
HETATM    5  C   UNL     1     -24.034  -3.966 -10.816  1.00  0.00     0.021 A 
HETATM    6  C   UNL     1     -23.815  -4.191  -9.454  1.00  0.00     0.038 A 
ENDROOT
BRANCH   4   7
HETATM    7  C   UNL     1     -23.206  -3.504 -13.126  1.00  0.00     0.195 C 
HETATM    8  O   UNL     1     -22.864  -2.431 -13.617  1.00  0.00    -0.287 OA
BRANCH   7   9
HETATM    9  C   UNL     1     -23.952  -4.479 -13.978  1.00  0.00     0.015 A 
HETATM   10  C   UNL     1     -25.195  -4.187 -14.549  1.00  0.00     0.015 A 
HETATM   11  C   UNL     1     -25.830  -5.129 -15.365  1.00  0.00     0.001 A 
HETATM   12  C   UNL     1     -25.239  -6.371 -15.592  1.00  0.00     0.000 A 
HETATM   13  C   UNL     1     -24.014  -6.679 -15.002  1.00  0.00     0.001 A 
HETATM   14  C   UNL     1     -23.373  -5.738 -14.195  1.00  0.00     0.015 A 
ENDBRANCH   7   9
ENDBRANCH   4   7
BRANCH   3  15
HETATM   15  O   UNL     1     -20.570  -3.620 -11.977  1.00  0.00    -0.360 OA
HETATM   16  H   UNL     1     -19.798  -3.336 -11.462  1.00  0.00     0.217 HD
ENDBRANCH   3  15
BRANCH   1  17
HETATM   17  O   UNL     1     -22.455  -4.413  -7.583  1.00  0.00    -0.356 OA
HETATM   18  C   UNL     1     -21.262  -4.016  -6.915  1.00  0.00     0.210 C 
ENDBRANCH   1  17
TORSDOF 4
BEGIN_RES ARG D 557
REMARK  4 active torsions:
REMARK  status: ('A' for Active; 'I' for Inactive)
REMARK    1  A    between atoms: CA   and  CB  
REMARK    2  A    between atoms: CB   and  CG  
REMARK    3  A    between atoms: CG   and  CD  
REMARK    4  A    between atoms: CD   and  NE  
REMARK       I    between atoms: NE   and  CZ  
REMARK       I    between atoms: CZ   and  NH1 
REMARK       I    between atoms: CZ   and  NH2 
ROOT
ATOM      1  CA  ARG D 557     -26.217   2.705 -17.014  1.00 35.49     0.159 C 
ENDROOT
BRANCH   1   2
ATOM      2  CB  ARG D 557     -26.789   1.319 -17.183  1.00 35.49     0.034 C 
BRANCH   2   3
ATOM      3  CG  ARG D 557     -28.223   1.228 -17.483  1.00 35.49     0.027 C 
BRANCH   3   4
ATOM      4  CD  ARG D 557     -28.943   0.345 -16.537  1.00 35.49     0.116 C 
BRANCH   4   5
ATOM      5  NE  ARG D 557     -29.326  -0.902 -17.144  1.00 35.49    -0.212 N 
ATOM      6  CZ  ARG D 557     -28.683  -2.042 -17.029  1.00 35.49     0.666 C 
ATOM      7  NH1 ARG D 557     -27.569  -2.161 -16.330  1.00 35.49    -0.235 N 
ATOM      8  NH2 ARG D 557     -29.188  -3.080 -17.632  1.00 35.49    -0.235 N 
ATOM      9  HH  ARG D 557     -27.221  -1.492 -15.924  1.00 35.49     0.174 HD
ATOM     10  HH  ARG D 557     -27.195  -2.931 -16.289  1.00 35.49     0.174 HD
ATOM     11  HH  ARG D 557     -29.912  -2.975 -18.070  1.00 35.49     0.174 HD
ATOM     12  HH  ARG D 557     -28.803  -3.833 -17.578  1.00 35.49     0.174 HD
ATOM     13  HE  ARG D 557     -29.993  -0.901 -17.672  1.00 35.49     0.178 HD
ENDBRANCH   4   5
ENDBRANCH   3   4
ENDBRANCH   2   3
ENDBRANCH   1   2
END_RES ARG D 557
BEGIN_RES GLU D 570
REMARK  3 active torsions:
REMARK  status: ('A' for Active; 'I' for Inactive)
REMARK    5  A    between atoms: CA   and  CB  
REMARK    6  A    between atoms: CB   and  CG  
REMARK    7  A    between atoms: CG   and  CD  
ROOT
ATOM     14  CA  GLU D 570     -18.033  -6.348 -13.375  1.00 32.92     0.160 C 
ENDROOT
BRANCH  14  15
ATOM     15  CB  GLU D 570     -19.500  -6.345 -13.794  1.00 32.92     0.043 C 
BRANCH  15  16
ATOM     16  CG  GLU D 570     -20.086  -7.634 -14.245  1.00 32.92     0.100 C 
BRANCH  16  17
ATOM     17  CD  GLU D 570     -20.524  -7.608 -15.691  1.00 32.92     0.185 C 
ATOM     18  OE1 GLU D 570     -20.846  -8.677 -16.244  1.00 32.92    -0.647 OA
ATOM     19  OE2 GLU D 570     -20.530  -6.510 -16.280  1.00 32.92    -0.647 OA
ENDBRANCH  16  17
ENDBRANCH  15  16
ENDBRANCH  14  15
END_RES GLU D 570
ENDMDL
MODEL 7
REMARK VINA RESULT:      -7.4      1.716      4.997
REMARK  4 active torsions:
REMARK  status: ('A' for Active; 'I' for Inactive)
REMARK    1  A    between atoms: O_2  and  C_3 
REMARK    2  A    between atoms: C_5  and  O_17 
REMARK    3  A    between atoms: C_6  and  C_9 
REMARK    4  A    between atoms: C_9  and  C_11 
ROOT
HETATM    1  C   UNL     1     -22.510  -4.179 -11.521  1.00  0.00     0.070 A 
HETATM    2  C   UNL     1     -23.503  -3.983 -10.559  1.00  0.00     0.074 A 
HETATM    3  C   UNL     1     -23.170  -3.998  -9.197  1.00  0.00     0.082 A 
HETATM    4  C   UNL     1     -21.844  -4.186  -8.784  1.00  0.00     0.048 A 
HETATM    5  C   UNL     1     -20.851  -4.351  -9.757  1.00  0.00     0.021 A 
HETATM    6  C   UNL     1     -21.189  -4.367 -11.114  1.00  0.00     0.038 A 
ENDROOT
BRANCH   4   7
HETATM    7  C   UNL     1     -21.461  -4.138  -7.345  1.00  0.00     0.195 C 
HETATM    8  O   UNL     1     -21.236  -3.057  -6.806  1.00  0.00    -0.287 OA
BRANCH   7   9
HETATM    9  C   UNL     1     -21.255  -5.390  -6.556  1.00  0.00     0.015 A 
HETATM   10  C   UNL     1     -20.062  -6.120  -6.593  1.00  0.00     0.015 A 
HETATM   11  C   UNL     1     -19.918  -7.268  -5.806  1.00  0.00     0.001 A 
HETATM   12  C   UNL     1     -20.969  -7.702  -5.001  1.00  0.00     0.000 A 
HETATM   13  C   UNL     1     -22.171  -6.996  -4.982  1.00  0.00     0.001 A 
HETATM   14  C   UNL     1     -22.316  -5.846  -5.759  1.00  0.00     0.015 A 
ENDBRANCH   7   9
ENDBRANCH   4   7
BRANCH   3  15
HETATM   15  O   UNL     1     -24.171  -3.866  -8.272  1.00  0.00    -0.360 OA
HETATM   16  H   UNL     1     -24.468  -2.943  -8.232  1.00  0.00     0.217 HD
ENDBRANCH   3  15
BRANCH   1  17
HETATM   17  O   UNL     1     -22.696  -4.211 -12.876  1.00  0.00    -0.356 OA
HETATM   18  C   UNL     1     -22.875  -2.964 -13.538  1.00  0.00     0.210 C 
ENDBRANCH   1  17
TORSDOF 4
BEGIN_RES ARG D 557
REMARK  4 active torsions:
REMARK  status: ('A' for Active; 'I' for Inactive)
REMARK    1  A    between atoms: CA   and  CB  
REMARK    2  A    between atoms: CB   and  CG  
REMARK    3  A    between atoms: CG   and  CD  
REMARK    4  A    between atoms: CD   and  NE  
REMARK       I    between atoms: NE   and  CZ  
REMARK       I    between atoms: CZ   and  NH1 
REMARK       I    between atoms: CZ   and  NH2 
ROOT
ATOM      1  CA  ARG D 557     -26.217   2.705 -17.014  1.00 35.49     0.159 C 
ENDROOT
BRANCH   1   2
ATOM      2  CB  ARG D 557     -26.789   1.319 -17.183  1.00 35.49     0.034 C 
BRANCH   2   3
ATOM      3  CG  ARG D 557     -28.158   1.106 -16.698  1.00 35.49     0.027 C 
BRANCH   3   4
ATOM      4  CD  ARG D 557     -28.796  -0.081 -17.312  1.00 35.49     0.116 C 
BRANCH   4   5
ATOM      5  NE  ARG D 557     -28.185  -1.310 -16.879  1.00 35.49    -0.212 N 
ATOM      6  CZ  ARG D 557     -28.679  -2.516 -17.052  1.00 35.49     0.666 C 
ATOM      7  NH1 ARG D 557     -29.836  -2.729 -17.651  1.00 35.49    -0.235 N 
ATOM      8  NH2 ARG D 557     -27.978  -3.521 -16.612  1.00 35.49    -0.235 N 
ATOM      9  HH  ARG D 557     -30.313  -2.083 -17.950  1.00 35.49     0.174 HD
ATOM     10  HH  ARG D 557     -30.107  -3.538 -17.737  1.00 35.49     0.174 HD
ATOM     11  HH  ARG D 557     -27.231  -3.353 -16.236  1.00 35.49     0.174 HD
ATOM     12  HH  ARG D 557     -28.262  -4.314 -16.709  1.00 35.49     0.174 HD
ATOM     13  HE  ARG D 557     -27.471  -1.261 -16.419  1.00 35.49     0.178 HD
ENDBRANCH   4   5
ENDBRANCH   3   4
ENDBRANCH   2   3
ENDBRANCH   1   2
END_RES ARG D 557
BEGIN_RES GLU D 570
REMARK  3 active torsions:
REMARK  status: ('A' for Active; 'I' for Inactive)
REMARK    5  A    between atoms: CA   and  CB  
REMARK    6  A    between atoms: CB   and  CG  
REMARK    7  A    between atoms: CG   and  CD  
ROOT
ATOM     14  CA  GLU D 570     -18.033  -6.348 -13.375  1.00 32.92     0.160 C 
ENDROOT
BRANCH  14  15
ATOM     15  CB  GLU D 570     -19.500  -6.345 -13.794  1.00 32.92     0.043 C 
BRANCH  15  16
ATOM     16  CG  GLU D 570     -19.803  -6.085 -15.225  1.00 32.92     0.100 C 
BRANCH  16  17
ATOM     17  CD  GLU D 570     -21.279  -5.910 -15.493  1.00 32.92     0.185 C 
ATOM     18  OE1 GLU D 570     -22.085  -6.715 -14.989  1.00 32.92    -0.647 OA
ATOM     19  OE2 GLU D 570     -21.633  -4.966 -16.228  1.00 32.92    -0.647 OA
ENDBRANCH  16  17
ENDBRANCH  15  16
ENDBRANCH  14  15
END_RES GLU D 570
ENDMDL
MODEL 8
REMARK VINA RESULT:      -7.4      5.608      9.122
REMARK  4 active torsions:
REMARK  status: ('A' for Active; 'I' for Inactive)
REMARK    1  A    between atoms: O_2  and  C_3 
REMARK    2  A    between atoms: C_5  and  O_17 
REMARK    3  A    between atoms: C_6  and  C_9 
REMARK    4  A    between atoms: C_9  and  C_11 
ROOT
HETATM    1  C   UNL     1     -20.702  -7.415  -4.652  1.00  0.00     0.070 A 
HETATM    2  C   UNL     1     -21.362  -6.440  -3.902  1.00  0.00     0.074 A 
HETATM    3  C   UNL     1     -21.809  -6.737  -2.607  1.00  0.00     0.082 A 
HETATM    4  C   UNL     1     -21.582  -8.000  -2.042  1.00  0.00     0.048 A 
HETATM    5  C   UNL     1     -20.893  -8.961  -2.791  1.00  0.00     0.021 A 
HETATM    6  C   UNL     1     -20.475  -8.673  -4.094  1.00  0.00     0.038 A 
ENDROOT
BRANCH   4   7
HETATM    7  C   UNL     1     -21.990  -8.314  -0.644  1.00  0.00     0.195 C 
HETATM    8  O   UNL     1     -22.016  -7.423   0.201  1.00  0.00    -0.287 OA
BRANCH   7   9
HETATM    9  C   UNL     1     -22.288  -9.715  -0.219  1.00  0.00     0.015 A 
HETATM   10  C   UNL     1     -23.550 -10.300  -0.375  1.00  0.00     0.015 A 
HETATM   11  C   UNL     1     -23.759 -11.628   0.013  1.00  0.00     0.001 A 
HETATM   12  C   UNL     1     -22.719 -12.365   0.577  1.00  0.00     0.000 A 
HETATM   13  C   UNL     1     -21.468 -11.779   0.762  1.00  0.00     0.001 A 
HETATM   14  C   UNL     1     -21.253 -10.457   0.368  1.00  0.00     0.015 A 
ENDBRANCH   7   9
ENDBRANCH   4   7
BRANCH   3  15
HETATM   15  O   UNL     1     -22.508  -5.785  -1.915  1.00  0.00    -0.360 OA
HETATM   16  H   UNL     1     -21.903  -5.106  -1.578  1.00  0.00     0.217 HD
ENDBRANCH   3  15
BRANCH   1  17
HETATM   17  O   UNL     1     -20.235  -7.269  -5.930  1.00  0.00    -0.356 OA
HETATM   18  C   UNL     1     -20.664  -6.120  -6.652  1.00  0.00     0.210 C 
ENDBRANCH   1  17
TORSDOF 4
BEGIN_RES ARG D 557
REMARK  4 active torsions:
REMARK  status: ('A' for Active; 'I' for Inactive)
REMARK    1  A    between atoms: CA   and  CB  
REMARK    2  A    between atoms: CB   and  CG  
REMARK    3  A    between atoms: CG   and  CD  
REMARK    4  A    between atoms: CD   and  NE  
REMARK       I    between atoms: NE   and  CZ  
REMARK       I    between atoms: CZ   and  NH1 
REMARK       I    between atoms: CZ   and  NH2 
ROOT
ATOM      1  CA  ARG D 557     -26.217   2.705 -17.014  1.00 35.49     0.159 C 
ENDROOT
BRANCH   1   2
ATOM      2  CB  ARG D 557     -26.789   1.319 -17.183  1.00 35.49     0.034 C 
BRANCH   2   3
ATOM      3  CG  ARG D 557     -25.835   0.203 -17.162  1.00 35.49     0.027 C 
BRANCH   3   4
ATOM      4  CD  ARG D 557     -24.745   0.412 -16.181  1.00 35.49     0.116 C 
BRANCH   4   5
ATOM      5  NE  ARG D 557     -24.890  -0.427 -15.022  1.00 35.49    -0.212 N 
ATOM      6  CZ  ARG D 557     -24.076  -1.397 -14.668  1.00 35.49     0.666 C 
ATOM      7  NH1 ARG D 557     -23.009  -1.720 -15.375  1.00 35.49    -0.235 N 
ATOM      8  NH2 ARG D 557     -24.352  -2.042 -13.571  1.00 35.49    -0.235 N 
ATOM      9  HH  ARG D 557     -22.808  -1.308 -16.099  1.00 35.49     0.174 HD
ATOM     10  HH  ARG D 557     -22.513  -2.360 -15.094  1.00 35.49     0.174 HD
ATOM     11  HH  ARG D 557     -25.043  -1.806 -13.131  1.00 35.49     0.174 HD
ATOM     12  HH  ARG D 557     -23.847  -2.671 -13.309  1.00 35.49     0.174 HD
ATOM     13  HE  ARG D 557     -25.591  -0.336 -14.548  1.00 35.49     0.178 HD
ENDBRANCH   4   5
ENDBRANCH   3   4
ENDBRANCH   2   3
ENDBRANCH   1   2
END_RES ARG D 557
BEGIN_RES GLU D 570
REMARK  3 active torsions:
REMARK  status: ('A' for Active; 'I' for Inactive)
REMARK    5  A    between atoms: CA   and  CB  
REMARK    6  A    between atoms: CB   and  CG  
REMARK    7  A    between atoms: CG   and  CD  
ROOT
ATOM     14  CA  GLU D 570     -18.033  -6.348 -13.375  1.00 32.92     0.160 C 
ENDROOT
BRANCH  14  15
ATOM     15  CB  GLU D 570     -19.500  -6.345 -13.794  1.00 32.92     0.043 C 
BRANCH  15  16
ATOM     16  CG  GLU D 570     -20.441  -5.525 -12.987  1.00 32.92     0.100 C 
BRANCH  16  17
ATOM     17  CD  GLU D 570     -21.746  -5.254 -13.699  1.00 32.92     0.185 C 
ATOM     18  OE1 GLU D 570     -22.221  -6.131 -14.446  1.00 32.92    -0.647 OA
ATOM     19  OE2 GLU D 570     -22.290  -4.147 -13.520  1.00 32.92    -0.647 OA
ENDBRANCH  16  17
ENDBRANCH  15  16
ENDBRANCH  14  15
END_RES GLU D 570
ENDMDL
MODEL 9
REMARK VINA RESULT:      -7.3      4.462      8.840
REMARK  4 active torsions:
REMARK  status: ('A' for Active; 'I' for Inactive)
REMARK    1  A    between atoms: O_2  and  C_3 
REMARK    2  A    between atoms: C_5  and  O_17 
REMARK    3  A    between atoms: C_6  and  C_9 
REMARK    4  A    between atoms: C_9  and  C_11 
ROOT
HETATM    1  C   UNL     1     -31.063  -4.934 -17.057  1.00  0.00     0.070 A 
HETATM    2  C   UNL     1     -30.827  -6.298 -17.242  1.00  0.00     0.074 A 
HETATM    3  C   UNL     1     -29.624  -6.728 -17.818  1.00  0.00     0.082 A 
HETATM    4  C   UNL     1     -28.637  -5.806 -18.193  1.00  0.00     0.048 A 
HETATM    5  C   UNL     1     -28.871  -4.443 -17.976  1.00  0.00     0.021 A 
HETATM    6  C   UNL     1     -30.084  -4.013 -17.430  1.00  0.00     0.038 A 
ENDROOT
BRANCH   4   7
HETATM    7  C   UNL     1     -27.326  -6.247 -18.745  1.00  0.00     0.195 C 
HETATM    8  O   UNL     1     -27.206  -6.450 -19.951  1.00  0.00    -0.287 OA
BRANCH   7   9
HETATM    9  C   UNL     1     -26.166  -6.536 -17.849  1.00  0.00     0.015 A 
HETATM   10  C   UNL     1     -24.918  -6.944 -18.335  1.00  0.00     0.015 A 
HETATM   11  C   UNL     1     -23.860  -7.168 -17.449  1.00  0.00     0.001 A 
HETATM   12  C   UNL     1     -24.049  -7.010 -16.077  1.00  0.00     0.000 A 
HETATM   13  C   UNL     1     -25.297  -6.633 -15.584  1.00  0.00     0.001 A 
HETATM   14  C   UNL     1     -26.353  -6.399 -16.466  1.00  0.00     0.015 A 
ENDBRANCH   7   9
ENDBRANCH   4   7
BRANCH   3  15
HETATM   15  O   UNL     1     -29.443  -8.066 -18.046  1.00  0.00    -0.360 OA
HETATM   16  H   UNL     1     -29.465  -8.248 -18.999  1.00  0.00     0.217 HD
ENDBRANCH   3  15
BRANCH   1  17
HETATM   17  O   UNL     1     -32.196  -4.377 -16.531  1.00  0.00    -0.356 OA
HETATM   18  C   UNL     1     -32.917  -3.469 -17.356  1.00  0.00     0.210 C 
ENDBRANCH   1  17
TORSDOF 4
BEGIN_RES ARG D 557
REMARK  4 active torsions:
REMARK  status: ('A' for Active; 'I' for Inactive)
REMARK    1  A    between atoms: CA   and  CB  
REMARK    2  A    between atoms: CB   and  CG  
REMARK    3  A    between atoms: CG   and  CD  
REMARK    4  A    between atoms: CD   and  NE  
REMARK       I    between atoms: NE   and  CZ  
REMARK       I    between atoms: CZ   and  NH1 
REMARK       I    between atoms: CZ   and  NH2 
ROOT
ATOM      1  CA  ARG D 557     -26.217   2.705 -17.014  1.00 35.49     0.159 C 
ENDROOT
BRANCH   1   2
ATOM      2  CB  ARG D 557     -26.789   1.319 -17.183  1.00 35.49     0.034 C 
BRANCH   2   3
ATOM      3  CG  ARG D 557     -25.865   0.195 -16.990  1.00 35.49     0.027 C 
BRANCH   3   4
ATOM      4  CD  ARG D 557     -26.267  -0.679 -15.864  1.00 35.49     0.116 C 
BRANCH   4   5
ATOM      5  NE  ARG D 557     -25.189  -0.897 -14.936  1.00 35.49    -0.212 N 
ATOM      6  CZ  ARG D 557     -24.885  -2.042 -14.367  1.00 35.49     0.666 C 
ATOM      7  NH1 ARG D 557     -25.572  -3.148 -14.587  1.00 35.49    -0.235 N 
ATOM      8  NH2 ARG D 557     -23.859  -2.061 -13.566  1.00 35.49    -0.235 N 
ATOM      9  HH  ARG D 557     -26.249  -3.159 -15.112  1.00 35.49     0.174 HD
ATOM     10  HH  ARG D 557     -25.326  -3.866 -14.190  1.00 35.49     0.174 HD
ATOM     11  HH  ARG D 557     -23.429  -1.334 -13.449  1.00 35.49     0.174 HD
ATOM     12  HH  ARG D 557     -23.630  -2.782 -13.184  1.00 35.49     0.174 HD
ATOM     13  HE  ARG D 557     -24.738  -0.222 -14.681  1.00 35.49     0.178 HD
ENDBRANCH   4   5
ENDBRANCH   3   4
ENDBRANCH   2   3
ENDBRANCH   1   2
END_RES ARG D 557
BEGIN_RES GLU D 570
REMARK  3 active torsions:
REMARK  status: ('A' for Active; 'I' for Inactive)
REMARK    5  A    between atoms: CA   and  CB  
REMARK    6  A    between atoms: CB   and  CG  
REMARK    7  A    between atoms: CG   and  CD  
ROOT
ATOM     14  CA  GLU D 570     -18.033  -6.348 -13.375  1.00 32.92     0.160 C 
ENDROOT
BRANCH  14  15
ATOM     15  CB  GLU D 570     -19.500  -6.345 -13.794  1.00 32.92     0.043 C 
BRANCH  15  16
ATOM     16  CG  GLU D 570     -20.448  -5.560 -12.962  1.00 32.92     0.100 C 
BRANCH  16  17
ATOM     17  CD  GLU D 570     -21.671  -5.111 -13.727  1.00 32.92     0.185 C 
ATOM     18  OE1 GLU D 570     -21.575  -4.895 -14.950  1.00 32.92    -0.647 OA
ATOM     19  OE2 GLU D 570     -22.733  -4.957 -13.092  1.00 32.92    -0.647 OA
ENDBRANCH  16  17
ENDBRANCH  15  16
ENDBRANCH  14  15
END_RES GLU D 570
ENDMDL
