MODEL 1
REMARK VINA RESULT:      -7.8      0.000      0.000
REMARK  22 active torsions:
REMARK  status: ('A' for Active; 'I' for Inactive)
REMARK    1  A    between atoms: C_2  and  C_4 
REMARK    2  A    between atoms: C_4  and  C_5 
REMARK    3  A    between atoms: C_5  and  C_6 
REMARK    4  A    between atoms: C_6  and  C_7 
REMARK    5  A    between atoms: C_7  and  C_8 
REMARK    6  A    between atoms: C_8  and  C_9 
REMARK    7  A    between atoms: C_9  and  C_10 
REMARK    8  A    between atoms: C_10  and  C_11 
REMARK    9  A    between atoms: C_11  and  C_12 
REMARK   10  A    between atoms: C_12  and  C_13 
REMARK   11  A    between atoms: C_13  and  C_14 
REMARK   12  A    between atoms: C_14  and  C_15 
REMARK   13  A    between atoms: C_15  and  C_16 
REMARK   14  A    between atoms: C_16  and  C_17 
REMARK   15  A    between atoms: C_17  and  C_18 
REMARK   16  A    between atoms: C_18  and  O_20 
REMARK   17  A    between atoms: O_20  and  C_21 
REMARK   18  A    between atoms: C_37  and  C_38 
REMARK   19  A    between atoms: C_38  and  C_40 
REMARK   20  A    between atoms: C_40  and  C_41 
REMARK   21  A    between atoms: C_41  and  C_42 
REMARK   22  A    between atoms: C_42  and  C_43 
ROOT
HETATM    1  C   UNL     1     -21.114 -10.445   0.325  1.00  0.00     0.136 C 
HETATM    2  C   UNL     1     -21.082  -8.992   0.784  1.00  0.00     0.034 C 
HETATM    3  C   UNL     1     -20.676  -8.126  -0.378  1.00  0.00     0.016 C 
HETATM    4  C   UNL     1     -21.844  -8.211  -1.410  1.00  0.00    -0.017 C 
HETATM    5  C   UNL     1     -21.203  -7.856  -2.732  1.00  0.00     0.003 C 
HETATM    6  C   UNL     1     -21.211  -6.304  -2.840  1.00  0.00     0.007 C 
HETATM    7  C   UNL     1     -20.650  -6.130  -4.146  1.00  0.00     0.010 C 
HETATM    8  C   UNL     1     -21.615  -6.802  -5.172  1.00  0.00    -0.036 C 
HETATM    9  C   UNL     1     -21.177  -8.252  -5.298  1.00  0.00    -0.001 C 
HETATM   10  C   UNL     1     -21.678  -8.757  -3.998  1.00  0.00    -0.001 C 
HETATM   11  C   UNL     1     -21.707 -10.234  -3.951  1.00  0.00     0.033 C 
HETATM   12  C   UNL     1     -22.470 -10.461  -2.713  1.00  0.00    -0.023 C 
HETATM   13  C   UNL     1     -22.416  -9.686  -1.600  1.00  0.00    -0.072 C 
HETATM   14  C   UNL     1     -22.388 -10.649  -0.442  1.00  0.00     0.067 C 
HETATM   15  C   UNL     1     -19.680  -8.239  -5.564  1.00  0.00     0.006 C 
HETATM   16  C   UNL     1     -19.551  -6.846  -6.347  1.00  0.00     0.006 C 
HETATM   17  C   UNL     1     -21.154  -6.258  -6.487  1.00  0.00    -0.002 C 
HETATM   18  C   UNL     1     -23.179  -6.717  -4.760  1.00  0.00     0.016 C 
HETATM   19  C   UNL     1     -22.767  -6.990  -0.884  1.00  0.00     0.020 C 
ENDROOT
BRANCH   1  20
HETATM   20  O   UNL     1     -20.017 -10.755  -0.613  1.00  0.00    -0.316 OA
BRANCH  20  21
HETATM   21  C   UNL     1     -19.334 -11.875  -0.430  1.00  0.00     0.259 C 
HETATM   22  O   UNL     1     -19.584 -12.725   0.379  1.00  0.00    -0.265 OA
BRANCH  21  23
HETATM   23  C   UNL     1     -18.210 -12.041  -1.444  1.00  0.00     0.111 C 
BRANCH  23  24
HETATM   24  C   UNL     1     -18.453 -11.350  -2.770  1.00  0.00     0.010 C 
BRANCH  24  25
HETATM   25  C   UNL     1     -17.937  -9.929  -2.860  1.00  0.00     0.000 C 
BRANCH  25  26
HETATM   26  C   UNL     1     -16.414  -9.884  -2.784  1.00  0.00     0.000 C 
BRANCH  26  27
HETATM   27  C   UNL     1     -15.807  -9.581  -4.142  1.00  0.00     0.000 C 
BRANCH  27  28
HETATM   28  C   UNL     1     -15.407 -10.879  -4.828  1.00  0.00     0.000 C 
BRANCH  28  29
HETATM   29  C   UNL     1     -16.089 -10.988  -6.180  1.00  0.00     0.000 C 
BRANCH  29  30
HETATM   30  C   UNL     1     -17.130 -12.094  -6.152  1.00  0.00     0.000 C 
BRANCH  30  31
HETATM   31  C   UNL     1     -18.473 -11.561  -6.621  1.00  0.00     0.000 C 
BRANCH  31  32
HETATM   32  C   UNL     1     -19.599 -12.400  -6.037  1.00  0.00     0.000 C 
BRANCH  32  33
HETATM   33  C   UNL     1     -20.744 -12.501  -7.029  1.00  0.00     0.000 C 
BRANCH  33  34
HETATM   34  C   UNL     1     -21.602 -13.725  -6.739  1.00  0.00     0.000 C 
BRANCH  34  35
HETATM   35  C   UNL     1     -22.745 -13.334  -5.815  1.00  0.00     0.000 C 
BRANCH  35  36
HETATM   36  C   UNL     1     -22.965 -14.371  -4.717  1.00  0.00     0.004 C 
BRANCH  36  37
HETATM   37  C   UNL     1     -22.652 -13.831  -3.312  1.00  0.00    -0.023 C 
HETATM   38  C   UNL     1     -23.511 -14.572  -2.283  1.00  0.00     0.009 C 
HETATM   39  C   UNL     1     -21.163 -13.961  -2.976  1.00  0.00     0.009 C 
ENDBRANCH  36  37
ENDBRANCH  35  36
ENDBRANCH  34  35
ENDBRANCH  33  34
ENDBRANCH  32  33
ENDBRANCH  31  32
ENDBRANCH  30  31
ENDBRANCH  29  30
ENDBRANCH  28  29
ENDBRANCH  27  28
ENDBRANCH  26  27
ENDBRANCH  25  26
ENDBRANCH  24  25
ENDBRANCH  23  24
ENDBRANCH  21  23
ENDBRANCH  20  21
ENDBRANCH   1  20
BRANCH  17  40
HETATM   40  C   UNL     1     -21.896  -4.807  -6.579  1.00  0.00    -0.014 C 
HETATM   41  C   UNL     1     -20.891  -3.605  -6.838  1.00  0.00     0.010 C 
BRANCH  40  42
HETATM   42  C   UNL     1     -23.116  -4.574  -7.567  1.00  0.00     0.005 C 
BRANCH  42  43
HETATM   43  C   UNL     1     -22.707  -3.793  -8.829  1.00  0.00     0.001 C 
BRANCH  43  44
HETATM   44  C   UNL     1     -22.838  -4.598 -10.096  1.00  0.00     0.004 C 
BRANCH  44  45
HETATM   45  C   UNL     1     -21.761  -4.315 -11.134  1.00  0.00    -0.023 C 
HETATM   46  C   UNL     1     -21.940  -2.943 -11.777  1.00  0.00     0.009 C 
HETATM   47  C   UNL     1     -20.416  -4.407 -10.427  1.00  0.00     0.009 C 
ENDBRANCH  44  45
ENDBRANCH  43  44
ENDBRANCH  42  43
ENDBRANCH  40  42
ENDBRANCH  17  40
TORSDOF 22
BEGIN_RES ARG D 557
REMARK  4 active torsions:
REMARK  status: ('A' for Active; 'I' for Inactive)
REMARK    1  A    between atoms: CA   and  CB  
REMARK    2  A    between atoms: CB   and  CG  
REMARK    3  A    between atoms: CG   and  CD  
REMARK    4  A    between atoms: CD   and  NE  
REMARK       I    between atoms: NE   and  CZ  
REMARK       I    between atoms: CZ   and  NH1 
REMARK       I    between atoms: CZ   and  NH2 
ROOT
ATOM      1  CA  ARG D 557     -26.217   2.705 -17.014  1.00 35.49     0.159 C 
ENDROOT
BRANCH   1   2
ATOM      2  CB  ARG D 557     -26.789   1.319 -17.183  1.00 35.49     0.034 C 
BRANCH   2   3
ATOM      3  CG  ARG D 557     -25.935   0.197 -16.773  1.00 35.49     0.027 C 
BRANCH   3   4
ATOM      4  CD  ARG D 557     -26.703  -0.885 -16.116  1.00 35.49     0.116 C 
BRANCH   4   5
ATOM      5  NE  ARG D 557     -25.985  -1.466 -15.012  1.00 35.49    -0.212 N 
ATOM      6  CZ  ARG D 557     -25.992  -2.736 -14.674  1.00 35.49     0.666 C 
ATOM      7  NH1 ARG D 557     -26.696  -3.640 -15.330  1.00 35.49    -0.235 N 
ATOM      8  NH2 ARG D 557     -25.264  -3.090 -13.655  1.00 35.49    -0.235 N 
ATOM      9  HH  ARG D 557     -27.180  -3.430 -16.005  1.00 35.49     0.174 HD
ATOM     10  HH  ARG D 557     -26.659  -4.455 -15.065  1.00 35.49     0.174 HD
ATOM     11  HH  ARG D 557     -24.814  -2.486 -13.255  1.00 35.49     0.174 HD
ATOM     12  HH  ARG D 557     -25.240  -3.901 -13.410  1.00 35.49     0.174 HD
ATOM     13  HE  ARG D 557     -25.563  -0.943 -14.491  1.00 35.49     0.178 HD
ENDBRANCH   4   5
ENDBRANCH   3   4
ENDBRANCH   2   3
ENDBRANCH   1   2
END_RES ARG D 557
BEGIN_RES GLU D 570
REMARK  3 active torsions:
REMARK  status: ('A' for Active; 'I' for Inactive)
REMARK    5  A    between atoms: CA   and  CB  
REMARK    6  A    between atoms: CB   and  CG  
REMARK    7  A    between atoms: CG   and  CD  
ROOT
ATOM     14  CA  GLU D 570     -18.033  -6.348 -13.375  1.00 32.92     0.160 C 
ENDROOT
BRANCH  14  15
ATOM     15  CB  GLU D 570     -19.500  -6.345 -13.794  1.00 32.92     0.043 C 
BRANCH  15  16
ATOM     16  CG  GLU D 570     -19.800  -6.528 -15.238  1.00 32.92     0.100 C 
BRANCH  16  17
ATOM     17  CD  GLU D 570     -21.133  -7.196 -15.483  1.00 32.92     0.185 C 
ATOM     18  OE1 GLU D 570     -22.166  -6.673 -15.022  1.00 32.92    -0.647 OA
ATOM     19  OE2 GLU D 570     -21.142  -8.263 -16.128  1.00 32.92    -0.647 OA
ENDBRANCH  16  17
ENDBRANCH  15  16
ENDBRANCH  14  15
END_RES GLU D 570
ENDMDL
MODEL 2
REMARK VINA RESULT:      -7.7      1.642      7.342
REMARK  22 active torsions:
REMARK  status: ('A' for Active; 'I' for Inactive)
REMARK    1  A    between atoms: C_2  and  C_4 
REMARK    2  A    between atoms: C_4  and  C_5 
REMARK    3  A    between atoms: C_5  and  C_6 
REMARK    4  A    between atoms: C_6  and  C_7 
REMARK    5  A    between atoms: C_7  and  C_8 
REMARK    6  A    between atoms: C_8  and  C_9 
REMARK    7  A    between atoms: C_9  and  C_10 
REMARK    8  A    between atoms: C_10  and  C_11 
REMARK    9  A    between atoms: C_11  and  C_12 
REMARK   10  A    between atoms: C_12  and  C_13 
REMARK   11  A    between atoms: C_13  and  C_14 
REMARK   12  A    between atoms: C_14  and  C_15 
REMARK   13  A    between atoms: C_15  and  C_16 
REMARK   14  A    between atoms: C_16  and  C_17 
REMARK   15  A    between atoms: C_17  and  C_18 
REMARK   16  A    between atoms: C_18  and  O_20 
REMARK   17  A    between atoms: O_20  and  C_21 
REMARK   18  A    between atoms: C_37  and  C_38 
REMARK   19  A    between atoms: C_38  and  C_40 
REMARK   20  A    between atoms: C_40  and  C_41 
REMARK   21  A    between atoms: C_41  and  C_42 
REMARK   22  A    between atoms: C_42  and  C_43 
ROOT
HETATM    1  C   UNL     1     -23.052 -10.688  -0.006  1.00  0.00     0.136 C 
HETATM    2  C   UNL     1     -23.910 -11.239  -1.139  1.00  0.00     0.034 C 
HETATM    3  C   UNL     1     -23.155 -11.096  -2.433  1.00  0.00     0.016 C 
HETATM    4  C   UNL     1     -21.934 -12.062  -2.329  1.00  0.00    -0.017 C 
HETATM    5  C   UNL     1     -20.926 -11.498  -3.305  1.00  0.00     0.003 C 
HETATM    6  C   UNL     1     -21.275 -12.078  -4.706  1.00  0.00     0.007 C 
HETATM    7  C   UNL     1     -20.214 -11.521  -5.491  1.00  0.00     0.010 C 
HETATM    8  C   UNL     1     -18.868 -12.081  -4.935  1.00  0.00    -0.036 C 
HETATM    9  C   UNL     1     -18.414 -11.122  -3.845  1.00  0.00    -0.001 C 
HETATM   10  C   UNL     1     -19.384 -11.499  -2.791  1.00  0.00    -0.001 C 
HETATM   11  C   UNL     1     -18.993 -10.976  -1.464  1.00  0.00     0.033 C 
HETATM   12  C   UNL     1     -19.935 -11.695  -0.590  1.00  0.00    -0.023 C 
HETATM   13  C   UNL     1     -21.213 -12.023  -0.908  1.00  0.00    -0.072 C 
HETATM   14  C   UNL     1     -22.022 -11.727   0.328  1.00  0.00     0.067 C 
HETATM   15  C   UNL     1     -18.466  -9.723  -4.438  1.00  0.00     0.006 C 
HETATM   16  C   UNL     1     -18.163 -10.064  -5.975  1.00  0.00     0.006 C 
HETATM   17  C   UNL     1     -17.886 -11.754  -6.015  1.00  0.00    -0.002 C 
HETATM   18  C   UNL     1     -18.968 -13.589  -4.356  1.00  0.00     0.016 C 
HETATM   19  C   UNL     1     -22.598 -13.414  -2.921  1.00  0.00     0.020 C 
ENDROOT
BRANCH   1  20
HETATM   20  O   UNL     1     -22.301  -9.484  -0.414  1.00  0.00    -0.316 OA
BRANCH  20  21
HETATM   21  C   UNL     1     -22.716  -8.306   0.029  1.00  0.00     0.259 C 
HETATM   22  O   UNL     1     -23.389  -8.121   1.005  1.00  0.00    -0.265 OA
BRANCH  21  23
HETATM   23  C   UNL     1     -22.161  -7.151  -0.792  1.00  0.00     0.111 C 
BRANCH  23  24
HETATM   24  C   UNL     1     -20.942  -7.497  -1.622  1.00  0.00     0.010 C 
BRANCH  24  25
HETATM   25  C   UNL     1     -21.164  -7.500  -3.121  1.00  0.00     0.000 C 
BRANCH  25  26
HETATM   26  C   UNL     1     -21.504  -6.105  -3.636  1.00  0.00     0.000 C 
BRANCH  26  27
HETATM   27  C   UNL     1     -21.596  -6.088  -5.151  1.00  0.00     0.000 C 
BRANCH  27  28
HETATM   28  C   UNL     1     -20.571  -7.046  -5.740  1.00  0.00     0.000 C 
BRANCH  28  29
HETATM   29  C   UNL     1     -19.714  -6.328  -6.768  1.00  0.00     0.000 C 
BRANCH  29  30
HETATM   30  C   UNL     1     -19.807  -4.825  -6.567  1.00  0.00     0.000 C 
BRANCH  30  31
HETATM   31  C   UNL     1     -20.124  -4.141  -7.885  1.00  0.00     0.000 C 
BRANCH  31  32
HETATM   32  C   UNL     1     -21.542  -3.591  -7.858  1.00  0.00     0.000 C 
BRANCH  32  33
HETATM   33  C   UNL     1     -22.510  -4.613  -8.427  1.00  0.00     0.000 C 
BRANCH  33  34
HETATM   34  C   UNL     1     -23.793  -3.938  -8.894  1.00  0.00     0.000 C 
BRANCH  34  35
HETATM   35  C   UNL     1     -23.626  -3.481 -10.336  1.00  0.00     0.000 C 
BRANCH  35  36
HETATM   36  C   UNL     1     -23.304  -4.647 -11.265  1.00  0.00     0.004 C 
BRANCH  36  37
HETATM   37  C   UNL     1     -22.162  -4.334 -12.246  1.00  0.00    -0.023 C 
HETATM   38  C   UNL     1     -22.726  -3.582 -13.455  1.00  0.00     0.009 C 
HETATM   39  C   UNL     1     -21.046  -3.529 -11.573  1.00  0.00     0.009 C 
ENDBRANCH  36  37
ENDBRANCH  35  36
ENDBRANCH  34  35
ENDBRANCH  33  34
ENDBRANCH  32  33
ENDBRANCH  31  32
ENDBRANCH  30  31
ENDBRANCH  29  30
ENDBRANCH  28  29
ENDBRANCH  27  28
ENDBRANCH  26  27
ENDBRANCH  25  26
ENDBRANCH  24  25
ENDBRANCH  23  24
ENDBRANCH  21  23
ENDBRANCH  20  21
ENDBRANCH   1  20
BRANCH  17  40
HETATM   40  C   UNL     1     -18.075 -12.976  -7.081  1.00  0.00    -0.014 C 
HETATM   41  C   UNL     1     -18.705 -12.510  -8.463  1.00  0.00     0.010 C 
BRANCH  40  42
HETATM   42  C   UNL     1     -16.862 -13.929  -7.457  1.00  0.00     0.005 C 
BRANCH  42  43
HETATM   43  C   UNL     1     -15.933 -14.195  -6.260  1.00  0.00     0.001 C 
BRANCH  43  44
HETATM   44  C   UNL     1     -14.726 -13.294  -6.230  1.00  0.00     0.004 C 
BRANCH  44  45
HETATM   45  C   UNL     1     -14.446 -12.665  -4.872  1.00  0.00    -0.023 C 
HETATM   46  C   UNL     1     -14.780 -11.177  -4.857  1.00  0.00     0.009 C 
HETATM   47  C   UNL     1     -15.281 -13.416  -3.844  1.00  0.00     0.009 C 
ENDBRANCH  44  45
ENDBRANCH  43  44
ENDBRANCH  42  43
ENDBRANCH  40  42
ENDBRANCH  17  40
TORSDOF 22
BEGIN_RES ARG D 557
REMARK  4 active torsions:
REMARK  status: ('A' for Active; 'I' for Inactive)
REMARK    1  A    between atoms: CA   and  CB  
REMARK    2  A    between atoms: CB   and  CG  
REMARK    3  A    between atoms: CG   and  CD  
REMARK    4  A    between atoms: CD   and  NE  
REMARK       I    between atoms: NE   and  CZ  
REMARK       I    between atoms: CZ   and  NH1 
REMARK       I    between atoms: CZ   and  NH2 
ROOT
ATOM      1  CA  ARG D 557     -26.217   2.705 -17.014  1.00 35.49     0.159 C 
ENDROOT
BRANCH   1   2
ATOM      2  CB  ARG D 557     -26.789   1.319 -17.183  1.00 35.49     0.034 C 
BRANCH   2   3
ATOM      3  CG  ARG D 557     -28.217   1.153 -16.885  1.00 35.49     0.027 C 
BRANCH   3   4
ATOM      4  CD  ARG D 557     -28.560  -0.243 -16.528  1.00 35.49     0.116 C 
BRANCH   4   5
ATOM      5  NE  ARG D 557     -27.475  -0.914 -15.861  1.00 35.49    -0.212 N 
ATOM      6  CZ  ARG D 557     -27.211  -2.200 -15.927  1.00 35.49     0.666 C 
ATOM      7  NH1 ARG D 557     -27.950  -3.040 -16.627  1.00 35.49    -0.235 N 
ATOM      8  NH2 ARG D 557     -26.173  -2.634 -15.273  1.00 35.49    -0.235 N 
ATOM      9  HH  ARG D 557     -28.637  -2.777 -17.067  1.00 35.49     0.174 HD
ATOM     10  HH  ARG D 557     -27.728  -3.868 -16.635  1.00 35.49     0.174 HD
ATOM     11  HH  ARG D 557     -25.710  -2.066 -14.836  1.00 35.49     0.174 HD
ATOM     12  HH  ARG D 557     -25.968  -3.456 -15.295  1.00 35.49     0.174 HD
ATOM     13  HE  ARG D 557     -26.991  -0.460 -15.329  1.00 35.49     0.178 HD
ENDBRANCH   4   5
ENDBRANCH   3   4
ENDBRANCH   2   3
ENDBRANCH   1   2
END_RES ARG D 557
BEGIN_RES GLU D 570
REMARK  3 active torsions:
REMARK  status: ('A' for Active; 'I' for Inactive)
REMARK    5  A    between atoms: CA   and  CB  
REMARK    6  A    between atoms: CB   and  CG  
REMARK    7  A    between atoms: CG   and  CD  
ROOT
ATOM     14  CA  GLU D 570     -18.033  -6.348 -13.375  1.00 32.92     0.160 C 
ENDROOT
BRANCH  14  15
ATOM     15  CB  GLU D 570     -19.500  -6.345 -13.794  1.00 32.92     0.043 C 
BRANCH  15  16
ATOM     16  CG  GLU D 570     -20.079  -7.629 -14.267  1.00 32.92     0.100 C 
BRANCH  16  17
ATOM     17  CD  GLU D 570     -20.906  -7.475 -15.522  1.00 32.92     0.185 C 
ATOM     18  OE1 GLU D 570     -21.286  -6.338 -15.862  1.00 32.92    -0.647 OA
ATOM     19  OE2 GLU D 570     -21.191  -8.505 -16.164  1.00 32.92    -0.647 OA
ENDBRANCH  16  17
ENDBRANCH  15  16
ENDBRANCH  14  15
END_RES GLU D 570
ENDMDL
MODEL 3
REMARK VINA RESULT:      -7.7      1.498      3.044
REMARK  22 active torsions:
REMARK  status: ('A' for Active; 'I' for Inactive)
REMARK    1  A    between atoms: C_2  and  C_4 
REMARK    2  A    between atoms: C_4  and  C_5 
REMARK    3  A    between atoms: C_5  and  C_6 
REMARK    4  A    between atoms: C_6  and  C_7 
REMARK    5  A    between atoms: C_7  and  C_8 
REMARK    6  A    between atoms: C_8  and  C_9 
REMARK    7  A    between atoms: C_9  and  C_10 
REMARK    8  A    between atoms: C_10  and  C_11 
REMARK    9  A    between atoms: C_11  and  C_12 
REMARK   10  A    between atoms: C_12  and  C_13 
REMARK   11  A    between atoms: C_13  and  C_14 
REMARK   12  A    between atoms: C_14  and  C_15 
REMARK   13  A    between atoms: C_15  and  C_16 
REMARK   14  A    between atoms: C_16  and  C_17 
REMARK   15  A    between atoms: C_17  and  C_18 
REMARK   16  A    between atoms: C_18  and  O_20 
REMARK   17  A    between atoms: O_20  and  C_21 
REMARK   18  A    between atoms: C_37  and  C_38 
REMARK   19  A    between atoms: C_38  and  C_40 
REMARK   20  A    between atoms: C_40  and  C_41 
REMARK   21  A    between atoms: C_41  and  C_42 
REMARK   22  A    between atoms: C_42  and  C_43 
ROOT
HETATM    1  C   UNL     1     -21.706 -11.800   0.518  1.00  0.00     0.136 C 
HETATM    2  C   UNL     1     -21.213 -10.474   1.085  1.00  0.00     0.034 C 
HETATM    3  C   UNL     1     -20.598  -9.670  -0.029  1.00  0.00     0.016 C 
HETATM    4  C   UNL     1     -21.768  -9.301  -0.994  1.00  0.00    -0.017 C 
HETATM    5  C   UNL     1     -21.093  -9.039  -2.321  1.00  0.00     0.003 C 
HETATM    6  C   UNL     1     -20.626  -7.555  -2.308  1.00  0.00     0.007 C 
HETATM    7  C   UNL     1     -20.081  -7.442  -3.628  1.00  0.00     0.010 C 
HETATM    8  C   UNL     1     -21.240  -7.692  -4.643  1.00  0.00    -0.036 C 
HETATM    9  C   UNL     1     -21.274  -9.189  -4.906  1.00  0.00    -0.001 C 
HETATM   10  C   UNL     1     -21.864  -9.633  -3.622  1.00  0.00    -0.001 C 
HETATM   11  C   UNL     1     -22.345 -11.030  -3.687  1.00  0.00     0.033 C 
HETATM   12  C   UNL     1     -23.100 -11.125  -2.427  1.00  0.00    -0.023 C 
HETATM   13  C   UNL     1     -22.773 -10.509  -1.263  1.00  0.00    -0.072 C 
HETATM   14  C   UNL     1     -23.006 -11.536  -0.186  1.00  0.00     0.067 C 
HETATM   15  C   UNL     1     -19.855  -9.608  -5.258  1.00  0.00     0.006 C 
HETATM   16  C   UNL     1     -19.329  -8.254  -5.938  1.00  0.00     0.006 C 
HETATM   17  C   UNL     1     -20.676  -7.197  -5.938  1.00  0.00    -0.002 C 
HETATM   18  C   UNL     1     -22.687  -7.173  -4.135  1.00  0.00     0.016 C 
HETATM   19  C   UNL     1     -22.253  -7.911  -0.322  1.00  0.00     0.020 C 
ENDROOT
BRANCH   1  20
HETATM   20  O   UNL     1     -20.790 -12.343  -0.504  1.00  0.00    -0.316 OA
BRANCH  20  21
HETATM   21  C   UNL     1     -20.614 -13.655  -0.556  1.00  0.00     0.259 C 
HETATM   22  O   UNL     1     -20.325 -14.361   0.370  1.00  0.00    -0.265 OA
BRANCH  21  23
HETATM   23  C   UNL     1     -20.916 -14.225  -1.935  1.00  0.00     0.111 C 
BRANCH  23  24
HETATM   24  C   UNL     1     -19.702 -14.398  -2.824  1.00  0.00     0.010 C 
BRANCH  24  25
HETATM   25  C   UNL     1     -19.607 -13.424  -3.980  1.00  0.00     0.000 C 
BRANCH  25  26
HETATM   26  C   UNL     1     -18.789 -12.193  -3.605  1.00  0.00     0.000 C 
BRANCH  26  27
HETATM   27  C   UNL     1     -17.738 -12.530  -2.563  1.00  0.00     0.000 C 
BRANCH  27  28
HETATM   28  C   UNL     1     -17.458 -11.308  -1.701  1.00  0.00     0.000 C 
BRANCH  28  29
HETATM   29  C   UNL     1     -17.543 -10.045  -2.539  1.00  0.00     0.000 C 
BRANCH  29  30
HETATM   30  C   UNL     1     -16.152  -9.601  -2.956  1.00  0.00     0.000 C 
BRANCH  30  31
HETATM   31  C   UNL     1     -16.027  -9.627  -4.470  1.00  0.00     0.000 C 
BRANCH  31  32
HETATM   32  C   UNL     1     -15.303 -10.890  -4.910  1.00  0.00     0.000 C 
BRANCH  32  33
HETATM   33  C   UNL     1     -15.768 -11.303  -6.296  1.00  0.00     0.000 C 
BRANCH  33  34
HETATM   34  C   UNL     1     -15.765 -12.819  -6.435  1.00  0.00     0.000 C 
BRANCH  34  35
HETATM   35  C   UNL     1     -17.172 -13.300  -6.760  1.00  0.00     0.000 C 
BRANCH  35  36
HETATM   36  C   UNL     1     -18.065 -12.157  -7.230  1.00  0.00     0.004 C 
BRANCH  36  37
HETATM   37  C   UNL     1     -19.139 -12.609  -8.233  1.00  0.00    -0.023 C 
HETATM   38  C   UNL     1     -18.600 -13.786  -9.053  1.00  0.00     0.009 C 
HETATM   39  C   UNL     1     -20.446 -12.987  -7.529  1.00  0.00     0.009 C 
ENDBRANCH  36  37
ENDBRANCH  35  36
ENDBRANCH  34  35
ENDBRANCH  33  34
ENDBRANCH  32  33
ENDBRANCH  31  32
ENDBRANCH  30  31
ENDBRANCH  29  30
ENDBRANCH  28  29
ENDBRANCH  27  28
ENDBRANCH  26  27
ENDBRANCH  25  26
ENDBRANCH  24  25
ENDBRANCH  23  24
ENDBRANCH  21  23
ENDBRANCH  20  21
ENDBRANCH   1  20
BRANCH  17  40
HETATM   40  C   UNL     1     -20.938  -5.586  -5.874  1.00  0.00    -0.014 C 
HETATM   41  C   UNL     1     -19.647  -4.728  -6.220  1.00  0.00     0.010 C 
BRANCH  40  42
HETATM   42  C   UNL     1     -22.132  -4.919  -6.680  1.00  0.00     0.005 C 
BRANCH  42  43
HETATM   43  C   UNL     1     -21.644  -3.845  -7.668  1.00  0.00     0.001 C 
BRANCH  43  44
HETATM   44  C   UNL     1     -21.973  -4.162  -9.104  1.00  0.00     0.004 C 
BRANCH  44  45
HETATM   45  C   UNL     1     -20.921  -3.708 -10.105  1.00  0.00    -0.023 C 
HETATM   46  C   UNL     1     -19.964  -4.837 -10.473  1.00  0.00     0.009 C 
HETATM   47  C   UNL     1     -21.657  -3.202 -11.338  1.00  0.00     0.009 C 
ENDBRANCH  44  45
ENDBRANCH  43  44
ENDBRANCH  42  43
ENDBRANCH  40  42
ENDBRANCH  17  40
TORSDOF 22
BEGIN_RES ARG D 557
REMARK  4 active torsions:
REMARK  status: ('A' for Active; 'I' for Inactive)
REMARK    1  A    between atoms: CA   and  CB  
REMARK    2  A    between atoms: CB   and  CG  
REMARK    3  A    between atoms: CG   and  CD  
REMARK    4  A    between atoms: CD   and  NE  
REMARK       I    between atoms: NE   and  CZ  
REMARK       I    between atoms: CZ   and  NH1 
REMARK       I    between atoms: CZ   and  NH2 
ROOT
ATOM      1  CA  ARG D 557     -26.217   2.705 -17.014  1.00 35.49     0.159 C 
ENDROOT
BRANCH   1   2
ATOM      2  CB  ARG D 557     -26.789   1.319 -17.183  1.00 35.49     0.034 C 
BRANCH   2   3
ATOM      3  CG  ARG D 557     -25.836   0.203 -17.153  1.00 35.49     0.027 C 
BRANCH   3   4
ATOM      4  CD  ARG D 557     -24.745   0.418 -16.176  1.00 35.49     0.116 C 
BRANCH   4   5
ATOM      5  NE  ARG D 557     -24.866  -0.443 -15.029  1.00 35.49    -0.212 N 
ATOM      6  CZ  ARG D 557     -24.030  -1.400 -14.695  1.00 35.49     0.666 C 
ATOM      7  NH1 ARG D 557     -22.960  -1.689 -15.414  1.00 35.49    -0.235 N 
ATOM      8  NH2 ARG D 557     -24.285  -2.068 -13.608  1.00 35.49    -0.235 N 
ATOM      9  HH  ARG D 557     -22.772  -1.261 -16.131  1.00 35.49     0.174 HD
ATOM     10  HH  ARG D 557     -22.449  -2.323 -15.145  1.00 35.49     0.174 HD
ATOM     11  HH  ARG D 557     -24.979  -1.854 -13.161  1.00 35.49     0.174 HD
ATOM     12  HH  ARG D 557     -23.766  -2.691 -13.359  1.00 35.49     0.174 HD
ATOM     13  HE  ARG D 557     -25.565  -0.374 -14.550  1.00 35.49     0.178 HD
ENDBRANCH   4   5
ENDBRANCH   3   4
ENDBRANCH   2   3
ENDBRANCH   1   2
END_RES ARG D 557
BEGIN_RES GLU D 570
REMARK  3 active torsions:
REMARK  status: ('A' for Active; 'I' for Inactive)
REMARK    5  A    between atoms: CA   and  CB  
REMARK    6  A    between atoms: CB   and  CG  
REMARK    7  A    between atoms: CG   and  CD  
ROOT
ATOM     14  CA  GLU D 570     -18.033  -6.348 -13.375  1.00 32.92     0.160 C 
ENDROOT
BRANCH  14  15
ATOM     15  CB  GLU D 570     -19.500  -6.345 -13.794  1.00 32.92     0.043 C 
BRANCH  15  16
ATOM     16  CG  GLU D 570     -19.809  -5.982 -15.201  1.00 32.92     0.100 C 
BRANCH  16  17
ATOM     17  CD  GLU D 570     -21.162  -5.328 -15.357  1.00 32.92     0.185 C 
ATOM     18  OE1 GLU D 570     -21.803  -5.011 -14.337  1.00 32.92    -0.647 OA
ATOM     19  OE2 GLU D 570     -21.593  -5.145 -16.513  1.00 32.92    -0.647 OA
ENDBRANCH  16  17
ENDBRANCH  15  16
ENDBRANCH  14  15
END_RES GLU D 570
ENDMDL
MODEL 4
REMARK VINA RESULT:      -7.5      1.612      2.709
REMARK  22 active torsions:
REMARK  status: ('A' for Active; 'I' for Inactive)
REMARK    1  A    between atoms: C_2  and  C_4 
REMARK    2  A    between atoms: C_4  and  C_5 
REMARK    3  A    between atoms: C_5  and  C_6 
REMARK    4  A    between atoms: C_6  and  C_7 
REMARK    5  A    between atoms: C_7  and  C_8 
REMARK    6  A    between atoms: C_8  and  C_9 
REMARK    7  A    between atoms: C_9  and  C_10 
REMARK    8  A    between atoms: C_10  and  C_11 
REMARK    9  A    between atoms: C_11  and  C_12 
REMARK   10  A    between atoms: C_12  and  C_13 
REMARK   11  A    between atoms: C_13  and  C_14 
REMARK   12  A    between atoms: C_14  and  C_15 
REMARK   13  A    between atoms: C_15  and  C_16 
REMARK   14  A    between atoms: C_16  and  C_17 
REMARK   15  A    between atoms: C_17  and  C_18 
REMARK   16  A    between atoms: C_18  and  O_20 
REMARK   17  A    between atoms: O_20  and  C_21 
REMARK   18  A    between atoms: C_37  and  C_38 
REMARK   19  A    between atoms: C_38  and  C_40 
REMARK   20  A    between atoms: C_40  and  C_41 
REMARK   21  A    between atoms: C_41  and  C_42 
REMARK   22  A    between atoms: C_42  and  C_43 
ROOT
HETATM    1  C   UNL     1     -21.743 -11.264   0.534  1.00  0.00     0.136 C 
HETATM    2  C   UNL     1     -21.381  -9.880   1.059  1.00  0.00     0.034 C 
HETATM    3  C   UNL     1     -20.769  -9.082  -0.061  1.00  0.00     0.016 C 
HETATM    4  C   UNL     1     -21.910  -8.848  -1.100  1.00  0.00    -0.017 C 
HETATM    5  C   UNL     1     -21.186  -8.594  -2.403  1.00  0.00     0.003 C 
HETATM    6  C   UNL     1     -20.833  -7.080  -2.439  1.00  0.00     0.007 C 
HETATM    7  C   UNL     1     -20.228  -6.984  -3.735  1.00  0.00     0.010 C 
HETATM    8  C   UNL     1     -21.309  -7.368  -4.793  1.00  0.00    -0.036 C 
HETATM    9  C   UNL     1     -21.218  -8.874  -4.984  1.00  0.00    -0.001 C 
HETATM   10  C   UNL     1     -21.840  -9.304  -3.710  1.00  0.00    -0.001 C 
HETATM   11  C   UNL     1     -22.212 -10.735  -3.730  1.00  0.00     0.033 C 
HETATM   12  C   UNL     1     -23.024 -10.831  -2.506  1.00  0.00    -0.023 C 
HETATM   13  C   UNL     1     -22.807 -10.140  -1.359  1.00  0.00    -0.072 C 
HETATM   14  C   UNL     1     -23.019 -11.133  -0.246  1.00  0.00     0.067 C 
HETATM   15  C   UNL     1     -19.755  -9.198  -5.244  1.00  0.00     0.006 C 
HETATM   16  C   UNL     1     -19.295  -7.840  -5.962  1.00  0.00     0.006 C 
HETATM   17  C   UNL     1     -20.716  -6.890  -6.080  1.00  0.00    -0.002 C 
HETATM   18  C   UNL     1     -22.816  -6.940  -4.383  1.00  0.00     0.016 C 
HETATM   19  C   UNL     1     -22.532  -7.469  -0.522  1.00  0.00     0.020 C 
ENDROOT
BRANCH   1  20
HETATM   20  O   UNL     1     -20.735 -11.780  -0.414  1.00  0.00    -0.316 OA
BRANCH  20  21
HETATM   21  C   UNL     1     -20.309 -13.025  -0.260  1.00  0.00     0.259 C 
HETATM   22  O   UNL     1     -20.744 -13.823   0.523  1.00  0.00    -0.265 OA
BRANCH  21  23
HETATM   23  C   UNL     1     -19.235 -13.398  -1.271  1.00  0.00     0.111 C 
BRANCH  23  24
HETATM   24  C   UNL     1     -19.357 -12.694  -2.607  1.00  0.00     0.010 C 
BRANCH  24  25
HETATM   25  C   UNL     1     -18.181 -11.815  -2.981  1.00  0.00     0.000 C 
BRANCH  25  26
HETATM   26  C   UNL     1     -18.201 -10.501  -2.207  1.00  0.00     0.000 C 
BRANCH  26  27
HETATM   27  C   UNL     1     -17.305  -9.466  -2.861  1.00  0.00     0.000 C 
BRANCH  27  28
HETATM   28  C   UNL     1     -16.008 -10.121  -3.316  1.00  0.00     0.000 C 
BRANCH  28  29
HETATM   29  C   UNL     1     -15.677  -9.694  -4.735  1.00  0.00     0.000 C 
BRANCH  29  30
HETATM   30  C   UNL     1     -15.205 -10.891  -5.543  1.00  0.00     0.000 C 
BRANCH  30  31
HETATM   31  C   UNL     1     -14.531 -11.903  -4.633  1.00  0.00     0.000 C 
BRANCH  31  32
HETATM   32  C   UNL     1     -14.897 -13.315  -5.064  1.00  0.00     0.000 C 
BRANCH  32  33
HETATM   33  C   UNL     1     -16.367 -13.382  -5.441  1.00  0.00     0.000 C 
BRANCH  33  34
HETATM   34  C   UNL     1     -16.539 -13.984  -6.829  1.00  0.00     0.000 C 
BRANCH  34  35
HETATM   35  C   UNL     1     -17.290 -13.001  -7.716  1.00  0.00     0.000 C 
BRANCH  35  36
HETATM   36  C   UNL     1     -18.261 -12.143  -6.912  1.00  0.00     0.004 C 
BRANCH  36  37
HETATM   37  C   UNL     1     -19.729 -12.365  -7.312  1.00  0.00    -0.023 C 
HETATM   38  C   UNL     1     -19.786 -13.290  -8.532  1.00  0.00     0.009 C 
HETATM   39  C   UNL     1     -20.549 -12.938  -6.153  1.00  0.00     0.009 C 
ENDBRANCH  36  37
ENDBRANCH  35  36
ENDBRANCH  34  35
ENDBRANCH  33  34
ENDBRANCH  32  33
ENDBRANCH  31  32
ENDBRANCH  30  31
ENDBRANCH  29  30
ENDBRANCH  28  29
ENDBRANCH  27  28
ENDBRANCH  26  27
ENDBRANCH  25  26
ENDBRANCH  24  25
ENDBRANCH  23  24
ENDBRANCH  21  23
ENDBRANCH  20  21
ENDBRANCH   1  20
BRANCH  17  40
HETATM   40  C   UNL     1     -21.100  -5.303  -6.108  1.00  0.00    -0.014 C 
HETATM   41  C   UNL     1     -19.832  -4.355  -6.238  1.00  0.00     0.010 C 
BRANCH  40  42
HETATM   42  C   UNL     1     -22.171  -4.739  -7.135  1.00  0.00     0.005 C 
BRANCH  42  43
HETATM   43  C   UNL     1     -21.865  -5.149  -8.586  1.00  0.00     0.001 C 
BRANCH  43  44
HETATM   44  C   UNL     1     -21.524  -3.983  -9.477  1.00  0.00     0.004 C 
BRANCH  44  45
HETATM   45  C   UNL     1     -21.877  -4.188 -10.943  1.00  0.00    -0.023 C 
HETATM   46  C   UNL     1     -23.292  -4.732 -11.115  1.00  0.00     0.009 C 
HETATM   47  C   UNL     1     -21.729  -2.841 -11.637  1.00  0.00     0.009 C 
ENDBRANCH  44  45
ENDBRANCH  43  44
ENDBRANCH  42  43
ENDBRANCH  40  42
ENDBRANCH  17  40
TORSDOF 22
BEGIN_RES ARG D 557
REMARK  4 active torsions:
REMARK  status: ('A' for Active; 'I' for Inactive)
REMARK    1  A    between atoms: CA   and  CB  
REMARK    2  A    between atoms: CB   and  CG  
REMARK    3  A    between atoms: CG   and  CD  
REMARK    4  A    between atoms: CD   and  NE  
REMARK       I    between atoms: NE   and  CZ  
REMARK       I    between atoms: CZ   and  NH1 
REMARK       I    between atoms: CZ   and  NH2 
ROOT
ATOM      1  CA  ARG D 557     -26.217   2.705 -17.014  1.00 35.49     0.159 C 
ENDROOT
BRANCH   1   2
ATOM      2  CB  ARG D 557     -26.789   1.319 -17.183  1.00 35.49     0.034 C 
BRANCH   2   3
ATOM      3  CG  ARG D 557     -28.238   1.224 -17.397  1.00 35.49     0.027 C 
BRANCH   3   4
ATOM      4  CD  ARG D 557     -28.887   0.282 -16.456  1.00 35.49     0.116 C 
BRANCH   4   5
ATOM      5  NE  ARG D 557     -29.287  -0.940 -17.102  1.00 35.49    -0.212 N 
ATOM      6  CZ  ARG D 557     -28.662  -2.093 -17.019  1.00 35.49     0.666 C 
ATOM      7  NH1 ARG D 557     -27.553  -2.249 -16.319  1.00 35.49    -0.235 N 
ATOM      8  NH2 ARG D 557     -29.179  -3.104 -17.654  1.00 35.49    -0.235 N 
ATOM      9  HH  ARG D 557     -27.196  -1.598 -15.892  1.00 35.49     0.174 HD
ATOM     10  HH  ARG D 557     -27.190  -3.025 -16.300  1.00 35.49     0.174 HD
ATOM     11  HH  ARG D 557     -29.900  -2.975 -18.091  1.00 35.49     0.174 HD
ATOM     12  HH  ARG D 557     -28.806  -3.865 -17.621  1.00 35.49     0.174 HD
ATOM     13  HE  ARG D 557     -29.952  -0.913 -17.632  1.00 35.49     0.178 HD
ENDBRANCH   4   5
ENDBRANCH   3   4
ENDBRANCH   2   3
ENDBRANCH   1   2
END_RES ARG D 557
BEGIN_RES GLU D 570
REMARK  3 active torsions:
REMARK  status: ('A' for Active; 'I' for Inactive)
REMARK    5  A    between atoms: CA   and  CB  
REMARK    6  A    between atoms: CB   and  CG  
REMARK    7  A    between atoms: CG   and  CD  
ROOT
ATOM     14  CA  GLU D 570     -18.033  -6.348 -13.375  1.00 32.92     0.160 C 
ENDROOT
BRANCH  14  15
ATOM     15  CB  GLU D 570     -19.500  -6.345 -13.794  1.00 32.92     0.043 C 
BRANCH  15  16
ATOM     16  CG  GLU D 570     -19.797  -6.251 -15.247  1.00 32.92     0.100 C 
BRANCH  16  17
ATOM     17  CD  GLU D 570     -21.044  -5.451 -15.543  1.00 32.92     0.185 C 
ATOM     18  OE1 GLU D 570     -21.297  -5.139 -16.722  1.00 32.92    -0.647 OA
ATOM     19  OE2 GLU D 570     -21.766  -5.118 -14.583  1.00 32.92    -0.647 OA
ENDBRANCH  16  17
ENDBRANCH  15  16
ENDBRANCH  14  15
END_RES GLU D 570
ENDMDL
MODEL 5
REMARK VINA RESULT:      -7.4      1.423      3.322
REMARK  22 active torsions:
REMARK  status: ('A' for Active; 'I' for Inactive)
REMARK    1  A    between atoms: C_2  and  C_4 
REMARK    2  A    between atoms: C_4  and  C_5 
REMARK    3  A    between atoms: C_5  and  C_6 
REMARK    4  A    between atoms: C_6  and  C_7 
REMARK    5  A    between atoms: C_7  and  C_8 
REMARK    6  A    between atoms: C_8  and  C_9 
REMARK    7  A    between atoms: C_9  and  C_10 
REMARK    8  A    between atoms: C_10  and  C_11 
REMARK    9  A    between atoms: C_11  and  C_12 
REMARK   10  A    between atoms: C_12  and  C_13 
REMARK   11  A    between atoms: C_13  and  C_14 
REMARK   12  A    between atoms: C_14  and  C_15 
REMARK   13  A    between atoms: C_15  and  C_16 
REMARK   14  A    between atoms: C_16  and  C_17 
REMARK   15  A    between atoms: C_17  and  C_18 
REMARK   16  A    between atoms: C_18  and  O_20 
REMARK   17  A    between atoms: O_20  and  C_21 
REMARK   18  A    between atoms: C_37  and  C_38 
REMARK   19  A    between atoms: C_38  and  C_40 
REMARK   20  A    between atoms: C_40  and  C_41 
REMARK   21  A    between atoms: C_41  and  C_42 
REMARK   22  A    between atoms: C_42  and  C_43 
ROOT
HETATM    1  C   UNL     1     -21.636 -11.487   0.487  1.00  0.00     0.136 C 
HETATM    2  C   UNL     1     -21.254 -10.113   1.026  1.00  0.00     0.034 C 
HETATM    3  C   UNL     1     -20.691  -9.290  -0.101  1.00  0.00     0.016 C 
HETATM    4  C   UNL     1     -21.876  -9.037  -1.085  1.00  0.00    -0.017 C 
HETATM    5  C   UNL     1     -21.208  -8.754  -2.412  1.00  0.00     0.003 C 
HETATM    6  C   UNL     1     -20.858  -7.238  -2.431  1.00  0.00     0.007 C 
HETATM    7  C   UNL     1     -20.309  -7.113  -3.748  1.00  0.00     0.010 C 
HETATM    8  C   UNL     1     -21.433  -7.476  -4.767  1.00  0.00    -0.036 C 
HETATM    9  C   UNL     1     -21.347  -8.978  -4.995  1.00  0.00    -0.001 C 
HETATM   10  C   UNL     1     -21.915  -9.437  -3.706  1.00  0.00    -0.001 C 
HETATM   11  C   UNL     1     -22.285 -10.867  -3.741  1.00  0.00     0.033 C 
HETATM   12  C   UNL     1     -23.045 -10.993  -2.486  1.00  0.00    -0.023 C 
HETATM   13  C   UNL     1     -22.780 -10.325  -1.334  1.00  0.00    -0.072 C 
HETATM   14  C   UNL     1     -22.944 -11.342  -0.235  1.00  0.00     0.067 C 
HETATM   15  C   UNL     1     -19.897  -9.292  -5.323  1.00  0.00     0.006 C 
HETATM   16  C   UNL     1     -19.470  -7.918  -6.031  1.00  0.00     0.006 C 
HETATM   17  C   UNL     1     -20.896  -6.970  -6.068  1.00  0.00    -0.002 C 
HETATM   18  C   UNL     1     -22.922  -7.061  -4.285  1.00  0.00     0.016 C 
HETATM   19  C   UNL     1     -22.475  -7.673  -0.452  1.00  0.00     0.020 C 
ENDROOT
BRANCH   1  20
HETATM   20  O   UNL     1     -20.668 -11.980  -0.513  1.00  0.00    -0.316 OA
BRANCH  20  21
HETATM   21  C   UNL     1     -20.525 -13.289  -0.655  1.00  0.00     0.259 C 
HETATM   22  O   UNL     1     -20.786 -14.118   0.173  1.00  0.00    -0.265 OA
BRANCH  21  23
HETATM   23  C   UNL     1     -20.069 -13.673  -2.056  1.00  0.00     0.111 C 
BRANCH  23  24
HETATM   24  C   UNL     1     -19.192 -12.643  -2.737  1.00  0.00     0.010 C 
BRANCH  24  25
HETATM   25  C   UNL     1     -19.257 -12.642  -4.250  1.00  0.00     0.000 C 
BRANCH  25  26
HETATM   26  C   UNL     1     -19.962 -13.887  -4.777  1.00  0.00     0.000 C 
BRANCH  26  27
HETATM   27  C   UNL     1     -21.126 -13.518  -5.678  1.00  0.00     0.000 C 
BRANCH  27  28
HETATM   28  C   UNL     1     -20.643 -12.604  -6.796  1.00  0.00     0.000 C 
BRANCH  28  29
HETATM   29  C   UNL     1     -20.019 -13.426  -7.910  1.00  0.00     0.000 C 
BRANCH  29  30
HETATM   30  C   UNL     1     -18.972 -12.603  -8.641  1.00  0.00     0.000 C 
BRANCH  30  31
HETATM   31  C   UNL     1     -17.651 -13.352  -8.679  1.00  0.00     0.000 C 
BRANCH  31  32
HETATM   32  C   UNL     1     -17.124 -13.550  -7.266  1.00  0.00     0.000 C 
BRANCH  32  33
HETATM   33  C   UNL     1     -16.017 -12.552  -6.977  1.00  0.00     0.000 C 
BRANCH  33  34
HETATM   34  C   UNL     1     -16.561 -11.352  -6.213  1.00  0.00     0.000 C 
BRANCH  34  35
HETATM   35  C   UNL     1     -15.594 -10.982  -5.097  1.00  0.00     0.000 C 
BRANCH  35  36
HETATM   36  C   UNL     1     -15.923  -9.621  -4.492  1.00  0.00     0.004 C 
BRANCH  36  37
HETATM   37  C   UNL     1     -16.110  -9.673  -2.967  1.00  0.00    -0.023 C 
HETATM   38  C   UNL     1     -17.573  -9.372  -2.627  1.00  0.00     0.009 C 
HETATM   39  C   UNL     1     -15.682 -11.026  -2.392  1.00  0.00     0.009 C 
ENDBRANCH  36  37
ENDBRANCH  35  36
ENDBRANCH  34  35
ENDBRANCH  33  34
ENDBRANCH  32  33
ENDBRANCH  31  32
ENDBRANCH  30  31
ENDBRANCH  29  30
ENDBRANCH  28  29
ENDBRANCH  27  28
ENDBRANCH  26  27
ENDBRANCH  25  26
ENDBRANCH  24  25
ENDBRANCH  23  24
ENDBRANCH  21  23
ENDBRANCH  20  21
ENDBRANCH   1  20
BRANCH  17  40
HETATM   40  C   UNL     1     -21.283  -5.383  -6.046  1.00  0.00    -0.014 C 
HETATM   41  C   UNL     1     -20.020  -4.433  -5.888  1.00  0.00     0.010 C 
BRANCH  40  42
HETATM   42  C   UNL     1     -22.169  -4.741  -7.196  1.00  0.00     0.005 C 
BRANCH  42  43
HETATM   43  C   UNL     1     -21.316  -4.073  -8.289  1.00  0.00     0.001 C 
BRANCH  43  44
HETATM   44  C   UNL     1     -22.079  -3.804  -9.560  1.00  0.00     0.004 C 
BRANCH  44  45
HETATM   45  C   UNL     1     -23.496  -4.361  -9.571  1.00  0.00    -0.023 C 
HETATM   46  C   UNL     1     -24.541  -3.251  -9.506  1.00  0.00     0.009 C 
HETATM   47  C   UNL     1     -23.653  -5.175 -10.848  1.00  0.00     0.009 C 
ENDBRANCH  44  45
ENDBRANCH  43  44
ENDBRANCH  42  43
ENDBRANCH  40  42
ENDBRANCH  17  40
TORSDOF 22
BEGIN_RES ARG D 557
REMARK  4 active torsions:
REMARK  status: ('A' for Active; 'I' for Inactive)
REMARK    1  A    between atoms: CA   and  CB  
REMARK    2  A    between atoms: CB   and  CG  
REMARK    3  A    between atoms: CG   and  CD  
REMARK    4  A    between atoms: CD   and  NE  
REMARK       I    between atoms: NE   and  CZ  
REMARK       I    between atoms: CZ   and  NH1 
REMARK       I    between atoms: CZ   and  NH2 
ROOT
ATOM      1  CA  ARG D 557     -26.217   2.705 -17.014  1.00 35.49     0.159 C 
ENDROOT
BRANCH   1   2
ATOM      2  CB  ARG D 557     -26.789   1.319 -17.183  1.00 35.49     0.034 C 
BRANCH   2   3
ATOM      3  CG  ARG D 557     -28.221   1.156 -16.902  1.00 35.49     0.027 C 
BRANCH   3   4
ATOM      4  CD  ARG D 557     -28.615  -0.267 -16.790  1.00 35.49     0.116 C 
BRANCH   4   5
ATOM      5  NE  ARG D 557     -27.631  -1.049 -16.089  1.00 35.49    -0.212 N 
ATOM      6  CZ  ARG D 557     -27.500  -2.355 -16.154  1.00 35.49     0.666 C 
ATOM      7  NH1 ARG D 557     -28.297  -3.112 -16.886  1.00 35.49    -0.235 N 
ATOM      8  NH2 ARG D 557     -26.536  -2.896 -15.467  1.00 35.49    -0.235 N 
ATOM      9  HH  ARG D 557     -28.936  -2.777 -17.348  1.00 35.49     0.174 HD
ATOM     10  HH  ARG D 557     -28.162  -3.958 -16.892  1.00 35.49     0.174 HD
ATOM     11  HH  ARG D 557     -26.033  -2.382 -15.010  1.00 35.49     0.174 HD
ATOM     12  HH  ARG D 557     -26.418  -3.736 -15.487  1.00 35.49     0.174 HD
ATOM     13  HE  ARG D 557     -27.122  -0.649 -15.538  1.00 35.49     0.178 HD
ENDBRANCH   4   5
ENDBRANCH   3   4
ENDBRANCH   2   3
ENDBRANCH   1   2
END_RES ARG D 557
BEGIN_RES GLU D 570
REMARK  3 active torsions:
REMARK  status: ('A' for Active; 'I' for Inactive)
REMARK    5  A    between atoms: CA   and  CB  
REMARK    6  A    between atoms: CB   and  CG  
REMARK    7  A    between atoms: CG   and  CD  
ROOT
ATOM     14  CA  GLU D 570     -18.033  -6.348 -13.375  1.00 32.92     0.160 C 
ENDROOT
BRANCH  14  15
ATOM     15  CB  GLU D 570     -19.500  -6.345 -13.794  1.00 32.92     0.043 C 
BRANCH  15  16
ATOM     16  CG  GLU D 570     -19.875  -7.157 -14.980  1.00 32.92     0.100 C 
BRANCH  16  17
ATOM     17  CD  GLU D 570     -20.747  -6.405 -15.958  1.00 32.92     0.185 C 
ATOM     18  OE1 GLU D 570     -20.962  -5.193 -15.768  1.00 32.92    -0.647 OA
ATOM     19  OE2 GLU D 570     -21.234  -7.039 -16.915  1.00 32.92    -0.647 OA
ENDBRANCH  16  17
ENDBRANCH  15  16
ENDBRANCH  14  15
END_RES GLU D 570
ENDMDL
MODEL 6
REMARK VINA RESULT:      -7.3      3.647      9.639
REMARK  22 active torsions:
REMARK  status: ('A' for Active; 'I' for Inactive)
REMARK    1  A    between atoms: C_2  and  C_4 
REMARK    2  A    between atoms: C_4  and  C_5 
REMARK    3  A    between atoms: C_5  and  C_6 
REMARK    4  A    between atoms: C_6  and  C_7 
REMARK    5  A    between atoms: C_7  and  C_8 
REMARK    6  A    between atoms: C_8  and  C_9 
REMARK    7  A    between atoms: C_9  and  C_10 
REMARK    8  A    between atoms: C_10  and  C_11 
REMARK    9  A    between atoms: C_11  and  C_12 
REMARK   10  A    between atoms: C_12  and  C_13 
REMARK   11  A    between atoms: C_13  and  C_14 
REMARK   12  A    between atoms: C_14  and  C_15 
REMARK   13  A    between atoms: C_15  and  C_16 
REMARK   14  A    between atoms: C_16  and  C_17 
REMARK   15  A    between atoms: C_17  and  C_18 
REMARK   16  A    between atoms: C_18  and  O_20 
REMARK   17  A    between atoms: O_20  and  C_21 
REMARK   18  A    between atoms: C_37  and  C_38 
REMARK   19  A    between atoms: C_38  and  C_40 
REMARK   20  A    between atoms: C_40  and  C_41 
REMARK   21  A    between atoms: C_41  and  C_42 
REMARK   22  A    between atoms: C_42  and  C_43 
ROOT
HETATM    1  C   UNL     1     -19.196  -9.702  -5.253  1.00  0.00     0.136 C 
HETATM    2  C   UNL     1     -18.834  -8.931  -3.988  1.00  0.00     0.034 C 
HETATM    3  C   UNL     1     -18.334  -9.905  -2.955  1.00  0.00     0.016 C 
HETATM    4  C   UNL     1     -16.984 -10.463  -3.503  1.00  0.00    -0.017 C 
HETATM    5  C   UNL     1     -16.813 -11.790  -2.800  1.00  0.00     0.003 C 
HETATM    6  C   UNL     1     -16.141 -11.495  -1.428  1.00  0.00     0.007 C 
HETATM    7  C   UNL     1     -15.984 -12.826  -0.923  1.00  0.00     0.010 C 
HETATM    8  C   UNL     1     -15.036 -13.594  -1.895  1.00  0.00    -0.036 C 
HETATM    9  C   UNL     1     -15.920 -14.223  -2.961  1.00  0.00    -0.001 C 
HETATM   10  C   UNL     1     -16.255 -13.002  -3.729  1.00  0.00    -0.001 C 
HETATM   11  C   UNL     1     -16.841 -13.320  -5.049  1.00  0.00     0.033 C 
HETATM   12  C   UNL     1     -16.826 -11.995  -5.690  1.00  0.00    -0.023 C 
HETATM   13  C   UNL     1     -17.026 -10.811  -5.058  1.00  0.00    -0.072 C 
HETATM   14  C   UNL     1     -17.918 -10.013  -5.974  1.00  0.00     0.067 C 
HETATM   15  C   UNL     1     -17.025 -14.971  -2.233  1.00  0.00     0.006 C 
HETATM   16  C   UNL     1     -16.247 -15.374  -0.890  1.00  0.00     0.006 C 
HETATM   17  C   UNL     1     -14.646 -14.807  -1.110  1.00  0.00    -0.002 C 
HETATM   18  C   UNL     1     -13.898 -12.667  -2.578  1.00  0.00     0.016 C 
HETATM   19  C   UNL     1     -15.962  -9.365  -2.894  1.00  0.00     0.020 C 
ENDROOT
BRANCH   1  20
HETATM   20  O   UNL     1     -19.824 -11.003  -4.950  1.00  0.00    -0.316 OA
BRANCH  20  21
HETATM   21  C   UNL     1     -21.108 -11.161  -5.232  1.00  0.00     0.259 C 
HETATM   22  O   UNL     1     -21.551 -11.671  -6.223  1.00  0.00    -0.265 OA
BRANCH  21  23
HETATM   23  C   UNL     1     -22.011 -10.702  -4.095  1.00  0.00     0.111 C 
BRANCH  23  24
HETATM   24  C   UNL     1     -22.620 -11.826  -3.282  1.00  0.00     0.010 C 
BRANCH  24  25
HETATM   25  C   UNL     1     -22.821 -11.520  -1.812  1.00  0.00     0.000 C 
BRANCH  25  26
HETATM   26  C   UNL     1     -22.458 -10.075  -1.489  1.00  0.00     0.000 C 
BRANCH  26  27
HETATM   27  C   UNL     1     -23.088  -9.630  -0.183  1.00  0.00     0.000 C 
BRANCH  27  28
HETATM   28  C   UNL     1     -22.828  -8.146   0.036  1.00  0.00     0.000 C 
BRANCH  28  29
HETATM   29  C   UNL     1     -21.748  -7.659  -0.913  1.00  0.00     0.000 C 
BRANCH  29  30
HETATM   30  C   UNL     1     -22.201  -6.389  -1.612  1.00  0.00     0.000 C 
BRANCH  30  31
HETATM   31  C   UNL     1     -21.348  -6.137  -2.843  1.00  0.00     0.000 C 
BRANCH  31  32
HETATM   32  C   UNL     1     -21.838  -6.994  -4.000  1.00  0.00     0.000 C 
BRANCH  32  33
HETATM   33  C   UNL     1     -21.210  -6.525  -5.301  1.00  0.00     0.000 C 
BRANCH  33  34
HETATM   34  C   UNL     1     -20.701  -5.096  -5.168  1.00  0.00     0.000 C 
BRANCH  34  35
HETATM   35  C   UNL     1     -20.129  -4.637  -6.501  1.00  0.00     0.000 C 
BRANCH  35  36
HETATM   36  C   UNL     1     -21.155  -3.857  -7.317  1.00  0.00     0.004 C 
BRANCH  36  37
HETATM   37  C   UNL     1     -21.442  -4.495  -8.686  1.00  0.00    -0.023 C 
HETATM   38  C   UNL     1     -22.600  -3.750  -9.358  1.00  0.00     0.009 C 
HETATM   39  C   UNL     1     -20.199  -4.494  -9.581  1.00  0.00     0.009 C 
ENDBRANCH  36  37
ENDBRANCH  35  36
ENDBRANCH  34  35
ENDBRANCH  33  34
ENDBRANCH  32  33
ENDBRANCH  31  32
ENDBRANCH  30  31
ENDBRANCH  29  30
ENDBRANCH  28  29
ENDBRANCH  27  28
ENDBRANCH  26  27
ENDBRANCH  25  26
ENDBRANCH  24  25
ENDBRANCH  23  24
ENDBRANCH  21  23
ENDBRANCH  20  21
ENDBRANCH   1  20
BRANCH  17  40
HETATM   40  C   UNL     1     -13.422 -14.272  -0.171  1.00  0.00    -0.014 C 
HETATM   41  C   UNL     1     -13.837 -14.086   1.351  1.00  0.00     0.010 C 
BRANCH  40  42
HETATM   42  C   UNL     1     -12.021 -15.018  -0.150  1.00  0.00     0.005 C 
BRANCH  42  43
HETATM   43  C   UNL     1     -11.232 -14.749   1.143  1.00  0.00     0.001 C 
BRANCH  43  44
HETATM   44  C   UNL     1     -10.245 -13.617   1.016  1.00  0.00     0.004 C 
BRANCH  44  45
HETATM   45  C   UNL     1      -8.984 -13.786   1.851  1.00  0.00    -0.023 C 
HETATM   46  C   UNL     1      -9.289 -13.777   3.346  1.00  0.00     0.009 C 
HETATM   47  C   UNL     1      -8.342 -15.104   1.440  1.00  0.00     0.009 C 
ENDBRANCH  44  45
ENDBRANCH  43  44
ENDBRANCH  42  43
ENDBRANCH  40  42
ENDBRANCH  17  40
TORSDOF 22
BEGIN_RES ARG D 557
REMARK  4 active torsions:
REMARK  status: ('A' for Active; 'I' for Inactive)
REMARK    1  A    between atoms: CA   and  CB  
REMARK    2  A    between atoms: CB   and  CG  
REMARK    3  A    between atoms: CG   and  CD  
REMARK    4  A    between atoms: CD   and  NE  
REMARK       I    between atoms: NE   and  CZ  
REMARK       I    between atoms: CZ   and  NH1 
REMARK       I    between atoms: CZ   and  NH2 
ROOT
ATOM      1  CA  ARG D 557     -26.217   2.705 -17.014  1.00 35.49     0.159 C 
ENDROOT
BRANCH   1   2
ATOM      2  CB  ARG D 557     -26.789   1.319 -17.183  1.00 35.49     0.034 C 
BRANCH   2   3
ATOM      3  CG  ARG D 557     -25.927   0.196 -16.794  1.00 35.49     0.027 C 
BRANCH   3   4
ATOM      4  CD  ARG D 557     -26.674  -0.874 -16.095  1.00 35.49     0.116 C 
BRANCH   4   5
ATOM      5  NE  ARG D 557     -25.935  -1.416 -14.986  1.00 35.49    -0.212 N 
ATOM      6  CZ  ARG D 557     -25.909  -2.679 -14.624  1.00 35.49     0.666 C 
ATOM      7  NH1 ARG D 557     -26.594  -3.612 -15.258  1.00 35.49    -0.235 N 
ATOM      8  NH2 ARG D 557     -25.165  -2.996 -13.604  1.00 35.49    -0.235 N 
ATOM      9  HH  ARG D 557     -27.088  -3.427 -15.933  1.00 35.49     0.174 HD
ATOM     10  HH  ARG D 557     -26.536  -4.420 -14.978  1.00 35.49     0.174 HD
ATOM     11  HH  ARG D 557     -24.728  -2.373 -13.219  1.00 35.49     0.174 HD
ATOM     12  HH  ARG D 557     -25.120  -3.802 -13.343  1.00 35.49     0.174 HD
ATOM     13  HE  ARG D 557     -25.522  -0.873 -14.478  1.00 35.49     0.178 HD
ENDBRANCH   4   5
ENDBRANCH   3   4
ENDBRANCH   2   3
ENDBRANCH   1   2
END_RES ARG D 557
BEGIN_RES GLU D 570
REMARK  3 active torsions:
REMARK  status: ('A' for Active; 'I' for Inactive)
REMARK    5  A    between atoms: CA   and  CB  
REMARK    6  A    between atoms: CB   and  CG  
REMARK    7  A    between atoms: CG   and  CD  
ROOT
ATOM     14  CA  GLU D 570     -18.033  -6.348 -13.375  1.00 32.92     0.160 C 
ENDROOT
BRANCH  14  15
ATOM     15  CB  GLU D 570     -19.500  -6.345 -13.794  1.00 32.92     0.043 C 
BRANCH  15  16
ATOM     16  CG  GLU D 570     -20.445  -5.544 -12.973  1.00 32.92     0.100 C 
BRANCH  16  17
ATOM     17  CD  GLU D 570     -21.709  -5.181 -13.716  1.00 32.92     0.185 C 
ATOM     18  OE1 GLU D 570     -22.528  -4.412 -13.177  1.00 32.92    -0.647 OA
ATOM     19  OE2 GLU D 570     -21.890  -5.683 -14.843  1.00 32.92    -0.647 OA
ENDBRANCH  16  17
ENDBRANCH  15  16
ENDBRANCH  14  15
END_RES GLU D 570
ENDMDL
MODEL 7
REMARK VINA RESULT:      -7.2      2.013      7.424
REMARK  22 active torsions:
REMARK  status: ('A' for Active; 'I' for Inactive)
REMARK    1  A    between atoms: C_2  and  C_4 
REMARK    2  A    between atoms: C_4  and  C_5 
REMARK    3  A    between atoms: C_5  and  C_6 
REMARK    4  A    between atoms: C_6  and  C_7 
REMARK    5  A    between atoms: C_7  and  C_8 
REMARK    6  A    between atoms: C_8  and  C_9 
REMARK    7  A    between atoms: C_9  and  C_10 
REMARK    8  A    between atoms: C_10  and  C_11 
REMARK    9  A    between atoms: C_11  and  C_12 
REMARK   10  A    between atoms: C_12  and  C_13 
REMARK   11  A    between atoms: C_13  and  C_14 
REMARK   12  A    between atoms: C_14  and  C_15 
REMARK   13  A    between atoms: C_15  and  C_16 
REMARK   14  A    between atoms: C_16  and  C_17 
REMARK   15  A    between atoms: C_17  and  C_18 
REMARK   16  A    between atoms: C_18  and  O_20 
REMARK   17  A    between atoms: O_20  and  C_21 
REMARK   18  A    between atoms: C_37  and  C_38 
REMARK   19  A    between atoms: C_38  and  C_40 
REMARK   20  A    between atoms: C_40  and  C_41 
REMARK   21  A    between atoms: C_41  and  C_42 
REMARK   22  A    between atoms: C_42  and  C_43 
ROOT
HETATM    1  C   UNL     1     -23.131 -10.904  -0.284  1.00  0.00     0.136 C 
HETATM    2  C   UNL     1     -23.638 -11.154  -1.699  1.00  0.00     0.034 C 
HETATM    3  C   UNL     1     -22.518 -10.889  -2.669  1.00  0.00     0.016 C 
HETATM    4  C   UNL     1     -21.448 -11.995  -2.408  1.00  0.00    -0.017 C 
HETATM    5  C   UNL     1     -20.158 -11.399  -2.925  1.00  0.00     0.003 C 
HETATM    6  C   UNL     1     -20.100 -11.693  -4.451  1.00  0.00     0.007 C 
HETATM    7  C   UNL     1     -18.818 -11.142  -4.775  1.00  0.00     0.010 C 
HETATM    8  C   UNL     1     -17.743 -11.941  -3.975  1.00  0.00    -0.036 C 
HETATM    9  C   UNL     1     -17.583 -11.237  -2.636  1.00  0.00    -0.001 C 
HETATM   10  C   UNL     1     -18.849 -11.667  -1.999  1.00  0.00    -0.001 C 
HETATM   11  C   UNL     1     -18.848 -11.422  -0.542  1.00  0.00     0.033 C 
HETATM   12  C   UNL     1     -20.053 -12.160  -0.131  1.00  0.00    -0.023 C 
HETATM   13  C   UNL     1     -21.192 -12.278  -0.860  1.00  0.00    -0.072 C 
HETATM   14  C   UNL     1     -22.319 -12.099   0.124  1.00  0.00     0.067 C 
HETATM   15  C   UNL     1     -17.364  -9.763  -2.936  1.00  0.00     0.006 C 
HETATM   16  C   UNL     1     -16.631  -9.876  -4.358  1.00  0.00     0.006 C 
HETATM   17  C   UNL     1     -16.460 -11.556  -4.643  1.00  0.00    -0.002 C 
HETATM   18  C   UNL     1     -18.108 -13.502  -3.753  1.00  0.00     0.016 C 
HETATM   19  C   UNL     1     -21.984 -13.142  -3.416  1.00  0.00     0.020 C 
ENDROOT
BRANCH   1  20
HETATM   20  O   UNL     1     -22.218  -9.746  -0.217  1.00  0.00    -0.316 OA
BRANCH  20  21
HETATM   21  C   UNL     1     -22.730  -8.560   0.077  1.00  0.00     0.259 C 
HETATM   22  O   UNL     1     -23.669  -8.360   0.796  1.00  0.00    -0.265 OA
BRANCH  21  23
HETATM   23  C   UNL     1     -21.929  -7.417  -0.530  1.00  0.00     0.111 C 
BRANCH  23  24
HETATM   24  C   UNL     1     -20.948  -7.837  -1.605  1.00  0.00     0.010 C 
BRANCH  24  25
HETATM   25  C   UNL     1     -21.142  -7.167  -2.950  1.00  0.00     0.000 C 
BRANCH  25  26
HETATM   26  C   UNL     1     -20.539  -7.998  -4.078  1.00  0.00     0.000 C 
BRANCH  26  27
HETATM   27  C   UNL     1     -20.352  -7.165  -5.333  1.00  0.00     0.000 C 
BRANCH  27  28
HETATM   28  C   UNL     1     -20.733  -5.718  -5.052  1.00  0.00     0.000 C 
BRANCH  28  29
HETATM   29  C   UNL     1     -20.259  -4.823  -6.183  1.00  0.00     0.000 C 
BRANCH  29  30
HETATM   30  C   UNL     1     -20.648  -5.424  -7.522  1.00  0.00     0.000 C 
BRANCH  30  31
HETATM   31  C   UNL     1     -19.943  -4.690  -8.649  1.00  0.00     0.000 C 
BRANCH  31  32
HETATM   32  C   UNL     1     -20.967  -4.092  -9.602  1.00  0.00     0.000 C 
BRANCH  32  33
HETATM   33  C   UNL     1     -22.364  -4.550  -9.222  1.00  0.00     0.000 C 
BRANCH  33  34
HETATM   34  C   UNL     1     -23.413  -3.598  -9.781  1.00  0.00     0.000 C 
BRANCH  34  35
HETATM   35  C   UNL     1     -23.262  -3.510 -11.292  1.00  0.00     0.000 C 
BRANCH  35  36
HETATM   36  C   UNL     1     -23.554  -4.847 -11.968  1.00  0.00     0.004 C 
BRANCH  36  37
HETATM   37  C   UNL     1     -22.879  -4.983 -13.342  1.00  0.00    -0.023 C 
HETATM   38  C   UNL     1     -23.657  -5.994 -14.190  1.00  0.00     0.009 C 
HETATM   39  C   UNL     1     -22.778  -3.633 -14.058  1.00  0.00     0.009 C 
ENDBRANCH  36  37
ENDBRANCH  35  36
ENDBRANCH  34  35
ENDBRANCH  33  34
ENDBRANCH  32  33
ENDBRANCH  31  32
ENDBRANCH  30  31
ENDBRANCH  29  30
ENDBRANCH  28  29
ENDBRANCH  27  28
ENDBRANCH  26  27
ENDBRANCH  25  26
ENDBRANCH  24  25
ENDBRANCH  23  24
ENDBRANCH  21  23
ENDBRANCH  20  21
ENDBRANCH   1  20
BRANCH  17  40
HETATM   40  C   UNL     1     -16.393 -12.553  -5.935  1.00  0.00    -0.014 C 
HETATM   41  C   UNL     1     -15.284 -12.134  -6.992  1.00  0.00     0.010 C 
BRANCH  40  42
HETATM   42  C   UNL     1     -16.243 -14.123  -5.749  1.00  0.00     0.005 C 
BRANCH  42  43
HETATM   43  C   UNL     1     -16.826 -14.912  -6.935  1.00  0.00     0.001 C 
BRANCH  43  44
HETATM   44  C   UNL     1     -18.327 -14.821  -7.032  1.00  0.00     0.004 C 
BRANCH  44  45
HETATM   45  C   UNL     1     -18.855 -14.658  -8.450  1.00  0.00    -0.023 C 
HETATM   46  C   UNL     1     -19.018 -13.189  -8.829  1.00  0.00     0.009 C 
HETATM   47  C   UNL     1     -17.870 -15.349  -9.383  1.00  0.00     0.009 C 
ENDBRANCH  44  45
ENDBRANCH  43  44
ENDBRANCH  42  43
ENDBRANCH  40  42
ENDBRANCH  17  40
TORSDOF 22
BEGIN_RES ARG D 557
REMARK  4 active torsions:
REMARK  status: ('A' for Active; 'I' for Inactive)
REMARK    1  A    between atoms: CA   and  CB  
REMARK    2  A    between atoms: CB   and  CG  
REMARK    3  A    between atoms: CG   and  CD  
REMARK    4  A    between atoms: CD   and  NE  
REMARK       I    between atoms: NE   and  CZ  
REMARK       I    between atoms: CZ   and  NH1 
REMARK       I    between atoms: CZ   and  NH2 
ROOT
ATOM      1  CA  ARG D 557     -26.217   2.705 -17.014  1.00 35.49     0.159 C 
ENDROOT
BRANCH   1   2
ATOM      2  CB  ARG D 557     -26.789   1.319 -17.183  1.00 35.49     0.034 C 
BRANCH   2   3
ATOM      3  CG  ARG D 557     -28.251   1.212 -17.254  1.00 35.49     0.027 C 
BRANCH   3   4
ATOM      4  CD  ARG D 557     -28.784   0.156 -16.363  1.00 35.49     0.116 C 
BRANCH   4   5
ATOM      5  NE  ARG D 557     -29.201  -1.011 -17.094  1.00 35.49    -0.212 N 
ATOM      6  CZ  ARG D 557     -28.646  -2.201 -17.023  1.00 35.49     0.666 C 
ATOM      7  NH1 ARG D 557     -27.601  -2.451 -16.256  1.00 35.49    -0.235 N 
ATOM      8  NH2 ARG D 557     -29.169  -3.151 -17.742  1.00 35.49    -0.235 N 
ATOM      9  HH  ARG D 557     -27.242  -1.841 -15.773  1.00 35.49     0.174 HD
ATOM     10  HH  ARG D 557     -27.283  -3.247 -16.249  1.00 35.49     0.174 HD
ATOM     11  HH  ARG D 557     -29.848  -2.962 -18.222  1.00 35.49     0.174 HD
ATOM     12  HH  ARG D 557     -28.841  -3.932 -17.720  1.00 35.49     0.174 HD
ATOM     13  HE  ARG D 557     -29.822  -0.923 -17.667  1.00 35.49     0.178 HD
ENDBRANCH   4   5
ENDBRANCH   3   4
ENDBRANCH   2   3
ENDBRANCH   1   2
END_RES ARG D 557
BEGIN_RES GLU D 570
REMARK  3 active torsions:
REMARK  status: ('A' for Active; 'I' for Inactive)
REMARK    5  A    between atoms: CA   and  CB  
REMARK    6  A    between atoms: CB   and  CG  
REMARK    7  A    between atoms: CG   and  CD  
ROOT
ATOM     14  CA  GLU D 570     -18.033  -6.348 -13.375  1.00 32.92     0.160 C 
ENDROOT
BRANCH  14  15
ATOM     15  CB  GLU D 570     -19.500  -6.345 -13.794  1.00 32.92     0.043 C 
BRANCH  15  16
ATOM     16  CG  GLU D 570     -19.796  -6.295 -15.249  1.00 32.92     0.100 C 
BRANCH  16  17
ATOM     17  CD  GLU D 570     -20.617  -7.471 -15.724  1.00 32.92     0.185 C 
ATOM     18  OE1 GLU D 570     -20.554  -8.546 -15.097  1.00 32.92    -0.647 OA
ATOM     19  OE2 GLU D 570     -21.319  -7.321 -16.744  1.00 32.92    -0.647 OA
ENDBRANCH  16  17
ENDBRANCH  15  16
ENDBRANCH  14  15
END_RES GLU D 570
ENDMDL
MODEL 8
REMARK VINA RESULT:      -7.1      2.164      3.778
REMARK  22 active torsions:
REMARK  status: ('A' for Active; 'I' for Inactive)
REMARK    1  A    between atoms: C_2  and  C_4 
REMARK    2  A    between atoms: C_4  and  C_5 
REMARK    3  A    between atoms: C_5  and  C_6 
REMARK    4  A    between atoms: C_6  and  C_7 
REMARK    5  A    between atoms: C_7  and  C_8 
REMARK    6  A    between atoms: C_8  and  C_9 
REMARK    7  A    between atoms: C_9  and  C_10 
REMARK    8  A    between atoms: C_10  and  C_11 
REMARK    9  A    between atoms: C_11  and  C_12 
REMARK   10  A    between atoms: C_12  and  C_13 
REMARK   11  A    between atoms: C_13  and  C_14 
REMARK   12  A    between atoms: C_14  and  C_15 
REMARK   13  A    between atoms: C_15  and  C_16 
REMARK   14  A    between atoms: C_16  and  C_17 
REMARK   15  A    between atoms: C_17  and  C_18 
REMARK   16  A    between atoms: C_18  and  O_20 
REMARK   17  A    between atoms: O_20  and  C_21 
REMARK   18  A    between atoms: C_37  and  C_38 
REMARK   19  A    between atoms: C_38  and  C_40 
REMARK   20  A    between atoms: C_40  and  C_41 
REMARK   21  A    between atoms: C_41  and  C_42 
REMARK   22  A    between atoms: C_42  and  C_43 
ROOT
HETATM    1  C   UNL     1     -21.779 -11.522   0.480  1.00  0.00     0.136 C 
HETATM    2  C   UNL     1     -21.366 -10.163   1.032  1.00  0.00     0.034 C 
HETATM    3  C   UNL     1     -20.756  -9.353  -0.080  1.00  0.00     0.016 C 
HETATM    4  C   UNL     1     -21.913  -9.059  -1.086  1.00  0.00    -0.017 C 
HETATM    5  C   UNL     1     -21.210  -8.792  -2.398  1.00  0.00     0.003 C 
HETATM    6  C   UNL     1     -20.814  -7.287  -2.403  1.00  0.00     0.007 C 
HETATM    7  C   UNL     1     -20.235  -7.174  -3.708  1.00  0.00     0.010 C 
HETATM    8  C   UNL     1     -21.349  -7.499  -4.752  1.00  0.00    -0.036 C 
HETATM    9  C   UNL     1     -21.305  -9.001  -4.984  1.00  0.00    -0.001 C 
HETATM   10  C   UNL     1     -21.912  -9.448  -3.708  1.00  0.00    -0.001 C 
HETATM   11  C   UNL     1     -22.324 -10.867  -3.758  1.00  0.00     0.033 C 
HETATM   12  C   UNL     1     -23.112 -10.973  -2.519  1.00  0.00    -0.023 C 
HETATM   13  C   UNL     1     -22.851 -10.319  -1.359  1.00  0.00    -0.072 C 
HETATM   14  C   UNL     1     -23.067 -11.335  -0.267  1.00  0.00     0.067 C 
HETATM   15  C   UNL     1     -19.858  -9.359  -5.285  1.00  0.00     0.006 C 
HETATM   16  C   UNL     1     -19.375  -7.995  -5.978  1.00  0.00     0.006 C 
HETATM   17  C   UNL     1     -20.771  -7.004  -6.040  1.00  0.00    -0.002 C 
HETATM   18  C   UNL     1     -22.834  -7.040  -4.297  1.00  0.00     0.016 C 
HETATM   19  C   UNL     1     -22.483  -7.680  -0.459  1.00  0.00     0.020 C 
ENDROOT
BRANCH   1  20
HETATM   20  O   UNL     1     -20.807 -12.040  -0.503  1.00  0.00    -0.316 OA
BRANCH  20  21
HETATM   21  C   UNL     1     -20.699 -13.353  -0.647  1.00  0.00     0.259 C 
HETATM   22  O   UNL     1     -21.076 -14.178   0.139  1.00  0.00    -0.265 OA
BRANCH  21  23
HETATM   23  C   UNL     1     -20.115 -13.742  -1.997  1.00  0.00     0.111 C 
BRANCH  23  24
HETATM   24  C   UNL     1     -19.711 -12.570  -2.869  1.00  0.00     0.010 C 
BRANCH  24  25
HETATM   25  C   UNL     1     -18.260 -12.151  -2.749  1.00  0.00     0.000 C 
BRANCH  25  26
HETATM   26  C   UNL     1     -18.134 -10.657  -2.470  1.00  0.00     0.000 C 
BRANCH  26  27
HETATM   27  C   UNL     1     -16.876 -10.086  -3.098  1.00  0.00     0.000 C 
BRANCH  27  28
HETATM   28  C   UNL     1     -15.659 -10.849  -2.597  1.00  0.00     0.000 C 
BRANCH  28  29
HETATM   29  C   UNL     1     -14.909 -11.464  -3.765  1.00  0.00     0.000 C 
BRANCH  29  30
HETATM   30  C   UNL     1     -14.900 -12.978  -3.640  1.00  0.00     0.000 C 
BRANCH  30  31
HETATM   31  C   UNL     1     -13.515 -13.520  -3.947  1.00  0.00     0.000 C 
BRANCH  31  32
HETATM   32  C   UNL     1     -12.756 -13.769  -2.652  1.00  0.00     0.000 C 
BRANCH  32  33
HETATM   33  C   UNL     1     -13.672 -14.408  -1.624  1.00  0.00     0.000 C 
BRANCH  33  34
HETATM   34  C   UNL     1     -13.007 -14.437  -0.254  1.00  0.00     0.000 C 
BRANCH  34  35
HETATM   35  C   UNL     1     -13.905 -13.741   0.758  1.00  0.00     0.000 C 
BRANCH  35  36
HETATM   36  C   UNL     1     -15.092 -13.058   0.085  1.00  0.00     0.004 C 
BRANCH  36  37
HETATM   37  C   UNL     1     -16.442 -13.457   0.705  1.00  0.00    -0.023 C 
HETATM   38  C   UNL     1     -17.359 -12.231   0.747  1.00  0.00     0.009 C 
HETATM   39  C   UNL     1     -17.099 -14.605  -0.067  1.00  0.00     0.009 C 
ENDBRANCH  36  37
ENDBRANCH  35  36
ENDBRANCH  34  35
ENDBRANCH  33  34
ENDBRANCH  32  33
ENDBRANCH  31  32
ENDBRANCH  30  31
ENDBRANCH  29  30
ENDBRANCH  28  29
ENDBRANCH  27  28
ENDBRANCH  26  27
ENDBRANCH  25  26
ENDBRANCH  24  25
ENDBRANCH  23  24
ENDBRANCH  21  23
ENDBRANCH  20  21
ENDBRANCH   1  20
BRANCH  17  40
HETATM   40  C   UNL     1     -21.110  -5.407  -6.017  1.00  0.00    -0.014 C 
HETATM   41  C   UNL     1     -19.812  -4.491  -6.022  1.00  0.00     0.010 C 
BRANCH  40  42
HETATM   42  C   UNL     1     -22.097  -4.766  -7.083  1.00  0.00     0.005 C 
BRANCH  42  43
HETATM   43  C   UNL     1     -21.550  -4.856  -8.518  1.00  0.00     0.001 C 
BRANCH  43  44
HETATM   44  C   UNL     1     -22.446  -4.207  -9.540  1.00  0.00     0.004 C 
BRANCH  44  45
HETATM   45  C   UNL     1     -21.875  -4.180 -10.951  1.00  0.00    -0.023 C 
HETATM   46  C   UNL     1     -22.271  -2.911 -11.699  1.00  0.00     0.009 C 
HETATM   47  C   UNL     1     -20.361  -4.283 -10.828  1.00  0.00     0.009 C 
ENDBRANCH  44  45
ENDBRANCH  43  44
ENDBRANCH  42  43
ENDBRANCH  40  42
ENDBRANCH  17  40
TORSDOF 22
BEGIN_RES ARG D 557
REMARK  4 active torsions:
REMARK  status: ('A' for Active; 'I' for Inactive)
REMARK    1  A    between atoms: CA   and  CB  
REMARK    2  A    between atoms: CB   and  CG  
REMARK    3  A    between atoms: CG   and  CD  
REMARK    4  A    between atoms: CD   and  NE  
REMARK       I    between atoms: NE   and  CZ  
REMARK       I    between atoms: CZ   and  NH1 
REMARK       I    between atoms: CZ   and  NH2 
ROOT
ATOM      1  CA  ARG D 557     -26.217   2.705 -17.014  1.00 35.49     0.159 C 
ENDROOT
BRANCH   1   2
ATOM      2  CB  ARG D 557     -26.789   1.319 -17.183  1.00 35.49     0.034 C 
BRANCH   2   3
ATOM      3  CG  ARG D 557     -28.237   1.224 -17.402  1.00 35.49     0.027 C 
BRANCH   3   4
ATOM      4  CD  ARG D 557     -28.889   0.280 -16.465  1.00 35.49     0.116 C 
BRANCH   4   5
ATOM      5  NE  ARG D 557     -29.269  -0.949 -17.110  1.00 35.49    -0.212 N 
ATOM      6  CZ  ARG D 557     -28.635  -2.096 -17.012  1.00 35.49     0.666 C 
ATOM      7  NH1 ARG D 557     -27.535  -2.239 -16.296  1.00 35.49    -0.235 N 
ATOM      8  NH2 ARG D 557     -29.135  -3.114 -17.650  1.00 35.49    -0.235 N 
ATOM      9  HH  ARG D 557     -27.190  -1.583 -15.867  1.00 35.49     0.174 HD
ATOM     10  HH  ARG D 557     -27.167  -3.012 -16.267  1.00 35.49     0.174 HD
ATOM     11  HH  ARG D 557     -29.850  -2.994 -18.099  1.00 35.49     0.174 HD
ATOM     12  HH  ARG D 557     -28.756  -3.871 -17.608  1.00 35.49     0.174 HD
ATOM     13  HE  ARG D 557     -29.926  -0.930 -17.650  1.00 35.49     0.178 HD
ENDBRANCH   4   5
ENDBRANCH   3   4
ENDBRANCH   2   3
ENDBRANCH   1   2
END_RES ARG D 557
BEGIN_RES GLU D 570
REMARK  3 active torsions:
REMARK  status: ('A' for Active; 'I' for Inactive)
REMARK    5  A    between atoms: CA   and  CB  
REMARK    6  A    between atoms: CB   and  CG  
REMARK    7  A    between atoms: CG   and  CD  
ROOT
ATOM     14  CA  GLU D 570     -18.033  -6.348 -13.375  1.00 32.92     0.160 C 
ENDROOT
BRANCH  14  15
ATOM     15  CB  GLU D 570     -19.500  -6.345 -13.794  1.00 32.92     0.043 C 
BRANCH  15  16
ATOM     16  CG  GLU D 570     -19.816  -5.901 -15.176  1.00 32.92     0.100 C 
BRANCH  16  17
ATOM     17  CD  GLU D 570     -21.229  -5.387 -15.321  1.00 32.92     0.185 C 
ATOM     18  OE1 GLU D 570     -22.013  -5.490 -14.358  1.00 32.92    -0.647 OA
ATOM     19  OE2 GLU D 570     -21.561  -4.890 -16.416  1.00 32.92    -0.647 OA
ENDBRANCH  16  17
ENDBRANCH  15  16
ENDBRANCH  14  15
END_RES GLU D 570
ENDMDL
MODEL 9
REMARK VINA RESULT:      -7.0      2.266      8.220
REMARK  22 active torsions:
REMARK  status: ('A' for Active; 'I' for Inactive)
REMARK    1  A    between atoms: C_2  and  C_4 
REMARK    2  A    between atoms: C_4  and  C_5 
REMARK    3  A    between atoms: C_5  and  C_6 
REMARK    4  A    between atoms: C_6  and  C_7 
REMARK    5  A    between atoms: C_7  and  C_8 
REMARK    6  A    between atoms: C_8  and  C_9 
REMARK    7  A    between atoms: C_9  and  C_10 
REMARK    8  A    between atoms: C_10  and  C_11 
REMARK    9  A    between atoms: C_11  and  C_12 
REMARK   10  A    between atoms: C_12  and  C_13 
REMARK   11  A    between atoms: C_13  and  C_14 
REMARK   12  A    between atoms: C_14  and  C_15 
REMARK   13  A    between atoms: C_15  and  C_16 
REMARK   14  A    between atoms: C_16  and  C_17 
REMARK   15  A    between atoms: C_17  and  C_18 
REMARK   16  A    between atoms: C_18  and  O_20 
REMARK   17  A    between atoms: O_20  and  C_21 
REMARK   18  A    between atoms: C_37  and  C_38 
REMARK   19  A    between atoms: C_38  and  C_40 
REMARK   20  A    between atoms: C_40  and  C_41 
REMARK   21  A    between atoms: C_41  and  C_42 
REMARK   22  A    between atoms: C_42  and  C_43 
ROOT
HETATM    1  C   UNL     1     -22.984 -10.979  -0.957  1.00  0.00     0.136 C 
HETATM    2  C   UNL     1     -23.244 -11.262  -2.433  1.00  0.00     0.034 C 
HETATM    3  C   UNL     1     -21.987 -10.977  -3.210  1.00  0.00     0.016 C 
HETATM    4  C   UNL     1     -20.946 -12.048  -2.758  1.00  0.00    -0.017 C 
HETATM    5  C   UNL     1     -19.605 -11.422  -3.067  1.00  0.00     0.003 C 
HETATM    6  C   UNL     1     -19.290 -11.734  -4.558  1.00  0.00     0.007 C 
HETATM    7  C   UNL     1     -17.987 -11.150  -4.677  1.00  0.00     0.010 C 
HETATM    8  C   UNL     1     -17.037 -11.908  -3.697  1.00  0.00    -0.036 C 
HETATM    9  C   UNL     1     -17.118 -11.182  -2.363  1.00  0.00    -0.001 C 
HETATM   10  C   UNL     1     -18.460 -11.641  -1.935  1.00  0.00    -0.001 C 
HETATM   11  C   UNL     1     -18.704 -11.377  -0.501  1.00  0.00     0.033 C 
HETATM   12  C   UNL     1     -19.941 -12.144  -0.281  1.00  0.00    -0.023 C 
HETATM   13  C   UNL     1     -20.941 -12.304  -1.185  1.00  0.00    -0.072 C 
HETATM   14  C   UNL     1     -22.219 -12.145  -0.402  1.00  0.00     0.067 C 
HETATM   15  C   UNL     1     -16.891  -9.706  -2.648  1.00  0.00     0.006 C 
HETATM   16  C   UNL     1     -15.931  -9.817  -3.928  1.00  0.00     0.006 C 
HETATM   17  C   UNL     1     -15.672 -11.495  -4.153  1.00  0.00    -0.002 C 
HETATM   18  C   UNL     1     -17.392 -13.476  -3.512  1.00  0.00     0.016 C 
HETATM   19  C   UNL     1     -21.279 -13.223  -3.821  1.00  0.00     0.020 C 
ENDROOT
BRANCH   1  20
HETATM   20  O   UNL     1     -22.125  -9.795  -0.762  1.00  0.00    -0.316 OA
BRANCH  20  21
HETATM   21  C   UNL     1     -22.678  -8.691  -0.283  1.00  0.00     0.259 C 
HETATM   22  O   UNL     1     -23.584  -8.645   0.503  1.00  0.00    -0.265 OA
BRANCH  21  23
HETATM   23  C   UNL     1     -21.972  -7.432  -0.765  1.00  0.00     0.111 C 
BRANCH  23  24
HETATM   24  C   UNL     1     -20.901  -7.672  -1.809  1.00  0.00     0.010 C 
BRANCH  24  25
HETATM   25  C   UNL     1     -21.092  -6.923  -3.112  1.00  0.00     0.000 C 
BRANCH  25  26
HETATM   26  C   UNL     1     -20.850  -7.827  -4.315  1.00  0.00     0.000 C 
BRANCH  26  27
HETATM   27  C   UNL     1     -20.690  -7.016  -5.587  1.00  0.00     0.000 C 
BRANCH  27  28
HETATM   28  C   UNL     1     -20.929  -5.542  -5.292  1.00  0.00     0.000 C 
BRANCH  28  29
HETATM   29  C   UNL     1     -19.848  -4.697  -5.942  1.00  0.00     0.000 C 
BRANCH  29  30
HETATM   30  C   UNL     1     -19.651  -5.122  -7.387  1.00  0.00     0.000 C 
BRANCH  30  31
HETATM   31  C   UNL     1     -19.883  -3.943  -8.315  1.00  0.00     0.000 C 
BRANCH  31  32
HETATM   32  C   UNL     1     -20.956  -4.287  -9.337  1.00  0.00     0.000 C 
BRANCH  32  33
HETATM   33  C   UNL     1     -22.269  -4.585  -8.635  1.00  0.00     0.000 C 
BRANCH  33  34
HETATM   34  C   UNL     1     -23.363  -3.642  -9.116  1.00  0.00     0.000 C 
BRANCH  34  35
HETATM   35  C   UNL     1     -23.916  -4.143 -10.443  1.00  0.00     0.000 C 
BRANCH  35  36
HETATM   36  C   UNL     1     -23.628  -3.166 -11.580  1.00  0.00     0.004 C 
BRANCH  36  37
HETATM   37  C   UNL     1     -23.761  -3.810 -12.969  1.00  0.00    -0.023 C 
HETATM   38  C   UNL     1     -22.928  -3.012 -13.977  1.00  0.00     0.009 C 
HETATM   39  C   UNL     1     -23.336  -5.282 -12.953  1.00  0.00     0.009 C 
ENDBRANCH  36  37
ENDBRANCH  35  36
ENDBRANCH  34  35
ENDBRANCH  33  34
ENDBRANCH  32  33
ENDBRANCH  31  32
ENDBRANCH  30  31
ENDBRANCH  29  30
ENDBRANCH  28  29
ENDBRANCH  27  28
ENDBRANCH  26  27
ENDBRANCH  25  26
ENDBRANCH  24  25
ENDBRANCH  23  24
ENDBRANCH  21  23
ENDBRANCH  20  21
ENDBRANCH   1  20
BRANCH  17  40
HETATM   40  C   UNL     1     -15.368 -12.506  -5.398  1.00  0.00    -0.014 C 
HETATM   41  C   UNL     1     -15.385 -11.781  -6.811  1.00  0.00     0.010 C 
BRANCH  40  42
HETATM   42  C   UNL     1     -14.079 -13.434  -5.402  1.00  0.00     0.005 C 
BRANCH  42  43
HETATM   43  C   UNL     1     -14.189 -14.595  -4.399  1.00  0.00     0.001 C 
BRANCH  43  44
HETATM   44  C   UNL     1     -12.901 -14.878  -3.670  1.00  0.00     0.004 C 
BRANCH  44  45
HETATM   45  C   UNL     1     -12.997 -14.755  -2.156  1.00  0.00    -0.023 C 
HETATM   46  C   UNL     1     -14.133 -13.830  -1.733  1.00  0.00     0.009 C 
HETATM   47  C   UNL     1     -13.208 -16.157  -1.600  1.00  0.00     0.009 C 
ENDBRANCH  44  45
ENDBRANCH  43  44
ENDBRANCH  42  43
ENDBRANCH  40  42
ENDBRANCH  17  40
TORSDOF 22
BEGIN_RES ARG D 557
REMARK  4 active torsions:
REMARK  status: ('A' for Active; 'I' for Inactive)
REMARK    1  A    between atoms: CA   and  CB  
REMARK    2  A    between atoms: CB   and  CG  
REMARK    3  A    between atoms: CG   and  CD  
REMARK    4  A    between atoms: CD   and  NE  
REMARK       I    between atoms: NE   and  CZ  
REMARK       I    between atoms: CZ   and  NH1 
REMARK       I    between atoms: CZ   and  NH2 
ROOT
ATOM      1  CA  ARG D 557     -26.217   2.705 -17.014  1.00 35.49     0.159 C 
ENDROOT
BRANCH   1   2
ATOM      2  CB  ARG D 557     -26.789   1.319 -17.183  1.00 35.49     0.034 C 
BRANCH   2   3
ATOM      3  CG  ARG D 557     -28.228   1.227 -17.460  1.00 35.49     0.027 C 
BRANCH   3   4
ATOM      4  CD  ARG D 557     -28.920   0.292 -16.543  1.00 35.49     0.116 C 
BRANCH   4   5
ATOM      5  NE  ARG D 557     -28.168  -0.917 -16.333  1.00 35.49    -0.212 N 
ATOM      6  CZ  ARG D 557     -28.488  -2.108 -16.786  1.00 35.49     0.666 C 
ATOM      7  NH1 ARG D 557     -29.579  -2.328 -17.495  1.00 35.49    -0.235 N 
ATOM      8  NH2 ARG D 557     -27.677  -3.090 -16.516  1.00 35.49    -0.235 N 
ATOM      9  HH  ARG D 557     -30.126  -1.697 -17.686  1.00 35.49     0.174 HD
ATOM     10  HH  ARG D 557     -29.734  -3.126 -17.766  1.00 35.49     0.174 HD
ATOM     11  HH  ARG D 557     -26.976  -2.917 -16.062  1.00 35.49     0.174 HD
ATOM     12  HH  ARG D 557     -27.847  -3.873 -16.795  1.00 35.49     0.174 HD
ATOM     13  HE  ARG D 557     -27.488  -0.880 -15.824  1.00 35.49     0.178 HD
ENDBRANCH   4   5
ENDBRANCH   3   4
ENDBRANCH   2   3
ENDBRANCH   1   2
END_RES ARG D 557
BEGIN_RES GLU D 570
REMARK  3 active torsions:
REMARK  status: ('A' for Active; 'I' for Inactive)
REMARK    5  A    between atoms: CA   and  CB  
REMARK    6  A    between atoms: CB   and  CG  
REMARK    7  A    between atoms: CG   and  CD  
ROOT
ATOM     14  CA  GLU D 570     -18.033  -6.348 -13.375  1.00 32.92     0.160 C 
ENDROOT
BRANCH  14  15
ATOM     15  CB  GLU D 570     -19.500  -6.345 -13.794  1.00 32.92     0.043 C 
BRANCH  15  16
ATOM     16  CG  GLU D 570     -19.808  -5.996 -15.205  1.00 32.92     0.100 C 
BRANCH  16  17
ATOM     17  CD  GLU D 570     -21.178  -6.461 -15.641  1.00 32.92     0.185 C 
ATOM     18  OE1 GLU D 570     -21.484  -7.660 -15.499  1.00 32.92    -0.647 OA
ATOM     19  OE2 GLU D 570     -21.947  -5.620 -16.147  1.00 32.92    -0.647 OA
ENDBRANCH  16  17
ENDBRANCH  15  16
ENDBRANCH  14  15
END_RES GLU D 570
ENDMDL
