MODEL 1
REMARK VINA RESULT:      -4.3      0.000      0.000
REMARK  2 active torsions:
REMARK  status: ('A' for Active; 'I' for Inactive)
REMARK    1  A    between atoms: N_2  and  C_5 
REMARK    2  A    between atoms: C_5  and  C_6 
ROOT
HETATM    1  C   UNL     1     -28.917  -5.764 -15.435  1.00  0.00     0.272 C 
HETATM    2  N   UNL     1     -28.455  -5.327 -16.794  1.00  0.00    -0.069 N 
HETATM    3  C   UNL     1     -29.438  -5.754 -17.871  1.00  0.00     0.272 C 
HETATM    4  C   UNL     1     -28.262  -3.821 -16.853  1.00  0.00     0.272 C 
ENDROOT
BRANCH   2   5
HETATM    5  C   UNL     1     -27.061  -6.012 -17.106  1.00  0.00     0.348 C 
BRANCH   5   6
HETATM    6  C   UNL     1     -26.123  -6.281 -15.898  1.00  0.00     0.199 C 
HETATM    7  O   UNL     1     -25.373  -5.311 -15.602  1.00  0.00    -0.647 OA
HETATM    8  O   UNL     1     -26.159  -7.467 -15.471  1.00  0.00    -0.647 OA
ENDBRANCH   5   6
ENDBRANCH   2   5
TORSDOF 2
BEGIN_RES ARG D 557
REMARK  4 active torsions:
REMARK  status: ('A' for Active; 'I' for Inactive)
REMARK    1  A    between atoms: CA   and  CB  
REMARK    2  A    between atoms: CB   and  CG  
REMARK    3  A    between atoms: CG   and  CD  
REMARK    4  A    between atoms: CD   and  NE  
REMARK       I    between atoms: NE   and  CZ  
REMARK       I    between atoms: CZ   and  NH1 
REMARK       I    between atoms: CZ   and  NH2 
ROOT
ATOM      1  CA  ARG D 557     -26.217   2.705 -17.014  1.00 35.49     0.159 C 
ENDROOT
BRANCH   1   2
ATOM      2  CB  ARG D 557     -26.789   1.319 -17.183  1.00 35.49     0.034 C 
BRANCH   2   3
ATOM      3  CG  ARG D 557     -25.863   0.195 -17.000  1.00 35.49     0.027 C 
BRANCH   3   4
ATOM      4  CD  ARG D 557     -26.237  -0.663 -15.853  1.00 35.49     0.116 C 
BRANCH   4   5
ATOM      5  NE  ARG D 557     -25.117  -0.934 -14.990  1.00 35.49    -0.212 N 
ATOM      6  CZ  ARG D 557     -24.971  -1.997 -14.231  1.00 35.49     0.666 C 
ATOM      7  NH1 ARG D 557     -25.879  -2.954 -14.169  1.00 35.49    -0.235 N 
ATOM      8  NH2 ARG D 557     -23.880  -2.088 -13.528  1.00 35.49    -0.235 N 
ATOM      9  HH  ARG D 557     -26.604  -2.915 -14.624  1.00 35.49     0.174 HD
ATOM     10  HH  ARG D 557     -25.728  -3.625 -13.658  1.00 35.49     0.174 HD
ATOM     11  HH  ARG D 557     -23.308  -1.458 -13.594  1.00 35.49     0.174 HD
ATOM     12  HH  ARG D 557     -23.748  -2.761 -13.029  1.00 35.49     0.174 HD
ATOM     13  HE  ARG D 557     -24.518  -0.335 -14.913  1.00 35.49     0.178 HD
ENDBRANCH   4   5
ENDBRANCH   3   4
ENDBRANCH   2   3
ENDBRANCH   1   2
END_RES ARG D 557
BEGIN_RES GLU D 570
REMARK  3 active torsions:
REMARK  status: ('A' for Active; 'I' for Inactive)
REMARK    5  A    between atoms: CA   and  CB  
REMARK    6  A    between atoms: CB   and  CG  
REMARK    7  A    between atoms: CG   and  CD  
ROOT
ATOM     14  CA  GLU D 570     -18.033  -6.348 -13.375  1.00 32.92     0.160 C 
ENDROOT
BRANCH  14  15
ATOM     15  CB  GLU D 570     -19.500  -6.345 -13.794  1.00 32.92     0.043 C 
BRANCH  15  16
ATOM     16  CG  GLU D 570     -20.443  -5.538 -12.978  1.00 32.92     0.100 C 
BRANCH  16  17
ATOM     17  CD  GLU D 570     -21.687  -5.138 -13.738  1.00 32.92     0.185 C 
ATOM     18  OE1 GLU D 570     -22.747  -4.954 -13.109  1.00 32.92    -0.647 OA
ATOM     19  OE2 GLU D 570     -21.604  -5.025 -14.976  1.00 32.92    -0.647 OA
ENDBRANCH  16  17
ENDBRANCH  15  16
ENDBRANCH  14  15
END_RES GLU D 570
ENDMDL
MODEL 2
REMARK VINA RESULT:      -4.2      1.322      2.053
REMARK  2 active torsions:
REMARK  status: ('A' for Active; 'I' for Inactive)
REMARK    1  A    between atoms: N_2  and  C_5 
REMARK    2  A    between atoms: C_5  and  C_6 
ROOT
HETATM    1  C   UNL     1     -29.212  -4.449 -18.003  1.00  0.00     0.272 C 
HETATM    2  N   UNL     1     -28.547  -5.499 -17.161  1.00  0.00    -0.069 N 
HETATM    3  C   UNL     1     -29.481  -6.669 -16.905  1.00  0.00     0.272 C 
HETATM    4  C   UNL     1     -27.272  -6.004 -17.816  1.00  0.00     0.272 C 
ENDROOT
BRANCH   2   5
HETATM    5  C   UNL     1     -28.161  -4.867 -15.762  1.00  0.00     0.348 C 
BRANCH   5   6
HETATM    6  C   UNL     1     -26.951  -3.893 -15.740  1.00  0.00     0.199 C 
HETATM    7  O   UNL     1     -25.871  -4.421 -15.358  1.00  0.00    -0.647 OA
HETATM    8  O   UNL     1     -27.250  -2.692 -15.984  1.00  0.00    -0.647 OA
ENDBRANCH   5   6
ENDBRANCH   2   5
TORSDOF 2
BEGIN_RES ARG D 557
REMARK  4 active torsions:
REMARK  status: ('A' for Active; 'I' for Inactive)
REMARK    1  A    between atoms: CA   and  CB  
REMARK    2  A    between atoms: CB   and  CG  
REMARK    3  A    between atoms: CG   and  CD  
REMARK    4  A    between atoms: CD   and  NE  
REMARK       I    between atoms: NE   and  CZ  
REMARK       I    between atoms: CZ   and  NH1 
REMARK       I    between atoms: CZ   and  NH2 
ROOT
ATOM      1  CA  ARG D 557     -26.217   2.705 -17.014  1.00 35.49     0.159 C 
ENDROOT
BRANCH   1   2
ATOM      2  CB  ARG D 557     -26.789   1.319 -17.183  1.00 35.49     0.034 C 
BRANCH   2   3
ATOM      3  CG  ARG D 557     -25.834   0.204 -17.171  1.00 35.49     0.027 C 
BRANCH   3   4
ATOM      4  CD  ARG D 557     -24.790   0.366 -16.134  1.00 35.49     0.116 C 
BRANCH   4   5
ATOM      5  NE  ARG D 557     -24.990  -0.523 -15.020  1.00 35.49    -0.212 N 
ATOM      6  CZ  ARG D 557     -24.177  -1.487 -14.651  1.00 35.49     0.666 C 
ATOM      7  NH1 ARG D 557     -23.059  -1.758 -15.298  1.00 35.49    -0.235 N 
ATOM      8  NH2 ARG D 557     -24.507  -2.182 -13.602  1.00 35.49    -0.235 N 
ATOM      9  HH  ARG D 557     -22.821  -1.312 -15.990  1.00 35.49     0.174 HD
ATOM     10  HH  ARG D 557     -22.566  -2.397 -15.010  1.00 35.49     0.174 HD
ATOM     11  HH  ARG D 557     -25.231  -1.980 -13.199  1.00 35.49     0.174 HD
ATOM     12  HH  ARG D 557     -24.005  -2.810 -13.331  1.00 35.49     0.174 HD
ATOM     13  HE  ARG D 557     -25.722  -0.466 -14.590  1.00 35.49     0.178 HD
ENDBRANCH   4   5
ENDBRANCH   3   4
ENDBRANCH   2   3
ENDBRANCH   1   2
END_RES ARG D 557
BEGIN_RES GLU D 570
REMARK  3 active torsions:
REMARK  status: ('A' for Active; 'I' for Inactive)
REMARK    5  A    between atoms: CA   and  CB  
REMARK    6  A    between atoms: CB   and  CG  
REMARK    7  A    between atoms: CG   and  CD  
ROOT
ATOM     14  CA  GLU D 570     -18.033  -6.348 -13.375  1.00 32.92     0.160 C 
ENDROOT
BRANCH  14  15
ATOM     15  CB  GLU D 570     -19.500  -6.345 -13.794  1.00 32.92     0.043 C 
BRANCH  15  16
ATOM     16  CG  GLU D 570     -20.443  -5.537 -12.978  1.00 32.92     0.100 C 
BRANCH  16  17
ATOM     17  CD  GLU D 570     -21.734  -5.230 -13.701  1.00 32.92     0.185 C 
ATOM     18  OE1 GLU D 570     -22.169  -6.047 -14.536  1.00 32.92    -0.647 OA
ATOM     19  OE2 GLU D 570     -22.307  -4.154 -13.443  1.00 32.92    -0.647 OA
ENDBRANCH  16  17
ENDBRANCH  15  16
ENDBRANCH  14  15
END_RES GLU D 570
ENDMDL
MODEL 3
REMARK VINA RESULT:      -4.1      2.653      4.887
REMARK  2 active torsions:
REMARK  status: ('A' for Active; 'I' for Inactive)
REMARK    1  A    between atoms: N_2  and  C_5 
REMARK    2  A    between atoms: C_5  and  C_6 
ROOT
HETATM    1  C   UNL     1     -24.283  -2.986 -12.343  1.00  0.00     0.272 C 
HETATM    2  N   UNL     1     -23.200  -3.930 -11.910  1.00  0.00    -0.069 N 
HETATM    3  C   UNL     1     -21.913  -3.184 -11.603  1.00  0.00     0.272 C 
HETATM    4  C   UNL     1     -23.623  -4.732 -10.690  1.00  0.00     0.272 C 
ENDROOT
BRANCH   2   5
HETATM    5  C   UNL     1     -22.906  -4.949 -13.086  1.00  0.00     0.348 C 
BRANCH   5   6
HETATM    6  C   UNL     1     -23.270  -4.487 -14.524  1.00  0.00     0.199 C 
HETATM    7  O   UNL     1     -24.332  -4.997 -14.975  1.00  0.00    -0.647 OA
HETATM    8  O   UNL     1     -22.390  -3.772 -15.075  1.00  0.00    -0.647 OA
ENDBRANCH   5   6
ENDBRANCH   2   5
TORSDOF 2
BEGIN_RES ARG D 557
REMARK  4 active torsions:
REMARK  status: ('A' for Active; 'I' for Inactive)
REMARK    1  A    between atoms: CA   and  CB  
REMARK    2  A    between atoms: CB   and  CG  
REMARK    3  A    between atoms: CG   and  CD  
REMARK    4  A    between atoms: CD   and  NE  
REMARK       I    between atoms: NE   and  CZ  
REMARK       I    between atoms: CZ   and  NH1 
REMARK       I    between atoms: CZ   and  NH2 
ROOT
ATOM      1  CA  ARG D 557     -26.217   2.705 -17.014  1.00 35.49     0.159 C 
ENDROOT
BRANCH   1   2
ATOM      2  CB  ARG D 557     -26.789   1.319 -17.183  1.00 35.49     0.034 C 
BRANCH   2   3
ATOM      3  CG  ARG D 557     -28.219   1.155 -16.896  1.00 35.49     0.027 C 
BRANCH   3   4
ATOM      4  CD  ARG D 557     -28.600  -0.265 -16.720  1.00 35.49     0.116 C 
BRANCH   4   5
ATOM      5  NE  ARG D 557     -27.593  -1.014 -16.015  1.00 35.49    -0.212 N 
ATOM      6  CZ  ARG D 557     -27.414  -2.314 -16.083  1.00 35.49     0.666 C 
ATOM      7  NH1 ARG D 557     -28.178  -3.097 -16.821  1.00 35.49    -0.235 N 
ATOM      8  NH2 ARG D 557     -26.435  -2.822 -15.392  1.00 35.49    -0.235 N 
ATOM      9  HH  ARG D 557     -28.827  -2.784 -17.286  1.00 35.49     0.174 HD
ATOM     10  HH  ARG D 557     -28.013  -3.938 -16.828  1.00 35.49     0.174 HD
ATOM     11  HH  ARG D 557     -25.954  -2.291 -14.930  1.00 35.49     0.174 HD
ATOM     12  HH  ARG D 557     -26.287  -3.657 -15.413  1.00 35.49     0.174 HD
ATOM     13  HE  ARG D 557     -27.101  -0.597 -15.460  1.00 35.49     0.178 HD
ENDBRANCH   4   5
ENDBRANCH   3   4
ENDBRANCH   2   3
ENDBRANCH   1   2
END_RES ARG D 557
BEGIN_RES GLU D 570
REMARK  3 active torsions:
REMARK  status: ('A' for Active; 'I' for Inactive)
REMARK    5  A    between atoms: CA   and  CB  
REMARK    6  A    between atoms: CB   and  CG  
REMARK    7  A    between atoms: CG   and  CD  
ROOT
ATOM     14  CA  GLU D 570     -18.033  -6.348 -13.375  1.00 32.92     0.160 C 
ENDROOT
BRANCH  14  15
ATOM     15  CB  GLU D 570     -19.500  -6.345 -13.794  1.00 32.92     0.043 C 
BRANCH  15  16
ATOM     16  CG  GLU D 570     -19.798  -6.215 -15.244  1.00 32.92     0.100 C 
BRANCH  16  17
ATOM     17  CD  GLU D 570     -20.757  -7.269 -15.745  1.00 32.92     0.185 C 
ATOM     18  OE1 GLU D 570     -21.667  -6.936 -16.529  1.00 32.92    -0.647 OA
ATOM     19  OE2 GLU D 570     -20.608  -8.438 -15.337  1.00 32.92    -0.647 OA
ENDBRANCH  16  17
ENDBRANCH  15  16
ENDBRANCH  14  15
END_RES GLU D 570
ENDMDL
MODEL 4
REMARK VINA RESULT:      -3.9      2.153      2.880
REMARK  2 active torsions:
REMARK  status: ('A' for Active; 'I' for Inactive)
REMARK    1  A    between atoms: N_2  and  C_5 
REMARK    2  A    between atoms: C_5  and  C_6 
ROOT
HETATM    1  C   UNL     1     -30.066  -7.098 -17.927  1.00  0.00     0.272 C 
HETATM    2  N   UNL     1     -29.333  -5.912 -17.369  1.00  0.00    -0.069 N 
HETATM    3  C   UNL     1     -29.800  -5.592 -15.960  1.00  0.00     0.272 C 
HETATM    4  C   UNL     1     -27.831  -6.145 -17.365  1.00  0.00     0.272 C 
ENDROOT
BRANCH   2   5
HETATM    5  C   UNL     1     -29.630  -4.651 -18.280  1.00  0.00     0.348 C 
BRANCH   5   6
HETATM    6  C   UNL     1     -29.898  -3.305 -17.553  1.00  0.00     0.199 C 
HETATM    7  O   UNL     1     -31.113  -2.968 -17.524  1.00  0.00    -0.647 OA
HETATM    8  O   UNL     1     -28.853  -2.687 -17.210  1.00  0.00    -0.647 OA
ENDBRANCH   5   6
ENDBRANCH   2   5
TORSDOF 2
BEGIN_RES ARG D 557
REMARK  4 active torsions:
REMARK  status: ('A' for Active; 'I' for Inactive)
REMARK    1  A    between atoms: CA   and  CB  
REMARK    2  A    between atoms: CB   and  CG  
REMARK    3  A    between atoms: CG   and  CD  
REMARK    4  A    between atoms: CD   and  NE  
REMARK       I    between atoms: NE   and  CZ  
REMARK       I    between atoms: CZ   and  NH1 
REMARK       I    between atoms: CZ   and  NH2 
ROOT
ATOM      1  CA  ARG D 557     -26.217   2.705 -17.014  1.00 35.49     0.159 C 
ENDROOT
BRANCH   1   2
ATOM      2  CB  ARG D 557     -26.789   1.319 -17.183  1.00 35.49     0.034 C 
BRANCH   2   3
ATOM      3  CG  ARG D 557     -25.833   0.205 -17.182  1.00 35.49     0.027 C 
BRANCH   3   4
ATOM      4  CD  ARG D 557     -24.753   0.389 -16.186  1.00 35.49     0.116 C 
BRANCH   4   5
ATOM      5  NE  ARG D 557     -24.920  -0.466 -15.040  1.00 35.49    -0.212 N 
ATOM      6  CZ  ARG D 557     -24.094  -1.417 -14.666  1.00 35.49     0.666 C 
ATOM      7  NH1 ARG D 557     -22.993  -1.705 -15.335  1.00 35.49    -0.235 N 
ATOM      8  NH2 ARG D 557     -24.393  -2.081 -13.587  1.00 35.49    -0.235 N 
ATOM      9  HH  ARG D 557     -22.776  -1.280 -16.046  1.00 35.49     0.174 HD
ATOM     10  HH  ARG D 557     -22.491  -2.335 -15.041  1.00 35.49     0.174 HD
ATOM     11  HH  ARG D 557     -25.106  -1.868 -13.171  1.00 35.49     0.174 HD
ATOM     12  HH  ARG D 557     -23.882  -2.700 -13.311  1.00 35.49     0.174 HD
ATOM     13  HE  ARG D 557     -25.639  -0.398 -14.593  1.00 35.49     0.178 HD
ENDBRANCH   4   5
ENDBRANCH   3   4
ENDBRANCH   2   3
ENDBRANCH   1   2
END_RES ARG D 557
BEGIN_RES GLU D 570
REMARK  3 active torsions:
REMARK  status: ('A' for Active; 'I' for Inactive)
REMARK    5  A    between atoms: CA   and  CB  
REMARK    6  A    between atoms: CB   and  CG  
REMARK    7  A    between atoms: CG   and  CD  
ROOT
ATOM     14  CA  GLU D 570     -18.033  -6.348 -13.375  1.00 32.92     0.160 C 
ENDROOT
BRANCH  14  15
ATOM     15  CB  GLU D 570     -19.500  -6.345 -13.794  1.00 32.92     0.043 C 
BRANCH  15  16
ATOM     16  CG  GLU D 570     -20.438  -5.513 -12.997  1.00 32.92     0.100 C 
BRANCH  16  17
ATOM     17  CD  GLU D 570     -21.675  -5.115 -13.769  1.00 32.92     0.185 C 
ATOM     18  OE1 GLU D 570     -22.382  -4.184 -13.340  1.00 32.92    -0.647 OA
ATOM     19  OE2 GLU D 570     -21.948  -5.753 -14.804  1.00 32.92    -0.647 OA
ENDBRANCH  16  17
ENDBRANCH  15  16
ENDBRANCH  14  15
END_RES GLU D 570
ENDMDL
MODEL 5
REMARK VINA RESULT:      -3.8      3.356      5.861
REMARK  2 active torsions:
REMARK  status: ('A' for Active; 'I' for Inactive)
REMARK    1  A    between atoms: N_2  and  C_5 
REMARK    2  A    between atoms: C_5  and  C_6 
ROOT
HETATM    1  C   UNL     1     -22.805  -4.837 -13.242  1.00  0.00     0.272 C 
HETATM    2  N   UNL     1     -22.716  -4.128 -11.921  1.00  0.00    -0.069 N 
HETATM    3  C   UNL     1     -21.349  -4.323 -11.286  1.00  0.00     0.272 C 
HETATM    4  C   UNL     1     -22.996  -2.642 -12.073  1.00  0.00     0.272 C 
ENDROOT
BRANCH   2   5
HETATM    5  C   UNL     1     -23.802  -4.733 -10.940  1.00  0.00     0.348 C 
BRANCH   5   6
HETATM    6  C   UNL     1     -24.347  -3.794  -9.830  1.00  0.00     0.199 C 
HETATM    7  O   UNL     1     -25.421  -3.207 -10.133  1.00  0.00    -0.647 OA
HETATM    8  O   UNL     1     -23.574  -3.659  -8.842  1.00  0.00    -0.647 OA
ENDBRANCH   5   6
ENDBRANCH   2   5
TORSDOF 2
BEGIN_RES ARG D 557
REMARK  4 active torsions:
REMARK  status: ('A' for Active; 'I' for Inactive)
REMARK    1  A    between atoms: CA   and  CB  
REMARK    2  A    between atoms: CB   and  CG  
REMARK    3  A    between atoms: CG   and  CD  
REMARK    4  A    between atoms: CD   and  NE  
REMARK       I    between atoms: NE   and  CZ  
REMARK       I    between atoms: CZ   and  NH1 
REMARK       I    between atoms: CZ   and  NH2 
ROOT
ATOM      1  CA  ARG D 557     -26.217   2.705 -17.014  1.00 35.49     0.159 C 
ENDROOT
BRANCH   1   2
ATOM      2  CB  ARG D 557     -26.789   1.319 -17.183  1.00 35.49     0.034 C 
BRANCH   2   3
ATOM      3  CG  ARG D 557     -28.236   1.225 -17.409  1.00 35.49     0.027 C 
BRANCH   3   4
ATOM      4  CD  ARG D 557     -28.894   0.285 -16.472  1.00 35.49     0.116 C 
BRANCH   4   5
ATOM      5  NE  ARG D 557     -29.302  -0.932 -17.121  1.00 35.49    -0.212 N 
ATOM      6  CZ  ARG D 557     -28.686  -2.090 -17.040  1.00 35.49     0.666 C 
ATOM      7  NH1 ARG D 557     -27.580  -2.258 -16.339  1.00 35.49    -0.235 N 
ATOM      8  NH2 ARG D 557     -29.211  -3.095 -17.680  1.00 35.49    -0.235 N 
ATOM      9  HH  ARG D 557     -27.219  -1.611 -15.909  1.00 35.49     0.174 HD
ATOM     10  HH  ARG D 557     -27.224  -3.037 -16.321  1.00 35.49     0.174 HD
ATOM     11  HH  ARG D 557     -29.930  -2.959 -18.118  1.00 35.49     0.174 HD
ATOM     12  HH  ARG D 557     -28.844  -3.859 -17.648  1.00 35.49     0.174 HD
ATOM     13  HE  ARG D 557     -29.965  -0.898 -17.653  1.00 35.49     0.178 HD
ENDBRANCH   4   5
ENDBRANCH   3   4
ENDBRANCH   2   3
ENDBRANCH   1   2
END_RES ARG D 557
BEGIN_RES GLU D 570
REMARK  3 active torsions:
REMARK  status: ('A' for Active; 'I' for Inactive)
REMARK    5  A    between atoms: CA   and  CB  
REMARK    6  A    between atoms: CB   and  CG  
REMARK    7  A    between atoms: CG   and  CD  
ROOT
ATOM     14  CA  GLU D 570     -18.033  -6.348 -13.375  1.00 32.92     0.160 C 
ENDROOT
BRANCH  14  15
ATOM     15  CB  GLU D 570     -19.500  -6.345 -13.794  1.00 32.92     0.043 C 
BRANCH  15  16
ATOM     16  CG  GLU D 570     -20.060  -7.610 -14.335  1.00 32.92     0.100 C 
BRANCH  16  17
ATOM     17  CD  GLU D 570     -20.785  -7.421 -15.647  1.00 32.92     0.185 C 
ATOM     18  OE1 GLU D 570     -20.607  -6.369 -16.290  1.00 32.92    -0.647 OA
ATOM     19  OE2 GLU D 570     -21.552  -8.327 -16.027  1.00 32.92    -0.647 OA
ENDBRANCH  16  17
ENDBRANCH  15  16
ENDBRANCH  14  15
END_RES GLU D 570
ENDMDL
MODEL 6
REMARK VINA RESULT:      -3.6      2.993      5.011
REMARK  2 active torsions:
REMARK  status: ('A' for Active; 'I' for Inactive)
REMARK    1  A    between atoms: N_2  and  C_5 
REMARK    2  A    between atoms: C_5  and  C_6 
ROOT
HETATM    1  C   UNL     1     -23.661  -4.971 -13.237  1.00  0.00     0.272 C 
HETATM    2  N   UNL     1     -23.757  -3.494 -13.484  1.00  0.00    -0.069 N 
HETATM    3  C   UNL     1     -22.746  -3.045 -14.525  1.00  0.00     0.272 C 
HETATM    4  C   UNL     1     -25.154  -3.100 -13.932  1.00  0.00     0.272 C 
ENDROOT
BRANCH   2   5
HETATM    5  C   UNL     1     -23.441  -2.727 -12.134  1.00  0.00     0.348 C 
BRANCH   5   6
HETATM    6  C   UNL     1     -23.966  -3.369 -10.821  1.00  0.00     0.199 C 
HETATM    7  O   UNL     1     -23.105  -4.051 -10.201  1.00  0.00    -0.647 OA
HETATM    8  O   UNL     1     -25.204  -3.220 -10.632  1.00  0.00    -0.647 OA
ENDBRANCH   5   6
ENDBRANCH   2   5
TORSDOF 2
BEGIN_RES ARG D 557
REMARK  4 active torsions:
REMARK  status: ('A' for Active; 'I' for Inactive)
REMARK    1  A    between atoms: CA   and  CB  
REMARK    2  A    between atoms: CB   and  CG  
REMARK    3  A    between atoms: CG   and  CD  
REMARK    4  A    between atoms: CD   and  NE  
REMARK       I    between atoms: NE   and  CZ  
REMARK       I    between atoms: CZ   and  NH1 
REMARK       I    between atoms: CZ   and  NH2 
ROOT
ATOM      1  CA  ARG D 557     -26.217   2.705 -17.014  1.00 35.49     0.159 C 
ENDROOT
BRANCH   1   2
ATOM      2  CB  ARG D 557     -26.789   1.319 -17.183  1.00 35.49     0.034 C 
BRANCH   2   3
ATOM      3  CG  ARG D 557     -28.233   1.226 -17.429  1.00 35.49     0.027 C 
BRANCH   3   4
ATOM      4  CD  ARG D 557     -28.908   0.303 -16.488  1.00 35.49     0.116 C 
BRANCH   4   5
ATOM      5  NE  ARG D 557     -28.165  -0.914 -16.295  1.00 35.49    -0.212 N 
ATOM      6  CZ  ARG D 557     -28.476  -2.090 -16.792  1.00 35.49     0.666 C 
ATOM      7  NH1 ARG D 557     -29.549  -2.285 -17.535  1.00 35.49    -0.235 N 
ATOM      8  NH2 ARG D 557     -27.674  -3.082 -16.532  1.00 35.49    -0.235 N 
ATOM      9  HH  ARG D 557     -30.089  -1.646 -17.721  1.00 35.49     0.174 HD
ATOM     10  HH  ARG D 557     -29.700  -3.074 -17.835  1.00 35.49     0.174 HD
ATOM     11  HH  ARG D 557     -26.985  -2.926 -16.056  1.00 35.49     0.174 HD
ATOM     12  HH  ARG D 557     -27.840  -3.856 -16.839  1.00 35.49     0.174 HD
ATOM     13  HE  ARG D 557     -27.497  -0.895 -15.769  1.00 35.49     0.178 HD
ENDBRANCH   4   5
ENDBRANCH   3   4
ENDBRANCH   2   3
ENDBRANCH   1   2
END_RES ARG D 557
BEGIN_RES GLU D 570
REMARK  3 active torsions:
REMARK  status: ('A' for Active; 'I' for Inactive)
REMARK    5  A    between atoms: CA   and  CB  
REMARK    6  A    between atoms: CB   and  CG  
REMARK    7  A    between atoms: CG   and  CD  
ROOT
ATOM     14  CA  GLU D 570     -18.033  -6.348 -13.375  1.00 32.92     0.160 C 
ENDROOT
BRANCH  14  15
ATOM     15  CB  GLU D 570     -19.500  -6.345 -13.794  1.00 32.92     0.043 C 
BRANCH  15  16
ATOM     16  CG  GLU D 570     -19.796  -6.342 -15.250  1.00 32.92     0.100 C 
BRANCH  16  17
ATOM     17  CD  GLU D 570     -20.930  -7.269 -15.623  1.00 32.92     0.185 C 
ATOM     18  OE1 GLU D 570     -22.036  -6.781 -15.924  1.00 32.92    -0.647 OA
ATOM     19  OE2 GLU D 570     -20.715  -8.496 -15.596  1.00 32.92    -0.647 OA
ENDBRANCH  16  17
ENDBRANCH  15  16
ENDBRANCH  14  15
END_RES GLU D 570
ENDMDL
MODEL 7
REMARK VINA RESULT:      -3.5      3.253      6.655
REMARK  2 active torsions:
REMARK  status: ('A' for Active; 'I' for Inactive)
REMARK    1  A    between atoms: N_2  and  C_5 
REMARK    2  A    between atoms: C_5  and  C_6 
ROOT
HETATM    1  C   UNL     1     -20.070  -4.425  -9.207  1.00  0.00     0.272 C 
HETATM    2  N   UNL     1     -21.281  -4.615  -8.341  1.00  0.00    -0.069 N 
HETATM    3  C   UNL     1     -21.137  -5.844  -7.459  1.00  0.00     0.272 C 
HETATM    4  C   UNL     1     -21.533  -3.395  -7.472  1.00  0.00     0.272 C 
ENDROOT
BRANCH   2   5
HETATM    5  C   UNL     1     -22.547  -4.826  -9.269  1.00  0.00     0.348 C 
BRANCH   5   6
HETATM    6  C   UNL     1     -23.221  -3.548  -9.839  1.00  0.00     0.199 C 
HETATM    7  O   UNL     1     -24.348  -3.290  -9.334  1.00  0.00    -0.647 OA
HETATM    8  O   UNL     1     -22.604  -3.028 -10.809  1.00  0.00    -0.647 OA
ENDBRANCH   5   6
ENDBRANCH   2   5
TORSDOF 2
BEGIN_RES ARG D 557
REMARK  4 active torsions:
REMARK  status: ('A' for Active; 'I' for Inactive)
REMARK    1  A    between atoms: CA   and  CB  
REMARK    2  A    between atoms: CB   and  CG  
REMARK    3  A    between atoms: CG   and  CD  
REMARK    4  A    between atoms: CD   and  NE  
REMARK       I    between atoms: NE   and  CZ  
REMARK       I    between atoms: CZ   and  NH1 
REMARK       I    between atoms: CZ   and  NH2 
ROOT
ATOM      1  CA  ARG D 557     -26.217   2.705 -17.014  1.00 35.49     0.159 C 
ENDROOT
BRANCH   1   2
ATOM      2  CB  ARG D 557     -26.789   1.319 -17.183  1.00 35.49     0.034 C 
BRANCH   2   3
ATOM      3  CG  ARG D 557     -25.868   0.195 -16.978  1.00 35.49     0.027 C 
BRANCH   3   4
ATOM      4  CD  ARG D 557     -26.301  -0.697 -15.878  1.00 35.49     0.116 C 
BRANCH   4   5
ATOM      5  NE  ARG D 557     -25.247  -0.938 -14.928  1.00 35.49    -0.212 N 
ATOM      6  CZ  ARG D 557     -24.980  -2.090 -14.354  1.00 35.49     0.666 C 
ATOM      7  NH1 ARG D 557     -25.687  -3.180 -14.588  1.00 35.49    -0.235 N 
ATOM      8  NH2 ARG D 557     -23.971  -2.131 -13.533  1.00 35.49    -0.235 N 
ATOM      9  HH  ARG D 557     -26.353  -3.176 -15.126  1.00 35.49     0.174 HD
ATOM     10  HH  ARG D 557     -25.464  -3.903 -14.186  1.00 35.49     0.174 HD
ATOM     11  HH  ARG D 557     -23.528  -1.413 -13.407  1.00 35.49     0.174 HD
ATOM     12  HH  ARG D 557     -23.765  -2.857 -13.146  1.00 35.49     0.174 HD
ATOM     13  HE  ARG D 557     -24.787  -0.273 -14.665  1.00 35.49     0.178 HD
ENDBRANCH   4   5
ENDBRANCH   3   4
ENDBRANCH   2   3
ENDBRANCH   1   2
END_RES ARG D 557
BEGIN_RES GLU D 570
REMARK  3 active torsions:
REMARK  status: ('A' for Active; 'I' for Inactive)
REMARK    5  A    between atoms: CA   and  CB  
REMARK    6  A    between atoms: CB   and  CG  
REMARK    7  A    between atoms: CG   and  CD  
ROOT
ATOM     14  CA  GLU D 570     -18.033  -6.348 -13.375  1.00 32.92     0.160 C 
ENDROOT
BRANCH  14  15
ATOM     15  CB  GLU D 570     -19.500  -6.345 -13.794  1.00 32.92     0.043 C 
BRANCH  15  16
ATOM     16  CG  GLU D 570     -20.435  -5.501 -13.007  1.00 32.92     0.100 C 
BRANCH  16  17
ATOM     17  CD  GLU D 570     -21.693  -5.148 -13.766  1.00 32.92     0.185 C 
ATOM     18  OE1 GLU D 570     -21.613  -4.892 -14.983  1.00 32.92    -0.647 OA
ATOM     19  OE2 GLU D 570     -22.767  -5.111 -13.134  1.00 32.92    -0.647 OA
ENDBRANCH  16  17
ENDBRANCH  15  16
ENDBRANCH  14  15
END_RES GLU D 570
ENDMDL
MODEL 8
REMARK VINA RESULT:      -3.4      2.434      3.063
REMARK  2 active torsions:
REMARK  status: ('A' for Active; 'I' for Inactive)
REMARK    1  A    between atoms: N_2  and  C_5 
REMARK    2  A    between atoms: C_5  and  C_6 
ROOT
HETATM    1  C   UNL     1     -29.639  -7.456 -17.351  1.00  0.00     0.272 C 
HETATM    2  N   UNL     1     -28.736  -6.697 -16.422  1.00  0.00    -0.069 N 
HETATM    3  C   UNL     1     -29.510  -5.648 -15.643  1.00  0.00     0.272 C 
HETATM    4  C   UNL     1     -28.032  -7.631 -15.453  1.00  0.00     0.272 C 
ENDROOT
BRANCH   2   5
HETATM    5  C   UNL     1     -27.629  -5.954 -17.276  1.00  0.00     0.348 C 
BRANCH   5   6
HETATM    6  C   UNL     1     -26.234  -5.778 -16.618  1.00  0.00     0.199 C 
HETATM    7  O   UNL     1     -26.162  -4.811 -15.811  1.00  0.00    -0.647 OA
HETATM    8  O   UNL     1     -25.345  -6.545 -17.079  1.00  0.00    -0.647 OA
ENDBRANCH   5   6
ENDBRANCH   2   5
TORSDOF 2
BEGIN_RES ARG D 557
REMARK  4 active torsions:
REMARK  status: ('A' for Active; 'I' for Inactive)
REMARK    1  A    between atoms: CA   and  CB  
REMARK    2  A    between atoms: CB   and  CG  
REMARK    3  A    between atoms: CG   and  CD  
REMARK    4  A    between atoms: CD   and  NE  
REMARK       I    between atoms: NE   and  CZ  
REMARK       I    between atoms: CZ   and  NH1 
REMARK       I    between atoms: CZ   and  NH2 
ROOT
ATOM      1  CA  ARG D 557     -26.217   2.705 -17.014  1.00 35.49     0.159 C 
ENDROOT
BRANCH   1   2
ATOM      2  CB  ARG D 557     -26.789   1.319 -17.183  1.00 35.49     0.034 C 
BRANCH   2   3
ATOM      3  CG  ARG D 557     -28.244   1.221 -17.351  1.00 35.49     0.027 C 
BRANCH   3   4
ATOM      4  CD  ARG D 557     -28.852   0.227 -16.437  1.00 35.49     0.116 C 
BRANCH   4   5
ATOM      5  NE  ARG D 557     -29.336  -0.932 -17.140  1.00 35.49    -0.212 N 
ATOM      6  CZ  ARG D 557     -28.795  -2.129 -17.111  1.00 35.49     0.666 C 
ATOM      7  NH1 ARG D 557     -27.703  -2.398 -16.419  1.00 35.49    -0.235 N 
ATOM      8  NH2 ARG D 557     -29.381  -3.069 -17.794  1.00 35.49    -0.235 N 
ATOM      9  HH  ARG D 557     -27.302  -1.795 -15.961  1.00 35.49     0.174 HD
ATOM     10  HH  ARG D 557     -27.397  -3.198 -16.436  1.00 35.49     0.174 HD
ATOM     11  HH  ARG D 557     -30.089  -2.869 -18.225  1.00 35.49     0.174 HD
ATOM     12  HH  ARG D 557     -29.064  -3.856 -17.797  1.00 35.49     0.174 HD
ATOM     13  HE  ARG D 557     -29.994  -0.832 -17.669  1.00 35.49     0.178 HD
ENDBRANCH   4   5
ENDBRANCH   3   4
ENDBRANCH   2   3
ENDBRANCH   1   2
END_RES ARG D 557
BEGIN_RES GLU D 570
REMARK  3 active torsions:
REMARK  status: ('A' for Active; 'I' for Inactive)
REMARK    5  A    between atoms: CA   and  CB  
REMARK    6  A    between atoms: CB   and  CG  
REMARK    7  A    between atoms: CG   and  CD  
ROOT
ATOM     14  CA  GLU D 570     -18.033  -6.348 -13.375  1.00 32.92     0.160 C 
ENDROOT
BRANCH  14  15
ATOM     15  CB  GLU D 570     -19.500  -6.345 -13.794  1.00 32.92     0.043 C 
BRANCH  15  16
ATOM     16  CG  GLU D 570     -19.809  -5.981 -15.201  1.00 32.92     0.100 C 
BRANCH  16  17
ATOM     17  CD  GLU D 570     -21.236  -5.522 -15.391  1.00 32.92     0.185 C 
ATOM     18  OE1 GLU D 570     -22.060  -5.711 -14.475  1.00 32.92    -0.647 OA
ATOM     19  OE2 GLU D 570     -21.537  -4.981 -16.473  1.00 32.92    -0.647 OA
ENDBRANCH  16  17
ENDBRANCH  15  16
ENDBRANCH  14  15
END_RES GLU D 570
ENDMDL
MODEL 9
REMARK VINA RESULT:      -3.4      3.973      5.727
REMARK  2 active torsions:
REMARK  status: ('A' for Active; 'I' for Inactive)
REMARK    1  A    between atoms: N_2  and  C_5 
REMARK    2  A    between atoms: C_5  and  C_6 
ROOT
HETATM    1  C   UNL     1     -22.496  -4.825 -12.076  1.00  0.00     0.272 C 
HETATM    2  N   UNL     1     -21.881  -3.896 -11.070  1.00  0.00    -0.069 N 
HETATM    3  C   UNL     1     -20.597  -4.475 -10.503  1.00  0.00     0.272 C 
HETATM    4  C   UNL     1     -21.596  -2.534 -11.680  1.00  0.00     0.272 C 
ENDROOT
BRANCH   2   5
HETATM    5  C   UNL     1     -22.897  -3.693  -9.872  1.00  0.00     0.348 C 
BRANCH   5   6
HETATM    6  C   UNL     1     -24.399  -3.946 -10.172  1.00  0.00     0.199 C 
HETATM    7  O   UNL     1     -24.821  -5.068  -9.779  1.00  0.00    -0.647 OA
HETATM    8  O   UNL     1     -24.944  -3.050 -10.873  1.00  0.00    -0.647 OA
ENDBRANCH   5   6
ENDBRANCH   2   5
TORSDOF 2
BEGIN_RES ARG D 557
REMARK  4 active torsions:
REMARK  status: ('A' for Active; 'I' for Inactive)
REMARK    1  A    between atoms: CA   and  CB  
REMARK    2  A    between atoms: CB   and  CG  
REMARK    3  A    between atoms: CG   and  CD  
REMARK    4  A    between atoms: CD   and  NE  
REMARK       I    between atoms: NE   and  CZ  
REMARK       I    between atoms: CZ   and  NH1 
REMARK       I    between atoms: CZ   and  NH2 
ROOT
ATOM      1  CA  ARG D 557     -26.217   2.705 -17.014  1.00 35.49     0.159 C 
ENDROOT
BRANCH   1   2
ATOM      2  CB  ARG D 557     -26.789   1.319 -17.183  1.00 35.49     0.034 C 
BRANCH   2   3
ATOM      3  CG  ARG D 557     -25.835   0.204 -17.163  1.00 35.49     0.027 C 
BRANCH   3   4
ATOM      4  CD  ARG D 557     -24.778   0.384 -16.142  1.00 35.49     0.116 C 
BRANCH   4   5
ATOM      5  NE  ARG D 557     -24.960  -0.489 -15.012  1.00 35.49    -0.212 N 
ATOM      6  CZ  ARG D 557     -24.152  -1.463 -14.655  1.00 35.49     0.666 C 
ATOM      7  NH1 ARG D 557     -23.057  -1.758 -15.331  1.00 35.49    -0.235 N 
ATOM      8  NH2 ARG D 557     -24.463  -2.140 -13.589  1.00 35.49    -0.235 N 
ATOM      9  HH  ARG D 557     -22.831  -1.324 -16.034  1.00 35.49     0.174 HD
ATOM     10  HH  ARG D 557     -22.566  -2.402 -15.049  1.00 35.49     0.174 HD
ATOM     11  HH  ARG D 557     -25.172  -1.922 -13.169  1.00 35.49     0.174 HD
ATOM     12  HH  ARG D 557     -23.964  -2.773 -13.325  1.00 35.49     0.174 HD
ATOM     13  HE  ARG D 557     -25.678  -0.417 -14.563  1.00 35.49     0.178 HD
ENDBRANCH   4   5
ENDBRANCH   3   4
ENDBRANCH   2   3
ENDBRANCH   1   2
END_RES ARG D 557
BEGIN_RES GLU D 570
REMARK  3 active torsions:
REMARK  status: ('A' for Active; 'I' for Inactive)
REMARK    5  A    between atoms: CA   and  CB  
REMARK    6  A    between atoms: CB   and  CG  
REMARK    7  A    between atoms: CG   and  CD  
ROOT
ATOM     14  CA  GLU D 570     -18.033  -6.348 -13.375  1.00 32.92     0.160 C 
ENDROOT
BRANCH  14  15
ATOM     15  CB  GLU D 570     -19.500  -6.345 -13.794  1.00 32.92     0.043 C 
BRANCH  15  16
ATOM     16  CG  GLU D 570     -19.797  -6.267 -15.248  1.00 32.92     0.100 C 
BRANCH  16  17
ATOM     17  CD  GLU D 570     -20.815  -7.289 -15.697  1.00 32.92     0.185 C 
ATOM     18  OE1 GLU D 570     -21.816  -6.907 -16.332  1.00 32.92    -0.647 OA
ATOM     19  OE2 GLU D 570     -20.617  -8.483 -15.396  1.00 32.92    -0.647 OA
ENDBRANCH  16  17
ENDBRANCH  15  16
ENDBRANCH  14  15
END_RES GLU D 570
ENDMDL
