MODEL 1
REMARK VINA RESULT:      -6.8      0.000      0.000
REMARK WARNING: 32 MAX_TORS EXCEEDED!!!
REMARK  37 active torsions:
REMARK  status: ('A' for Active; 'I' for Inactive)
REMARK    1  A    between atoms: C_2  and  C_3 
REMARK    2  A    between atoms: C_3  and  C_4 
REMARK    3  A    between atoms: C_4  and  C_5 
REMARK    4  A    between atoms: C_5  and  C_6 
REMARK    5  A    between atoms: C_6  and  C_7 
REMARK    6  A    between atoms: C_7  and  C_8 
REMARK    7  A    between atoms: C_8  and  C_9 
REMARK    8  A    between atoms: C_9  and  C_10 
REMARK    9  A    between atoms: C_10  and  C_11 
REMARK   10  A    between atoms: C_11  and  C_12 
REMARK   11  A    between atoms: C_12  and  C_13 
REMARK   12  A    between atoms: C_13  and  C_14 
REMARK   13  A    between atoms: C_14  and  C_15 
REMARK   14  A    between atoms: C_15  and  C_16 
REMARK   15  A    between atoms: C_16  and  C_17 
REMARK   16  A    between atoms: C_17  and  C_18 
REMARK       I    between atoms: C_18  and  N_20 
REMARK   17  A    between atoms: N_20  and  C_21 
REMARK   18  A    between atoms: C_21  and  C_22 
REMARK   19  A    between atoms: C_22  and  C_23 
REMARK   20  A    between atoms: C_23  and  N_24 
REMARK   21  A    between atoms: C_29  and  C_30 
REMARK   22  A    between atoms: C_30  and  C_31 
REMARK   23  A    between atoms: C_31  and  C_32 
REMARK   24  A    between atoms: C_32  and  C_33 
REMARK   25  A    between atoms: C_33  and  C_34 
REMARK   26  A    between atoms: C_34  and  C_35 
REMARK   27  A    between atoms: C_35  and  C_36 
REMARK   28  A    between atoms: C_36  and  C_37 
REMARK   29  A    between atoms: C_37  and  C_38 
REMARK   30  A    between atoms: C_38  and  C_39 
REMARK   31  A    between atoms: C_39  and  C_40 
REMARK   32  A    between atoms: C_40  and  C_41 
REMARK   33  A    between atoms: C_41  and  C_42 
REMARK   34  A    between atoms: C_42  and  C_43 
REMARK   35  A    between atoms: C_43  and  C_44 
REMARK   36  A    between atoms: C_44  and  C_45 
REMARK   37  A    between atoms: C_45  and  O_47 
ROOT
HETATM    1  C   UNL     2     -21.853  -5.975  -5.983  1.00  0.00     0.000 C 
ENDROOT
BRANCH   1   2
HETATM    2  C   UNL     2     -22.137  -6.660  -4.660  1.00  0.00     0.000 C 
BRANCH   2   3
HETATM    3  C   UNL     2     -20.898  -7.395  -4.209  1.00  0.00     0.000 C 
BRANCH   3   4
HETATM    4  C   UNL     2     -20.864  -7.498  -2.696  1.00  0.00     0.000 C 
BRANCH   4   5
HETATM    5  C   UNL     2     -22.003  -6.654  -2.181  1.00  0.00     0.000 C 
BRANCH   5   6
HETATM    6  C   UNL     2     -22.389  -6.987  -0.759  1.00  0.00     0.000 C 
BRANCH   6   7
HETATM    7  C   UNL     2     -21.307  -7.927  -0.260  1.00  0.00     0.000 C 
BRANCH   7   8
HETATM    8  C   UNL     2     -21.863  -8.953   0.689  1.00  0.00     0.000 C 
BRANCH   8   9
HETATM    9  C   UNL     2     -21.509 -10.336   0.194  1.00  0.00    -0.000 C 
BRANCH   9  10
HETATM   10  C   UNL     2     -22.623 -10.893  -0.660  1.00  0.00    -0.005 C 
HETATM   11  C   UNL     2     -24.034 -10.692  -0.141  1.00  0.00     0.005 C 
ENDBRANCH   9  10
ENDBRANCH   8   9
ENDBRANCH   7   8
ENDBRANCH   6   7
ENDBRANCH   5   6
ENDBRANCH   4   5
ENDBRANCH   3   4
ENDBRANCH   2   3
ENDBRANCH   1   2
BRANCH   1  12
HETATM   12  C   UNL     2     -20.604  -5.129  -5.850  1.00  0.00     0.000 C 
BRANCH  12  13
HETATM   13  C   UNL     2     -20.591  -4.033  -6.901  1.00  0.00     0.000 C 
BRANCH  13  14
HETATM   14  C   UNL     2     -19.754  -4.475  -8.091  1.00  0.00     0.000 C 
BRANCH  14  15
HETATM   15  C   UNL     2     -20.597  -4.517  -9.357  1.00  0.00     0.001 C 
BRANCH  15  16
HETATM   16  C   UNL     2     -21.973  -3.912  -9.101  1.00  0.00     0.010 C 
BRANCH  16  17
HETATM   17  C   UNL     2     -22.938  -4.260 -10.228  1.00  0.00     0.110 C 
BRANCH  17  18
HETATM   18  C   UNL     2     -24.282  -3.572 -10.030  1.00  0.00     0.139 C 
HETATM   19  O   UNL     2     -25.025  -3.207 -10.916  1.00  0.00    -0.650 OA
BRANCH  18  20
HETATM   20  O   UNL     2     -24.554  -3.413  -8.705  1.00  0.00    -0.776 OA
HETATM   21  H   UNL     2     -24.512  -4.239  -8.181  1.00  0.00     0.167 HD
ENDBRANCH  18  20
ENDBRANCH  17  18
ENDBRANCH  16  17
ENDBRANCH  15  16
ENDBRANCH  14  15
ENDBRANCH  13  14
ENDBRANCH  12  13
ENDBRANCH   1  12
TORSDOF 37
BEGIN_RES ARG D 557
REMARK  4 active torsions:
REMARK  status: ('A' for Active; 'I' for Inactive)
REMARK    1  A    between atoms: CA   and  CB  
REMARK    2  A    between atoms: CB   and  CG  
REMARK    3  A    between atoms: CG   and  CD  
REMARK    4  A    between atoms: CD   and  NE  
REMARK       I    between atoms: NE   and  CZ  
REMARK       I    between atoms: CZ   and  NH1 
REMARK       I    between atoms: CZ   and  NH2 
ROOT
ATOM      1  CA  ARG D 557     -26.217   2.705 -17.014  1.00 35.49     0.159 C 
ENDROOT
BRANCH   1   2
ATOM      2  CB  ARG D 557     -26.789   1.319 -17.183  1.00 35.49     0.034 C 
BRANCH   2   3
ATOM      3  CG  ARG D 557     -25.862   0.195 -17.004  1.00 35.49     0.027 C 
BRANCH   3   4
ATOM      4  CD  ARG D 557     -26.307  -0.741 -15.946  1.00 35.49     0.116 C 
BRANCH   4   5
ATOM      5  NE  ARG D 557     -25.310  -0.917 -14.924  1.00 35.49    -0.212 N 
ATOM      6  CZ  ARG D 557     -25.036  -2.044 -14.304  1.00 35.49     0.666 C 
ATOM      7  NH1 ARG D 557     -25.683  -3.167 -14.556  1.00 35.49    -0.235 N 
ATOM      8  NH2 ARG D 557     -24.083  -2.025 -13.418  1.00 35.49    -0.235 N 
ATOM      9  HH  ARG D 557     -26.312  -3.202 -15.137  1.00 35.49     0.174 HD
ATOM     10  HH  ARG D 557     -25.459  -3.871 -14.122  1.00 35.49     0.174 HD
ATOM     11  HH  ARG D 557     -23.678  -1.287 -13.281  1.00 35.49     0.174 HD
ATOM     12  HH  ARG D 557     -23.876  -2.733 -13.000  1.00 35.49     0.174 HD
ATOM     13  HE  ARG D 557     -24.894  -0.228 -14.647  1.00 35.49     0.178 HD
ENDBRANCH   4   5
ENDBRANCH   3   4
ENDBRANCH   2   3
ENDBRANCH   1   2
END_RES ARG D 557
BEGIN_RES GLU D 570
REMARK  3 active torsions:
REMARK  status: ('A' for Active; 'I' for Inactive)
REMARK    5  A    between atoms: CA   and  CB  
REMARK    6  A    between atoms: CB   and  CG  
REMARK    7  A    between atoms: CG   and  CD  
ROOT
ATOM     14  CA  GLU D 570     -18.033  -6.348 -13.375  1.00 32.92     0.160 C 
ENDROOT
BRANCH  14  15
ATOM     15  CB  GLU D 570     -19.500  -6.345 -13.794  1.00 32.92     0.043 C 
BRANCH  15  16
ATOM     16  CG  GLU D 570     -20.441  -5.527 -12.986  1.00 32.92     0.100 C 
BRANCH  16  17
ATOM     17  CD  GLU D 570     -21.741  -5.244 -13.702  1.00 32.92     0.185 C 
ATOM     18  OE1 GLU D 570     -22.290  -6.160 -14.343  1.00 32.92    -0.647 OA
ATOM     19  OE2 GLU D 570     -22.206  -4.089 -13.635  1.00 32.92    -0.647 OA
ENDBRANCH  16  17
ENDBRANCH  15  16
ENDBRANCH  14  15
END_RES GLU D 570
ENDMDL
MODEL 2
REMARK VINA RESULT:      -6.7      2.482      4.078
REMARK WARNING: 32 MAX_TORS EXCEEDED!!!
REMARK  37 active torsions:
REMARK  status: ('A' for Active; 'I' for Inactive)
REMARK    1  A    between atoms: C_2  and  C_3 
REMARK    2  A    between atoms: C_3  and  C_4 
REMARK    3  A    between atoms: C_4  and  C_5 
REMARK    4  A    between atoms: C_5  and  C_6 
REMARK    5  A    between atoms: C_6  and  C_7 
REMARK    6  A    between atoms: C_7  and  C_8 
REMARK    7  A    between atoms: C_8  and  C_9 
REMARK    8  A    between atoms: C_9  and  C_10 
REMARK    9  A    between atoms: C_10  and  C_11 
REMARK   10  A    between atoms: C_11  and  C_12 
REMARK   11  A    between atoms: C_12  and  C_13 
REMARK   12  A    between atoms: C_13  and  C_14 
REMARK   13  A    between atoms: C_14  and  C_15 
REMARK   14  A    between atoms: C_15  and  C_16 
REMARK   15  A    between atoms: C_16  and  C_17 
REMARK   16  A    between atoms: C_17  and  C_18 
REMARK       I    between atoms: C_18  and  N_20 
REMARK   17  A    between atoms: N_20  and  C_21 
REMARK   18  A    between atoms: C_21  and  C_22 
REMARK   19  A    between atoms: C_22  and  C_23 
REMARK   20  A    between atoms: C_23  and  N_24 
REMARK   21  A    between atoms: C_29  and  C_30 
REMARK   22  A    between atoms: C_30  and  C_31 
REMARK   23  A    between atoms: C_31  and  C_32 
REMARK   24  A    between atoms: C_32  and  C_33 
REMARK   25  A    between atoms: C_33  and  C_34 
REMARK   26  A    between atoms: C_34  and  C_35 
REMARK   27  A    between atoms: C_35  and  C_36 
REMARK   28  A    between atoms: C_36  and  C_37 
REMARK   29  A    between atoms: C_37  and  C_38 
REMARK   30  A    between atoms: C_38  and  C_39 
REMARK   31  A    between atoms: C_39  and  C_40 
REMARK   32  A    between atoms: C_40  and  C_41 
REMARK   33  A    between atoms: C_41  and  C_42 
REMARK   34  A    between atoms: C_42  and  C_43 
REMARK   35  A    between atoms: C_43  and  C_44 
REMARK   36  A    between atoms: C_44  and  C_45 
REMARK   37  A    between atoms: C_45  and  O_47 
ROOT
HETATM    1  C   UNL     2     -22.143  -3.913  -9.104  1.00  0.00     0.000 C 
ENDROOT
BRANCH   1   2
HETATM    2  C   UNL     2     -22.148  -4.171  -7.609  1.00  0.00     0.000 C 
BRANCH   2   3
HETATM    3  C   UNL     2     -20.741  -4.040  -7.079  1.00  0.00     0.000 C 
BRANCH   3   4
HETATM    4  C   UNL     2     -20.552  -4.915  -5.854  1.00  0.00     0.000 C 
BRANCH   4   5
HETATM    5  C   UNL     2     -21.625  -5.972  -5.911  1.00  0.00     0.000 C 
BRANCH   5   6
HETATM    6  C   UNL     2     -22.059  -6.446  -4.543  1.00  0.00     0.000 C 
BRANCH   6   7
HETATM    7  C   UNL     2     -20.936  -7.345  -4.056  1.00  0.00     0.000 C 
BRANCH   7   8
HETATM    8  C   UNL     2     -20.979  -7.518  -2.563  1.00  0.00     0.000 C 
BRANCH   8   9
HETATM    9  C   UNL     2     -21.984  -6.554  -1.977  1.00  0.00    -0.000 C 
BRANCH   9  10
HETATM   10  C   UNL     2     -22.442  -7.028  -0.618  1.00  0.00    -0.005 C 
HETATM   11  C   UNL     2     -22.420  -8.527  -0.385  1.00  0.00     0.005 C 
ENDBRANCH   9  10
ENDBRANCH   8   9
ENDBRANCH   7   8
ENDBRANCH   6   7
ENDBRANCH   5   6
ENDBRANCH   4   5
ENDBRANCH   3   4
ENDBRANCH   2   3
ENDBRANCH   1   2
BRANCH   1  12
HETATM   12  C   UNL     2     -20.813  -4.353  -9.682  1.00  0.00     0.000 C 
BRANCH  12  13
HETATM   13  C   UNL     2     -20.534  -3.624 -10.984  1.00  0.00     0.000 C 
BRANCH  13  14
HETATM   14  C   UNL     2     -21.840  -3.119 -11.578  1.00  0.00     0.000 C 
BRANCH  14  15
HETATM   15  C   UNL     2     -22.243  -3.955 -12.784  1.00  0.00     0.001 C 
BRANCH  15  16
HETATM   16  C   UNL     2     -22.892  -3.078 -13.848  1.00  0.00     0.010 C 
BRANCH  16  17
HETATM   17  C   UNL     2     -24.210  -2.501 -13.348  1.00  0.00     0.110 C 
BRANCH  17  18
HETATM   18  C   UNL     2     -25.033  -1.936 -14.498  1.00  0.00     0.139 C 
HETATM   19  O   UNL     2     -25.745  -2.581 -15.237  1.00  0.00    -0.650 OA
BRANCH  18  20
HETATM   20  O   UNL     2     -24.865  -0.589 -14.596  1.00  0.00    -0.776 OA
HETATM   21  H   UNL     2     -25.434  -0.157 -15.265  1.00  0.00     0.167 HD
ENDBRANCH  18  20
ENDBRANCH  17  18
ENDBRANCH  16  17
ENDBRANCH  15  16
ENDBRANCH  14  15
ENDBRANCH  13  14
ENDBRANCH  12  13
ENDBRANCH   1  12
TORSDOF 37
BEGIN_RES ARG D 557
REMARK  4 active torsions:
REMARK  status: ('A' for Active; 'I' for Inactive)
REMARK    1  A    between atoms: CA   and  CB  
REMARK    2  A    between atoms: CB   and  CG  
REMARK    3  A    between atoms: CG   and  CD  
REMARK    4  A    between atoms: CD   and  NE  
REMARK       I    between atoms: NE   and  CZ  
REMARK       I    between atoms: CZ   and  NH1 
REMARK       I    between atoms: CZ   and  NH2 
ROOT
ATOM      1  CA  ARG D 557     -26.217   2.705 -17.014  1.00 35.49     0.159 C 
ENDROOT
BRANCH   1   2
ATOM      2  CB  ARG D 557     -26.789   1.319 -17.183  1.00 35.49     0.034 C 
BRANCH   2   3
ATOM      3  CG  ARG D 557     -28.127   1.084 -16.627  1.00 35.49     0.027 C 
BRANCH   3   4
ATOM      4  CD  ARG D 557     -28.799  -0.081 -17.247  1.00 35.49     0.116 C 
BRANCH   4   5
ATOM      5  NE  ARG D 557     -28.197  -1.327 -16.854  1.00 35.49    -0.212 N 
ATOM      6  CZ  ARG D 557     -28.699  -2.523 -17.064  1.00 35.49     0.666 C 
ATOM      7  NH1 ARG D 557     -29.859  -2.709 -17.667  1.00 35.49    -0.235 N 
ATOM      8  NH2 ARG D 557     -28.005  -3.546 -16.658  1.00 35.49    -0.235 N 
ATOM      9  HH  ARG D 557     -30.332  -2.050 -17.945  1.00 35.49     0.174 HD
ATOM     10  HH  ARG D 557     -30.135  -3.512 -17.779  1.00 35.49     0.174 HD
ATOM     11  HH  ARG D 557     -27.256  -3.396 -16.279  1.00 35.49     0.174 HD
ATOM     12  HH  ARG D 557     -28.294  -4.334 -16.780  1.00 35.49     0.174 HD
ATOM     13  HE  ARG D 557     -27.482  -1.298 -16.394  1.00 35.49     0.178 HD
ENDBRANCH   4   5
ENDBRANCH   3   4
ENDBRANCH   2   3
ENDBRANCH   1   2
END_RES ARG D 557
BEGIN_RES GLU D 570
REMARK  3 active torsions:
REMARK  status: ('A' for Active; 'I' for Inactive)
REMARK    5  A    between atoms: CA   and  CB  
REMARK    6  A    between atoms: CB   and  CG  
REMARK    7  A    between atoms: CG   and  CD  
ROOT
ATOM     14  CA  GLU D 570     -18.033  -6.348 -13.375  1.00 32.92     0.160 C 
ENDROOT
BRANCH  14  15
ATOM     15  CB  GLU D 570     -19.500  -6.345 -13.794  1.00 32.92     0.043 C 
BRANCH  15  16
ATOM     16  CG  GLU D 570     -20.090  -7.637 -14.230  1.00 32.92     0.100 C 
BRANCH  16  17
ATOM     17  CD  GLU D 570     -20.680  -7.576 -15.619  1.00 32.92     0.185 C 
ATOM     18  OE1 GLU D 570     -21.162  -8.612 -16.118  1.00 32.92    -0.647 OA
ATOM     19  OE2 GLU D 570     -20.645  -6.486 -16.222  1.00 32.92    -0.647 OA
ENDBRANCH  16  17
ENDBRANCH  15  16
ENDBRANCH  14  15
END_RES GLU D 570
ENDMDL
MODEL 3
REMARK VINA RESULT:      -6.5      1.364      2.062
REMARK WARNING: 32 MAX_TORS EXCEEDED!!!
REMARK  37 active torsions:
REMARK  status: ('A' for Active; 'I' for Inactive)
REMARK    1  A    between atoms: C_2  and  C_3 
REMARK    2  A    between atoms: C_3  and  C_4 
REMARK    3  A    between atoms: C_4  and  C_5 
REMARK    4  A    between atoms: C_5  and  C_6 
REMARK    5  A    between atoms: C_6  and  C_7 
REMARK    6  A    between atoms: C_7  and  C_8 
REMARK    7  A    between atoms: C_8  and  C_9 
REMARK    8  A    between atoms: C_9  and  C_10 
REMARK    9  A    between atoms: C_10  and  C_11 
REMARK   10  A    between atoms: C_11  and  C_12 
REMARK   11  A    between atoms: C_12  and  C_13 
REMARK   12  A    between atoms: C_13  and  C_14 
REMARK   13  A    between atoms: C_14  and  C_15 
REMARK   14  A    between atoms: C_15  and  C_16 
REMARK   15  A    between atoms: C_16  and  C_17 
REMARK   16  A    between atoms: C_17  and  C_18 
REMARK       I    between atoms: C_18  and  N_20 
REMARK   17  A    between atoms: N_20  and  C_21 
REMARK   18  A    between atoms: C_21  and  C_22 
REMARK   19  A    between atoms: C_22  and  C_23 
REMARK   20  A    between atoms: C_23  and  N_24 
REMARK   21  A    between atoms: C_29  and  C_30 
REMARK   22  A    between atoms: C_30  and  C_31 
REMARK   23  A    between atoms: C_31  and  C_32 
REMARK   24  A    between atoms: C_32  and  C_33 
REMARK   25  A    between atoms: C_33  and  C_34 
REMARK   26  A    between atoms: C_34  and  C_35 
REMARK   27  A    between atoms: C_35  and  C_36 
REMARK   28  A    between atoms: C_36  and  C_37 
REMARK   29  A    between atoms: C_37  and  C_38 
REMARK   30  A    between atoms: C_38  and  C_39 
REMARK   31  A    between atoms: C_39  and  C_40 
REMARK   32  A    between atoms: C_40  and  C_41 
REMARK   33  A    between atoms: C_41  and  C_42 
REMARK   34  A    between atoms: C_42  and  C_43 
REMARK   35  A    between atoms: C_43  and  C_44 
REMARK   36  A    between atoms: C_44  and  C_45 
REMARK   37  A    between atoms: C_45  and  O_47 
ROOT
HETATM    1  C   UNL     2     -20.520  -4.473  -6.171  1.00  0.00     0.000 C 
ENDROOT
BRANCH   1   2
HETATM    2  C   UNL     2     -19.925  -5.803  -6.594  1.00  0.00     0.000 C 
BRANCH   2   3
HETATM    3  C   UNL     2     -20.678  -6.920  -5.914  1.00  0.00     0.000 C 
BRANCH   3   4
HETATM    4  C   UNL     2     -21.798  -6.361  -5.057  1.00  0.00     0.000 C 
BRANCH   4   5
HETATM    5  C   UNL     2     -21.927  -7.277  -3.866  1.00  0.00     0.000 C 
BRANCH   5   6
HETATM    6  C   UNL     2     -21.649  -6.582  -2.554  1.00  0.00     0.000 C 
BRANCH   6   7
HETATM    7  C   UNL     2     -21.721  -7.672  -1.500  1.00  0.00     0.000 C 
BRANCH   7   8
HETATM    8  C   UNL     2     -22.348  -7.168  -0.229  1.00  0.00     0.000 C 
BRANCH   8   9
HETATM    9  C   UNL     2     -23.159  -8.277   0.401  1.00  0.00    -0.000 C 
BRANCH   9  10
HETATM   10  C   UNL     2     -22.698  -9.623  -0.106  1.00  0.00    -0.005 C 
HETATM   11  C   UNL     2     -23.781 -10.652  -0.363  1.00  0.00     0.005 C 
ENDBRANCH   9  10
ENDBRANCH   8   9
ENDBRANCH   7   8
ENDBRANCH   6   7
ENDBRANCH   5   6
ENDBRANCH   4   5
ENDBRANCH   3   4
ENDBRANCH   2   3
ENDBRANCH   1   2
BRANCH   1  12
HETATM   12  C   UNL     2     -20.962  -3.710  -7.402  1.00  0.00     0.000 C 
BRANCH  12  13
HETATM   13  C   UNL     2     -20.135  -4.122  -8.606  1.00  0.00     0.000 C 
BRANCH  13  14
HETATM   14  C   UNL     2     -21.056  -4.460  -9.769  1.00  0.00     0.000 C 
BRANCH  14  15
HETATM   15  C   UNL     2     -20.695  -3.638 -10.998  1.00  0.00     0.001 C 
BRANCH  15  16
HETATM   16  C   UNL     2     -21.854  -3.622 -11.988  1.00  0.00     0.010 C 
BRANCH  16  17
HETATM   17  C   UNL     2     -23.091  -4.280 -11.388  1.00  0.00     0.110 C 
BRANCH  17  18
HETATM   18  C   UNL     2     -24.250  -3.296 -11.310  1.00  0.00     0.139 C 
HETATM   19  O   UNL     2     -25.108  -3.285 -10.453  1.00  0.00    -0.650 OA
BRANCH  18  20
HETATM   20  O   UNL     2     -24.204  -2.411 -12.343  1.00  0.00    -0.776 OA
HETATM   21  H   UNL     2     -23.382  -1.883 -12.389  1.00  0.00     0.167 HD
ENDBRANCH  18  20
ENDBRANCH  17  18
ENDBRANCH  16  17
ENDBRANCH  15  16
ENDBRANCH  14  15
ENDBRANCH  13  14
ENDBRANCH  12  13
ENDBRANCH   1  12
TORSDOF 37
BEGIN_RES ARG D 557
REMARK  4 active torsions:
REMARK  status: ('A' for Active; 'I' for Inactive)
REMARK    1  A    between atoms: CA   and  CB  
REMARK    2  A    between atoms: CB   and  CG  
REMARK    3  A    between atoms: CG   and  CD  
REMARK    4  A    between atoms: CD   and  NE  
REMARK       I    between atoms: NE   and  CZ  
REMARK       I    between atoms: CZ   and  NH1 
REMARK       I    between atoms: CZ   and  NH2 
ROOT
ATOM      1  CA  ARG D 557     -26.217   2.705 -17.014  1.00 35.49     0.159 C 
ENDROOT
BRANCH   1   2
ATOM      2  CB  ARG D 557     -26.789   1.319 -17.183  1.00 35.49     0.034 C 
BRANCH   2   3
ATOM      3  CG  ARG D 557     -26.038   0.215 -16.573  1.00 35.49     0.027 C 
BRANCH   3   4
ATOM      4  CD  ARG D 557     -26.916  -0.900 -16.151  1.00 35.49     0.116 C 
BRANCH   4   5
ATOM      5  NE  ARG D 557     -26.219  -1.862 -15.339  1.00 35.49    -0.212 N 
ATOM      6  CZ  ARG D 557     -26.446  -3.156 -15.315  1.00 35.49     0.666 C 
ATOM      7  NH1 ARG D 557     -27.382  -3.725 -16.053  1.00 35.49    -0.235 N 
ATOM      8  NH2 ARG D 557     -25.702  -3.882 -14.532  1.00 35.49    -0.235 N 
ATOM      9  HH  ARG D 557     -27.882  -3.267 -16.577  1.00 35.49     0.174 HD
ATOM     10  HH  ARG D 557     -27.483  -4.574 -15.998  1.00 35.49     0.174 HD
ATOM     11  HH  ARG D 557     -25.101  -3.488 -14.073  1.00 35.49     0.174 HD
ATOM     12  HH  ARG D 557     -25.817  -4.721 -14.493  1.00 35.49     0.174 HD
ATOM     13  HE  ARG D 557     -25.648  -1.573 -14.779  1.00 35.49     0.178 HD
ENDBRANCH   4   5
ENDBRANCH   3   4
ENDBRANCH   2   3
ENDBRANCH   1   2
END_RES ARG D 557
BEGIN_RES GLU D 570
REMARK  3 active torsions:
REMARK  status: ('A' for Active; 'I' for Inactive)
REMARK    5  A    between atoms: CA   and  CB  
REMARK    6  A    between atoms: CB   and  CG  
REMARK    7  A    between atoms: CG   and  CD  
ROOT
ATOM     14  CA  GLU D 570     -18.033  -6.348 -13.375  1.00 32.92     0.160 C 
ENDROOT
BRANCH  14  15
ATOM     15  CB  GLU D 570     -19.500  -6.345 -13.794  1.00 32.92     0.043 C 
BRANCH  15  16
ATOM     16  CG  GLU D 570     -19.812  -5.953 -15.193  1.00 32.92     0.100 C 
BRANCH  16  17
ATOM     17  CD  GLU D 570     -21.273  -5.632 -15.403  1.00 32.92     0.185 C 
ATOM     18  OE1 GLU D 570     -21.605  -4.934 -16.381  1.00 32.92    -0.647 OA
ATOM     19  OE2 GLU D 570     -22.093  -6.068 -14.572  1.00 32.92    -0.647 OA
ENDBRANCH  16  17
ENDBRANCH  15  16
ENDBRANCH  14  15
END_RES GLU D 570
ENDMDL
MODEL 4
REMARK VINA RESULT:      -6.5      1.752      2.314
REMARK WARNING: 32 MAX_TORS EXCEEDED!!!
REMARK  37 active torsions:
REMARK  status: ('A' for Active; 'I' for Inactive)
REMARK    1  A    between atoms: C_2  and  C_3 
REMARK    2  A    between atoms: C_3  and  C_4 
REMARK    3  A    between atoms: C_4  and  C_5 
REMARK    4  A    between atoms: C_5  and  C_6 
REMARK    5  A    between atoms: C_6  and  C_7 
REMARK    6  A    between atoms: C_7  and  C_8 
REMARK    7  A    between atoms: C_8  and  C_9 
REMARK    8  A    between atoms: C_9  and  C_10 
REMARK    9  A    between atoms: C_10  and  C_11 
REMARK   10  A    between atoms: C_11  and  C_12 
REMARK   11  A    between atoms: C_12  and  C_13 
REMARK   12  A    between atoms: C_13  and  C_14 
REMARK   13  A    between atoms: C_14  and  C_15 
REMARK   14  A    between atoms: C_15  and  C_16 
REMARK   15  A    between atoms: C_16  and  C_17 
REMARK   16  A    between atoms: C_17  and  C_18 
REMARK       I    between atoms: C_18  and  N_20 
REMARK   17  A    between atoms: N_20  and  C_21 
REMARK   18  A    between atoms: C_21  and  C_22 
REMARK   19  A    between atoms: C_22  and  C_23 
REMARK   20  A    between atoms: C_23  and  N_24 
REMARK   21  A    between atoms: C_29  and  C_30 
REMARK   22  A    between atoms: C_30  and  C_31 
REMARK   23  A    between atoms: C_31  and  C_32 
REMARK   24  A    between atoms: C_32  and  C_33 
REMARK   25  A    between atoms: C_33  and  C_34 
REMARK   26  A    between atoms: C_34  and  C_35 
REMARK   27  A    between atoms: C_35  and  C_36 
REMARK   28  A    between atoms: C_36  and  C_37 
REMARK   29  A    between atoms: C_37  and  C_38 
REMARK   30  A    between atoms: C_38  and  C_39 
REMARK   31  A    between atoms: C_39  and  C_40 
REMARK   32  A    between atoms: C_40  and  C_41 
REMARK   33  A    between atoms: C_41  and  C_42 
REMARK   34  A    between atoms: C_42  and  C_43 
REMARK   35  A    between atoms: C_43  and  C_44 
REMARK   36  A    between atoms: C_44  and  C_45 
REMARK   37  A    between atoms: C_45  and  O_47 
ROOT
HETATM    1  C   UNL     2     -21.678  -7.182  -5.276  1.00  0.00     0.000 C 
ENDROOT
BRANCH   1   2
HETATM    2  C   UNL     2     -21.367  -7.387  -3.805  1.00  0.00     0.000 C 
BRANCH   2   3
HETATM    3  C   UNL     2     -21.329  -6.045  -3.116  1.00  0.00     0.000 C 
BRANCH   3   4
HETATM    4  C   UNL     2     -22.180  -6.069  -1.860  1.00  0.00     0.000 C 
BRANCH   4   5
HETATM    5  C   UNL     2     -22.077  -7.464  -1.297  1.00  0.00     0.000 C 
BRANCH   5   6
HETATM    6  C   UNL     2     -22.671  -7.588   0.086  1.00  0.00     0.000 C 
BRANCH   6   7
HETATM    7  C   UNL     2     -21.669  -8.405   0.882  1.00  0.00     0.000 C 
BRANCH   7   8
HETATM    8  C   UNL     2     -21.014  -9.455   0.028  1.00  0.00     0.000 C 
BRANCH   8   9
HETATM    9  C   UNL     2     -21.547 -10.816   0.413  1.00  0.00    -0.000 C 
BRANCH   9  10
HETATM   10  C   UNL     2     -22.608 -11.264  -0.564  1.00  0.00    -0.005 C 
HETATM   11  C   UNL     2     -24.048 -11.090  -0.122  1.00  0.00     0.005 C 
ENDBRANCH   9  10
ENDBRANCH   8   9
ENDBRANCH   7   8
ENDBRANCH   6   7
ENDBRANCH   5   6
ENDBRANCH   4   5
ENDBRANCH   3   4
ENDBRANCH   2   3
ENDBRANCH   1   2
BRANCH   1  12
HETATM   12  C   UNL     2     -21.087  -5.863  -5.731  1.00  0.00     0.000 C 
BRANCH  12  13
HETATM   13  C   UNL     2     -20.864  -5.874  -7.233  1.00  0.00     0.000 C 
BRANCH  13  14
HETATM   14  C   UNL     2     -20.661  -4.451  -7.731  1.00  0.00     0.000 C 
BRANCH  14  15
HETATM   15  C   UNL     2     -21.978  -3.688  -7.734  1.00  0.00     0.001 C 
BRANCH  15  16
HETATM   16  C   UNL     2     -22.974  -4.348  -8.680  1.00  0.00     0.010 C 
BRANCH  16  17
HETATM   17  C   UNL     2     -22.938  -3.690 -10.054  1.00  0.00     0.110 C 
BRANCH  17  18
HETATM   18  C   UNL     2     -24.334  -3.276 -10.500  1.00  0.00     0.139 C 
HETATM   19  O   UNL     2     -25.327  -3.288  -9.805  1.00  0.00    -0.650 OA
BRANCH  18  20
HETATM   20  O   UNL     2     -24.329  -2.882 -11.803  1.00  0.00    -0.776 OA
HETATM   21  H   UNL     2     -25.107  -2.351 -12.070  1.00  0.00     0.167 HD
ENDBRANCH  18  20
ENDBRANCH  17  18
ENDBRANCH  16  17
ENDBRANCH  15  16
ENDBRANCH  14  15
ENDBRANCH  13  14
ENDBRANCH  12  13
ENDBRANCH   1  12
TORSDOF 37
BEGIN_RES ARG D 557
REMARK  4 active torsions:
REMARK  status: ('A' for Active; 'I' for Inactive)
REMARK    1  A    between atoms: CA   and  CB  
REMARK    2  A    between atoms: CB   and  CG  
REMARK    3  A    between atoms: CG   and  CD  
REMARK    4  A    between atoms: CD   and  NE  
REMARK       I    between atoms: NE   and  CZ  
REMARK       I    between atoms: CZ   and  NH1 
REMARK       I    between atoms: CZ   and  NH2 
ROOT
ATOM      1  CA  ARG D 557     -26.217   2.705 -17.014  1.00 35.49     0.159 C 
ENDROOT
BRANCH   1   2
ATOM      2  CB  ARG D 557     -26.789   1.319 -17.183  1.00 35.49     0.034 C 
BRANCH   2   3
ATOM      3  CG  ARG D 557     -28.224   1.228 -17.479  1.00 35.49     0.027 C 
BRANCH   3   4
ATOM      4  CD  ARG D 557     -28.937   0.327 -16.546  1.00 35.49     0.116 C 
BRANCH   4   5
ATOM      5  NE  ARG D 557     -29.304  -0.918 -17.168  1.00 35.49    -0.212 N 
ATOM      6  CZ  ARG D 557     -28.659  -2.057 -17.046  1.00 35.49     0.666 C 
ATOM      7  NH1 ARG D 557     -27.560  -2.176 -16.325  1.00 35.49    -0.235 N 
ATOM      8  NH2 ARG D 557     -29.148  -3.092 -17.665  1.00 35.49    -0.235 N 
ATOM      9  HH  ARG D 557     -27.222  -1.508 -15.908  1.00 35.49     0.174 HD
ATOM     10  HH  ARG D 557     -27.184  -2.945 -16.281  1.00 35.49     0.174 HD
ATOM     11  HH  ARG D 557     -29.863  -2.988 -18.118  1.00 35.49     0.174 HD
ATOM     12  HH  ARG D 557     -28.762  -3.845 -17.607  1.00 35.49     0.174 HD
ATOM     13  HE  ARG D 557     -29.960  -0.916 -17.709  1.00 35.49     0.178 HD
ENDBRANCH   4   5
ENDBRANCH   3   4
ENDBRANCH   2   3
ENDBRANCH   1   2
END_RES ARG D 557
BEGIN_RES GLU D 570
REMARK  3 active torsions:
REMARK  status: ('A' for Active; 'I' for Inactive)
REMARK    5  A    between atoms: CA   and  CB  
REMARK    6  A    between atoms: CB   and  CG  
REMARK    7  A    between atoms: CG   and  CD  
ROOT
ATOM     14  CA  GLU D 570     -18.033  -6.348 -13.375  1.00 32.92     0.160 C 
ENDROOT
BRANCH  14  15
ATOM     15  CB  GLU D 570     -19.500  -6.345 -13.794  1.00 32.92     0.043 C 
BRANCH  15  16
ATOM     16  CG  GLU D 570     -20.447  -5.553 -12.966  1.00 32.92     0.100 C 
BRANCH  16  17
ATOM     17  CD  GLU D 570     -21.738  -5.239 -13.686  1.00 32.92     0.185 C 
ATOM     18  OE1 GLU D 570     -22.269  -4.125 -13.517  1.00 32.92    -0.647 OA
ATOM     19  OE2 GLU D 570     -22.232  -6.124 -14.413  1.00 32.92    -0.647 OA
ENDBRANCH  16  17
ENDBRANCH  15  16
ENDBRANCH  14  15
END_RES GLU D 570
ENDMDL
MODEL 5
REMARK VINA RESULT:      -6.4      1.053      1.541
REMARK WARNING: 32 MAX_TORS EXCEEDED!!!
REMARK  37 active torsions:
REMARK  status: ('A' for Active; 'I' for Inactive)
REMARK    1  A    between atoms: C_2  and  C_3 
REMARK    2  A    between atoms: C_3  and  C_4 
REMARK    3  A    between atoms: C_4  and  C_5 
REMARK    4  A    between atoms: C_5  and  C_6 
REMARK    5  A    between atoms: C_6  and  C_7 
REMARK    6  A    between atoms: C_7  and  C_8 
REMARK    7  A    between atoms: C_8  and  C_9 
REMARK    8  A    between atoms: C_9  and  C_10 
REMARK    9  A    between atoms: C_10  and  C_11 
REMARK   10  A    between atoms: C_11  and  C_12 
REMARK   11  A    between atoms: C_12  and  C_13 
REMARK   12  A    between atoms: C_13  and  C_14 
REMARK   13  A    between atoms: C_14  and  C_15 
REMARK   14  A    between atoms: C_15  and  C_16 
REMARK   15  A    between atoms: C_16  and  C_17 
REMARK   16  A    between atoms: C_17  and  C_18 
REMARK       I    between atoms: C_18  and  N_20 
REMARK   17  A    between atoms: N_20  and  C_21 
REMARK   18  A    between atoms: C_21  and  C_22 
REMARK   19  A    between atoms: C_22  and  C_23 
REMARK   20  A    between atoms: C_23  and  N_24 
REMARK   21  A    between atoms: C_29  and  C_30 
REMARK   22  A    between atoms: C_30  and  C_31 
REMARK   23  A    between atoms: C_31  and  C_32 
REMARK   24  A    between atoms: C_32  and  C_33 
REMARK   25  A    between atoms: C_33  and  C_34 
REMARK   26  A    between atoms: C_34  and  C_35 
REMARK   27  A    between atoms: C_35  and  C_36 
REMARK   28  A    between atoms: C_36  and  C_37 
REMARK   29  A    between atoms: C_37  and  C_38 
REMARK   30  A    between atoms: C_38  and  C_39 
REMARK   31  A    between atoms: C_39  and  C_40 
REMARK   32  A    between atoms: C_40  and  C_41 
REMARK   33  A    between atoms: C_41  and  C_42 
REMARK   34  A    between atoms: C_42  and  C_43 
REMARK   35  A    between atoms: C_43  and  C_44 
REMARK   36  A    between atoms: C_44  and  C_45 
REMARK   37  A    between atoms: C_45  and  O_47 
ROOT
HETATM    1  C   UNL     2     -21.469  -6.561  -5.540  1.00  0.00     0.000 C 
ENDROOT
BRANCH   1   2
HETATM    2  C   UNL     2     -22.108  -6.824  -4.191  1.00  0.00     0.000 C 
BRANCH   2   3
HETATM    3  C   UNL     2     -21.286  -6.157  -3.115  1.00  0.00     0.000 C 
BRANCH   3   4
HETATM    4  C   UNL     2     -22.062  -6.098  -1.813  1.00  0.00     0.000 C 
BRANCH   4   5
HETATM    5  C   UNL     2     -22.262  -7.525  -1.367  1.00  0.00     0.000 C 
BRANCH   5   6
HETATM    6  C   UNL     2     -21.168  -8.015  -0.448  1.00  0.00     0.000 C 
BRANCH   6   7
HETATM    7  C   UNL     2     -20.774  -9.379  -0.984  1.00  0.00     0.000 C 
BRANCH   7   8
HETATM    8  C   UNL     2     -21.642  -9.786  -2.143  1.00  0.00     0.000 C 
BRANCH   8   9
HETATM    9  C   UNL     2     -22.173 -11.180  -1.905  1.00  0.00    -0.000 C 
BRANCH   9  10
HETATM   10  C   UNL     2     -23.646 -11.136  -1.575  1.00  0.00    -0.005 C 
HETATM   11  C   UNL     2     -24.003 -11.003  -0.107  1.00  0.00     0.005 C 
ENDBRANCH   9  10
ENDBRANCH   8   9
ENDBRANCH   7   8
ENDBRANCH   6   7
ENDBRANCH   5   6
ENDBRANCH   4   5
ENDBRANCH   3   4
ENDBRANCH   2   3
ENDBRANCH   1   2
BRANCH   1  12
HETATM   12  C   UNL     2     -20.442  -5.456  -5.400  1.00  0.00     0.000 C 
BRANCH  12  13
HETATM   13  C   UNL     2     -20.663  -4.390  -6.458  1.00  0.00     0.000 C 
BRANCH  13  14
HETATM   14  C   UNL     2     -21.704  -4.868  -7.458  1.00  0.00     0.000 C 
BRANCH  14  15
HETATM   15  C   UNL     2     -22.131  -3.732  -8.375  1.00  0.00     0.001 C 
BRANCH  15  16
HETATM   16  C   UNL     2     -22.324  -4.240  -9.800  1.00  0.00     0.010 C 
BRANCH  16  17
HETATM   17  C   UNL     2     -23.769  -4.661 -10.036  1.00  0.00     0.110 C 
BRANCH  17  18
HETATM   18  C   UNL     2     -24.633  -3.465 -10.412  1.00  0.00     0.139 C 
HETATM   19  O   UNL     2     -25.666  -3.142  -9.865  1.00  0.00    -0.650 OA
BRANCH  18  20
HETATM   20  O   UNL     2     -24.091  -2.786 -11.460  1.00  0.00    -0.776 OA
HETATM   21  H   UNL     2     -24.584  -2.875 -12.300  1.00  0.00     0.167 HD
ENDBRANCH  18  20
ENDBRANCH  17  18
ENDBRANCH  16  17
ENDBRANCH  15  16
ENDBRANCH  14  15
ENDBRANCH  13  14
ENDBRANCH  12  13
ENDBRANCH   1  12
TORSDOF 37
BEGIN_RES ARG D 557
REMARK  4 active torsions:
REMARK  status: ('A' for Active; 'I' for Inactive)
REMARK    1  A    between atoms: CA   and  CB  
REMARK    2  A    between atoms: CB   and  CG  
REMARK    3  A    between atoms: CG   and  CD  
REMARK    4  A    between atoms: CD   and  NE  
REMARK       I    between atoms: NE   and  CZ  
REMARK       I    between atoms: CZ   and  NH1 
REMARK       I    between atoms: CZ   and  NH2 
ROOT
ATOM      1  CA  ARG D 557     -26.217   2.705 -17.014  1.00 35.49     0.159 C 
ENDROOT
BRANCH   1   2
ATOM      2  CB  ARG D 557     -26.789   1.319 -17.183  1.00 35.49     0.034 C 
BRANCH   2   3
ATOM      3  CG  ARG D 557     -25.838   0.202 -17.135  1.00 35.49     0.027 C 
BRANCH   3   4
ATOM      4  CD  ARG D 557     -25.294  -0.018 -15.775  1.00 35.49     0.116 C 
BRANCH   4   5
ATOM      5  NE  ARG D 557     -25.682  -1.295 -15.236  1.00 35.49    -0.212 N 
ATOM      6  CZ  ARG D 557     -24.880  -2.158 -14.653  1.00 35.49     0.666 C 
ATOM      7  NH1 ARG D 557     -23.586  -1.939 -14.510  1.00 35.49    -0.235 N 
ATOM      8  NH2 ARG D 557     -25.408  -3.258 -14.202  1.00 35.49    -0.235 N 
ATOM      9  HH  ARG D 557     -23.217  -1.221 -14.797  1.00 35.49     0.174 HD
ATOM     10  HH  ARG D 557     -23.113  -2.537 -14.119  1.00 35.49     0.174 HD
ATOM     11  HH  ARG D 557     -26.248  -3.369 -14.302  1.00 35.49     0.174 HD
ATOM     12  HH  ARG D 557     -24.924  -3.837 -13.817  1.00 35.49     0.174 HD
ATOM     13  HE  ARG D 557     -26.485  -1.549 -15.349  1.00 35.49     0.178 HD
ENDBRANCH   4   5
ENDBRANCH   3   4
ENDBRANCH   2   3
ENDBRANCH   1   2
END_RES ARG D 557
BEGIN_RES GLU D 570
REMARK  3 active torsions:
REMARK  status: ('A' for Active; 'I' for Inactive)
REMARK    5  A    between atoms: CA   and  CB  
REMARK    6  A    between atoms: CB   and  CG  
REMARK    7  A    between atoms: CG   and  CD  
ROOT
ATOM     14  CA  GLU D 570     -18.033  -6.348 -13.375  1.00 32.92     0.160 C 
ENDROOT
BRANCH  14  15
ATOM     15  CB  GLU D 570     -19.500  -6.345 -13.794  1.00 32.92     0.043 C 
BRANCH  15  16
ATOM     16  CG  GLU D 570     -20.430  -5.481 -13.023  1.00 32.92     0.100 C 
BRANCH  16  17
ATOM     17  CD  GLU D 570     -21.599  -4.992 -13.846  1.00 32.92     0.185 C 
ATOM     18  OE1 GLU D 570     -22.624  -4.588 -13.262  1.00 32.92    -0.647 OA
ATOM     19  OE2 GLU D 570     -21.496  -5.028 -15.088  1.00 32.92    -0.647 OA
ENDBRANCH  16  17
ENDBRANCH  15  16
ENDBRANCH  14  15
END_RES GLU D 570
ENDMDL
MODEL 6
REMARK VINA RESULT:      -6.3      2.099      3.479
REMARK WARNING: 32 MAX_TORS EXCEEDED!!!
REMARK  37 active torsions:
REMARK  status: ('A' for Active; 'I' for Inactive)
REMARK    1  A    between atoms: C_2  and  C_3 
REMARK    2  A    between atoms: C_3  and  C_4 
REMARK    3  A    between atoms: C_4  and  C_5 
REMARK    4  A    between atoms: C_5  and  C_6 
REMARK    5  A    between atoms: C_6  and  C_7 
REMARK    6  A    between atoms: C_7  and  C_8 
REMARK    7  A    between atoms: C_8  and  C_9 
REMARK    8  A    between atoms: C_9  and  C_10 
REMARK    9  A    between atoms: C_10  and  C_11 
REMARK   10  A    between atoms: C_11  and  C_12 
REMARK   11  A    between atoms: C_12  and  C_13 
REMARK   12  A    between atoms: C_13  and  C_14 
REMARK   13  A    between atoms: C_14  and  C_15 
REMARK   14  A    between atoms: C_15  and  C_16 
REMARK   15  A    between atoms: C_16  and  C_17 
REMARK   16  A    between atoms: C_17  and  C_18 
REMARK       I    between atoms: C_18  and  N_20 
REMARK   17  A    between atoms: N_20  and  C_21 
REMARK   18  A    between atoms: C_21  and  C_22 
REMARK   19  A    between atoms: C_22  and  C_23 
REMARK   20  A    between atoms: C_23  and  N_24 
REMARK   21  A    between atoms: C_29  and  C_30 
REMARK   22  A    between atoms: C_30  and  C_31 
REMARK   23  A    between atoms: C_31  and  C_32 
REMARK   24  A    between atoms: C_32  and  C_33 
REMARK   25  A    between atoms: C_33  and  C_34 
REMARK   26  A    between atoms: C_34  and  C_35 
REMARK   27  A    between atoms: C_35  and  C_36 
REMARK   28  A    between atoms: C_36  and  C_37 
REMARK   29  A    between atoms: C_37  and  C_38 
REMARK   30  A    between atoms: C_38  and  C_39 
REMARK   31  A    between atoms: C_39  and  C_40 
REMARK   32  A    between atoms: C_40  and  C_41 
REMARK   33  A    between atoms: C_41  and  C_42 
REMARK   34  A    between atoms: C_42  and  C_43 
REMARK   35  A    between atoms: C_43  and  C_44 
REMARK   36  A    between atoms: C_44  and  C_45 
REMARK   37  A    between atoms: C_45  and  O_47 
ROOT
HETATM    1  C   UNL     2     -20.160  -5.136  -8.923  1.00  0.00     0.000 C 
ENDROOT
BRANCH   1   2
HETATM    2  C   UNL     2     -20.426  -3.890  -8.102  1.00  0.00     0.000 C 
BRANCH   2   3
HETATM    3  C   UNL     2     -21.226  -4.265  -6.878  1.00  0.00     0.000 C 
BRANCH   3   4
HETATM    4  C   UNL     2     -20.313  -4.804  -5.792  1.00  0.00     0.000 C 
BRANCH   4   5
HETATM    5  C   UNL     2     -20.773  -6.210  -5.502  1.00  0.00     0.000 C 
BRANCH   5   6
HETATM    6  C   UNL     2     -21.826  -6.275  -4.421  1.00  0.00     0.000 C 
BRANCH   6   7
HETATM    7  C   UNL     2     -21.057  -6.436  -3.121  1.00  0.00     0.000 C 
BRANCH   7   8
HETATM    8  C   UNL     2     -21.977  -6.741  -1.972  1.00  0.00     0.000 C 
BRANCH   8   9
HETATM    9  C   UNL     2     -21.370  -7.833  -1.122  1.00  0.00    -0.000 C 
BRANCH   9  10
HETATM   10  C   UNL     2     -21.884  -7.747   0.296  1.00  0.00    -0.005 C 
HETATM   11  C   UNL     2     -23.322  -8.174   0.518  1.00  0.00     0.005 C 
ENDBRANCH   9  10
ENDBRANCH   8   9
ENDBRANCH   7   8
ENDBRANCH   6   7
ENDBRANCH   5   6
ENDBRANCH   4   5
ENDBRANCH   3   4
ENDBRANCH   2   3
ENDBRANCH   1   2
BRANCH   1  12
HETATM   12  C   UNL     2     -20.066  -4.759 -10.388  1.00  0.00     0.000 C 
BRANCH  12  13
HETATM   13  C   UNL     2     -20.417  -3.294 -10.580  1.00  0.00     0.000 C 
BRANCH  13  14
HETATM   14  C   UNL     2     -21.510  -3.163 -11.630  1.00  0.00     0.000 C 
BRANCH  14  15
HETATM   15  C   UNL     2     -22.125  -4.521 -11.939  1.00  0.00     0.001 C 
BRANCH  15  16
HETATM   16  C   UNL     2     -23.647  -4.435 -11.910  1.00  0.00     0.010 C 
BRANCH  16  17
HETATM   17  C   UNL     2     -24.107  -3.167 -11.202  1.00  0.00     0.110 C 
BRANCH  17  18
HETATM   18  C   UNL     2     -24.622  -3.477  -9.802  1.00  0.00     0.139 C 
HETATM   19  O   UNL     2     -23.938  -3.808  -8.858  1.00  0.00    -0.650 OA
BRANCH  18  20
HETATM   20  O   UNL     2     -25.974  -3.334  -9.742  1.00  0.00    -0.776 OA
HETATM   21  H   UNL     2     -26.435  -4.041  -9.246  1.00  0.00     0.167 HD
ENDBRANCH  18  20
ENDBRANCH  17  18
ENDBRANCH  16  17
ENDBRANCH  15  16
ENDBRANCH  14  15
ENDBRANCH  13  14
ENDBRANCH  12  13
ENDBRANCH   1  12
TORSDOF 37
BEGIN_RES ARG D 557
REMARK  4 active torsions:
REMARK  status: ('A' for Active; 'I' for Inactive)
REMARK    1  A    between atoms: CA   and  CB  
REMARK    2  A    between atoms: CB   and  CG  
REMARK    3  A    between atoms: CG   and  CD  
REMARK    4  A    between atoms: CD   and  NE  
REMARK       I    between atoms: NE   and  CZ  
REMARK       I    between atoms: CZ   and  NH1 
REMARK       I    between atoms: CZ   and  NH2 
ROOT
ATOM      1  CA  ARG D 557     -26.217   2.705 -17.014  1.00 35.49     0.159 C 
ENDROOT
BRANCH   1   2
ATOM      2  CB  ARG D 557     -26.789   1.319 -17.183  1.00 35.49     0.034 C 
BRANCH   2   3
ATOM      3  CG  ARG D 557     -28.185   1.126 -16.773  1.00 35.49     0.027 C 
BRANCH   3   4
ATOM      4  CD  ARG D 557     -28.726  -0.181 -17.210  1.00 35.49     0.116 C 
BRANCH   4   5
ATOM      5  NE  ARG D 557     -27.994  -1.286 -16.649  1.00 35.49    -0.212 N 
ATOM      6  CZ  ARG D 557     -28.278  -2.559 -16.814  1.00 35.49     0.666 C 
ATOM      7  NH1 ARG D 557     -29.311  -2.968 -17.527  1.00 35.49    -0.235 N 
ATOM      8  NH2 ARG D 557     -27.492  -3.427 -16.248  1.00 35.49    -0.235 N 
ATOM      9  HH  ARG D 557     -29.840  -2.414 -17.911  1.00 35.49     0.174 HD
ATOM     10  HH  ARG D 557     -29.445  -3.811 -17.603  1.00 35.49     0.174 HD
ATOM     11  HH  ARG D 557     -26.828  -3.134 -15.799  1.00 35.49     0.174 HD
ATOM     12  HH  ARG D 557     -27.640  -4.258 -16.335  1.00 35.49     0.174 HD
ATOM     13  HE  ARG D 557     -27.356  -1.112 -16.115  1.00 35.49     0.178 HD
ENDBRANCH   4   5
ENDBRANCH   3   4
ENDBRANCH   2   3
ENDBRANCH   1   2
END_RES ARG D 557
BEGIN_RES GLU D 570
REMARK  3 active torsions:
REMARK  status: ('A' for Active; 'I' for Inactive)
REMARK    5  A    between atoms: CA   and  CB  
REMARK    6  A    between atoms: CB   and  CG  
REMARK    7  A    between atoms: CG   and  CD  
ROOT
ATOM     14  CA  GLU D 570     -18.033  -6.348 -13.375  1.00 32.92     0.160 C 
ENDROOT
BRANCH  14  15
ATOM     15  CB  GLU D 570     -19.500  -6.345 -13.794  1.00 32.92     0.043 C 
BRANCH  15  16
ATOM     16  CG  GLU D 570     -20.102  -7.645 -14.187  1.00 32.92     0.100 C 
BRANCH  16  17
ATOM     17  CD  GLU D 570     -20.810  -7.588 -15.521  1.00 32.92     0.185 C 
ATOM     18  OE1 GLU D 570     -21.381  -6.533 -15.858  1.00 32.92    -0.647 OA
ATOM     19  OE2 GLU D 570     -20.808  -8.614 -16.228  1.00 32.92    -0.647 OA
ENDBRANCH  16  17
ENDBRANCH  15  16
ENDBRANCH  14  15
END_RES GLU D 570
ENDMDL
MODEL 7
REMARK VINA RESULT:      -6.1      2.198      3.064
REMARK WARNING: 32 MAX_TORS EXCEEDED!!!
REMARK  37 active torsions:
REMARK  status: ('A' for Active; 'I' for Inactive)
REMARK    1  A    between atoms: C_2  and  C_3 
REMARK    2  A    between atoms: C_3  and  C_4 
REMARK    3  A    between atoms: C_4  and  C_5 
REMARK    4  A    between atoms: C_5  and  C_6 
REMARK    5  A    between atoms: C_6  and  C_7 
REMARK    6  A    between atoms: C_7  and  C_8 
REMARK    7  A    between atoms: C_8  and  C_9 
REMARK    8  A    between atoms: C_9  and  C_10 
REMARK    9  A    between atoms: C_10  and  C_11 
REMARK   10  A    between atoms: C_11  and  C_12 
REMARK   11  A    between atoms: C_12  and  C_13 
REMARK   12  A    between atoms: C_13  and  C_14 
REMARK   13  A    between atoms: C_14  and  C_15 
REMARK   14  A    between atoms: C_15  and  C_16 
REMARK   15  A    between atoms: C_16  and  C_17 
REMARK   16  A    between atoms: C_17  and  C_18 
REMARK       I    between atoms: C_18  and  N_20 
REMARK   17  A    between atoms: N_20  and  C_21 
REMARK   18  A    between atoms: C_21  and  C_22 
REMARK   19  A    between atoms: C_22  and  C_23 
REMARK   20  A    between atoms: C_23  and  N_24 
REMARK   21  A    between atoms: C_29  and  C_30 
REMARK   22  A    between atoms: C_30  and  C_31 
REMARK   23  A    between atoms: C_31  and  C_32 
REMARK   24  A    between atoms: C_32  and  C_33 
REMARK   25  A    between atoms: C_33  and  C_34 
REMARK   26  A    between atoms: C_34  and  C_35 
REMARK   27  A    between atoms: C_35  and  C_36 
REMARK   28  A    between atoms: C_36  and  C_37 
REMARK   29  A    between atoms: C_37  and  C_38 
REMARK   30  A    between atoms: C_38  and  C_39 
REMARK   31  A    between atoms: C_39  and  C_40 
REMARK   32  A    between atoms: C_40  and  C_41 
REMARK   33  A    between atoms: C_41  and  C_42 
REMARK   34  A    between atoms: C_42  and  C_43 
REMARK   35  A    between atoms: C_43  and  C_44 
REMARK   36  A    between atoms: C_44  and  C_45 
REMARK   37  A    between atoms: C_45  and  O_47 
ROOT
HETATM    1  C   UNL     2     -20.776  -4.471  -6.406  1.00  0.00     0.000 C 
ENDROOT
BRANCH   1   2
HETATM    2  C   UNL     2     -20.199  -5.856  -6.630  1.00  0.00     0.000 C 
BRANCH   2   3
HETATM    3  C   UNL     2     -20.539  -6.729  -5.446  1.00  0.00     0.000 C 
BRANCH   3   4
HETATM    4  C   UNL     2     -21.394  -5.967  -4.452  1.00  0.00     0.000 C 
BRANCH   4   5
HETATM    5  C   UNL     2     -21.335  -6.735  -3.156  1.00  0.00     0.000 C 
BRANCH   5   6
HETATM    6  C   UNL     2     -22.213  -6.143  -2.078  1.00  0.00     0.000 C 
BRANCH   6   7
HETATM    7  C   UNL     2     -22.192  -7.151  -0.944  1.00  0.00     0.000 C 
BRANCH   7   8
HETATM    8  C   UNL     2     -21.117  -8.184  -1.146  1.00  0.00     0.000 C 
BRANCH   8   9
HETATM    9  C   UNL     2     -21.595  -9.513  -0.611  1.00  0.00    -0.000 C 
BRANCH   9  10
HETATM   10  C   UNL     2     -22.980  -9.380  -0.024  1.00  0.00    -0.005 C 
HETATM   11  C   UNL     2     -23.868 -10.607  -0.107  1.00  0.00     0.005 C 
ENDBRANCH   9  10
ENDBRANCH   8   9
ENDBRANCH   7   8
ENDBRANCH   6   7
ENDBRANCH   5   6
ENDBRANCH   4   5
ENDBRANCH   3   4
ENDBRANCH   2   3
ENDBRANCH   1   2
BRANCH   1  12
HETATM   12  C   UNL     2     -21.006  -3.804  -7.747  1.00  0.00     0.000 C 
BRANCH  12  13
HETATM   13  C   UNL     2     -20.920  -4.824  -8.868  1.00  0.00     0.000 C 
BRANCH  13  14
HETATM   14  C   UNL     2     -22.211  -4.812  -9.672  1.00  0.00     0.000 C 
BRANCH  14  15
HETATM   15  C   UNL     2     -22.547  -3.399 -10.129  1.00  0.00     0.001 C 
BRANCH  15  16
HETATM   16  C   UNL     2     -22.048  -3.166 -11.551  1.00  0.00     0.010 C 
BRANCH  16  17
HETATM   17  C   UNL     2     -23.149  -2.579 -12.425  1.00  0.00     0.110 C 
BRANCH  17  18
HETATM   18  C   UNL     2     -23.130  -3.195 -13.817  1.00  0.00     0.139 C 
HETATM   19  O   UNL     2     -24.046  -3.171 -14.611  1.00  0.00    -0.650 OA
BRANCH  18  20
HETATM   20  O   UNL     2     -21.931  -3.789 -14.067  1.00  0.00    -0.776 OA
HETATM   21  H   UNL     2     -21.160  -3.189 -14.007  1.00  0.00     0.167 HD
ENDBRANCH  18  20
ENDBRANCH  17  18
ENDBRANCH  16  17
ENDBRANCH  15  16
ENDBRANCH  14  15
ENDBRANCH  13  14
ENDBRANCH  12  13
ENDBRANCH   1  12
TORSDOF 37
BEGIN_RES ARG D 557
REMARK  4 active torsions:
REMARK  status: ('A' for Active; 'I' for Inactive)
REMARK    1  A    between atoms: CA   and  CB  
REMARK    2  A    between atoms: CB   and  CG  
REMARK    3  A    between atoms: CG   and  CD  
REMARK    4  A    between atoms: CD   and  NE  
REMARK       I    between atoms: NE   and  CZ  
REMARK       I    between atoms: CZ   and  NH1 
REMARK       I    between atoms: CZ   and  NH2 
ROOT
ATOM      1  CA  ARG D 557     -26.217   2.705 -17.014  1.00 35.49     0.159 C 
ENDROOT
BRANCH   1   2
ATOM      2  CB  ARG D 557     -26.789   1.319 -17.183  1.00 35.49     0.034 C 
BRANCH   2   3
ATOM      3  CG  ARG D 557     -28.232   1.226 -17.437  1.00 35.49     0.027 C 
BRANCH   3   4
ATOM      4  CD  ARG D 557     -28.914   0.313 -16.492  1.00 35.49     0.116 C 
BRANCH   4   5
ATOM      5  NE  ARG D 557     -29.347  -0.903 -17.130  1.00 35.49    -0.212 N 
ATOM      6  CZ  ARG D 557     -28.744  -2.068 -17.052  1.00 35.49     0.666 C 
ATOM      7  NH1 ARG D 557     -27.630  -2.245 -16.367  1.00 35.49    -0.235 N 
ATOM      8  NH2 ARG D 557     -29.291  -3.069 -17.678  1.00 35.49    -0.235 N 
ATOM      9  HH  ARG D 557     -27.254  -1.601 -15.945  1.00 35.49     0.174 HD
ATOM     10  HH  ARG D 557     -27.283  -3.029 -16.350  1.00 35.49     0.174 HD
ATOM     11  HH  ARG D 557     -30.014  -2.927 -18.106  1.00 35.49     0.174 HD
ATOM     12  HH  ARG D 557     -28.933  -3.837 -17.648  1.00 35.49     0.174 HD
ATOM     13  HE  ARG D 557     -30.018  -0.863 -17.651  1.00 35.49     0.178 HD
ENDBRANCH   4   5
ENDBRANCH   3   4
ENDBRANCH   2   3
ENDBRANCH   1   2
END_RES ARG D 557
BEGIN_RES GLU D 570
REMARK  3 active torsions:
REMARK  status: ('A' for Active; 'I' for Inactive)
REMARK    5  A    between atoms: CA   and  CB  
REMARK    6  A    between atoms: CB   and  CG  
REMARK    7  A    between atoms: CG   and  CD  
ROOT
ATOM     14  CA  GLU D 570     -18.033  -6.348 -13.375  1.00 32.92     0.160 C 
ENDROOT
BRANCH  14  15
ATOM     15  CB  GLU D 570     -19.500  -6.345 -13.794  1.00 32.92     0.043 C 
BRANCH  15  16
ATOM     16  CG  GLU D 570     -19.796  -6.339 -15.250  1.00 32.92     0.100 C 
BRANCH  16  17
ATOM     17  CD  GLU D 570     -21.087  -7.046 -15.592  1.00 32.92     0.185 C 
ATOM     18  OE1 GLU D 570     -21.071  -8.277 -15.781  1.00 32.92    -0.647 OA
ATOM     19  OE2 GLU D 570     -22.122  -6.358 -15.688  1.00 32.92    -0.647 OA
ENDBRANCH  16  17
ENDBRANCH  15  16
ENDBRANCH  14  15
END_RES GLU D 570
ENDMDL
MODEL 8
REMARK VINA RESULT:      -6.0      5.075      9.034
REMARK WARNING: 32 MAX_TORS EXCEEDED!!!
REMARK  37 active torsions:
REMARK  status: ('A' for Active; 'I' for Inactive)
REMARK    1  A    between atoms: C_2  and  C_3 
REMARK    2  A    between atoms: C_3  and  C_4 
REMARK    3  A    between atoms: C_4  and  C_5 
REMARK    4  A    between atoms: C_5  and  C_6 
REMARK    5  A    between atoms: C_6  and  C_7 
REMARK    6  A    between atoms: C_7  and  C_8 
REMARK    7  A    between atoms: C_8  and  C_9 
REMARK    8  A    between atoms: C_9  and  C_10 
REMARK    9  A    between atoms: C_10  and  C_11 
REMARK   10  A    between atoms: C_11  and  C_12 
REMARK   11  A    between atoms: C_12  and  C_13 
REMARK   12  A    between atoms: C_13  and  C_14 
REMARK   13  A    between atoms: C_14  and  C_15 
REMARK   14  A    between atoms: C_15  and  C_16 
REMARK   15  A    between atoms: C_16  and  C_17 
REMARK   16  A    between atoms: C_17  and  C_18 
REMARK       I    between atoms: C_18  and  N_20 
REMARK   17  A    between atoms: N_20  and  C_21 
REMARK   18  A    between atoms: C_21  and  C_22 
REMARK   19  A    between atoms: C_22  and  C_23 
REMARK   20  A    between atoms: C_23  and  N_24 
REMARK   21  A    between atoms: C_29  and  C_30 
REMARK   22  A    between atoms: C_30  and  C_31 
REMARK   23  A    between atoms: C_31  and  C_32 
REMARK   24  A    between atoms: C_32  and  C_33 
REMARK   25  A    between atoms: C_33  and  C_34 
REMARK   26  A    between atoms: C_34  and  C_35 
REMARK   27  A    between atoms: C_35  and  C_36 
REMARK   28  A    between atoms: C_36  and  C_37 
REMARK   29  A    between atoms: C_37  and  C_38 
REMARK   30  A    between atoms: C_38  and  C_39 
REMARK   31  A    between atoms: C_39  and  C_40 
REMARK   32  A    between atoms: C_40  and  C_41 
REMARK   33  A    between atoms: C_41  and  C_42 
REMARK   34  A    between atoms: C_42  and  C_43 
REMARK   35  A    between atoms: C_43  and  C_44 
REMARK   36  A    between atoms: C_44  and  C_45 
REMARK   37  A    between atoms: C_45  and  O_47 
ROOT
HETATM    1  C   UNL     2     -24.236  -6.671 -15.139  1.00  0.00     0.000 C 
ENDROOT
BRANCH   1   2
HETATM    2  C   UNL     2     -23.513  -5.919 -14.038  1.00  0.00     0.000 C 
BRANCH   2   3
HETATM    3  C   UNL     2     -23.564  -4.440 -14.334  1.00  0.00     0.000 C 
BRANCH   3   4
HETATM    4  C   UNL     2     -22.634  -3.680 -13.407  1.00  0.00     0.000 C 
BRANCH   4   5
HETATM    5  C   UNL     2     -23.422  -3.383 -12.156  1.00  0.00     0.000 C 
BRANCH   5   6
HETATM    6  C   UNL     2     -22.574  -3.404 -10.906  1.00  0.00     0.000 C 
BRANCH   6   7
HETATM    7  C   UNL     2     -21.137  -3.405 -11.395  1.00  0.00     0.000 C 
BRANCH   7   8
HETATM    8  C   UNL     2     -20.291  -4.374 -10.617  1.00  0.00     0.000 C 
BRANCH   8   9
HETATM    9  C   UNL     2     -20.954  -4.661  -9.289  1.00  0.00    -0.000 C 
BRANCH   9  10
HETATM   10  C   UNL     2     -20.196  -3.996  -8.165  1.00  0.00    -0.005 C 
HETATM   11  C   UNL     2     -20.883  -3.968  -6.814  1.00  0.00     0.005 C 
ENDBRANCH   9  10
ENDBRANCH   8   9
ENDBRANCH   7   8
ENDBRANCH   6   7
ENDBRANCH   5   6
ENDBRANCH   4   5
ENDBRANCH   3   4
ENDBRANCH   2   3
ENDBRANCH   1   2
BRANCH   1  12
HETATM   12  C   UNL     2     -25.510  -5.933 -15.495  1.00  0.00     0.000 C 
BRANCH  12  13
HETATM   13  C   UNL     2     -26.551  -6.900 -16.028  1.00  0.00     0.000 C 
BRANCH  13  14
HETATM   14  C   UNL     2     -27.555  -6.150 -16.889  1.00  0.00     0.000 C 
BRANCH  14  15
HETATM   15  C   UNL     2     -28.977  -6.421 -16.418  1.00  0.00     0.001 C 
BRANCH  15  16
HETATM   16  C   UNL     2     -29.984  -5.797 -17.377  1.00  0.00     0.010 C 
BRANCH  16  17
HETATM   17  C   UNL     2     -30.918  -4.844 -16.640  1.00  0.00     0.110 C 
BRANCH  17  18
HETATM   18  C   UNL     2     -31.274  -3.646 -17.511  1.00  0.00     0.139 C 
HETATM   19  O   UNL     2     -32.381  -3.167 -17.630  1.00  0.00    -0.650 OA
BRANCH  18  20
HETATM   20  O   UNL     2     -30.172  -3.168 -18.151  1.00  0.00    -0.776 OA
HETATM   21  H   UNL     2     -29.807  -3.768 -18.833  1.00  0.00     0.167 HD
ENDBRANCH  18  20
ENDBRANCH  17  18
ENDBRANCH  16  17
ENDBRANCH  15  16
ENDBRANCH  14  15
ENDBRANCH  13  14
ENDBRANCH  12  13
ENDBRANCH   1  12
TORSDOF 37
BEGIN_RES ARG D 557
REMARK  4 active torsions:
REMARK  status: ('A' for Active; 'I' for Inactive)
REMARK    1  A    between atoms: CA   and  CB  
REMARK    2  A    between atoms: CB   and  CG  
REMARK    3  A    between atoms: CG   and  CD  
REMARK    4  A    between atoms: CD   and  NE  
REMARK       I    between atoms: NE   and  CZ  
REMARK       I    between atoms: CZ   and  NH1 
REMARK       I    between atoms: CZ   and  NH2 
ROOT
ATOM      1  CA  ARG D 557     -26.217   2.705 -17.014  1.00 35.49     0.159 C 
ENDROOT
BRANCH   1   2
ATOM      2  CB  ARG D 557     -26.789   1.319 -17.183  1.00 35.49     0.034 C 
BRANCH   2   3
ATOM      3  CG  ARG D 557     -28.240   1.177 -17.008  1.00 35.49     0.027 C 
BRANCH   3   4
ATOM      4  CD  ARG D 557     -28.620  -0.169 -16.523  1.00 35.49     0.116 C 
BRANCH   4   5
ATOM      5  NE  ARG D 557     -27.567  -0.791 -15.766  1.00 35.49    -0.212 N 
ATOM      6  CZ  ARG D 557     -27.201  -2.051 -15.849  1.00 35.49     0.666 C 
ATOM      7  NH1 ARG D 557     -27.795  -2.910 -16.656  1.00 35.49    -0.235 N 
ATOM      8  NH2 ARG D 557     -26.209  -2.439 -15.101  1.00 35.49    -0.235 N 
ATOM      9  HH  ARG D 557     -28.449  -2.676 -17.159  1.00 35.49     0.174 HD
ATOM     10  HH  ARG D 557     -27.512  -3.718 -16.670  1.00 35.49     0.174 HD
ATOM     11  HH  ARG D 557     -25.840  -1.860 -14.594  1.00 35.49     0.174 HD
ATOM     12  HH  ARG D 557     -25.942  -3.243 -15.130  1.00 35.49     0.174 HD
ATOM     13  HE  ARG D 557     -27.178  -0.328 -15.168  1.00 35.49     0.178 HD
ENDBRANCH   4   5
ENDBRANCH   3   4
ENDBRANCH   2   3
ENDBRANCH   1   2
END_RES ARG D 557
BEGIN_RES GLU D 570
REMARK  3 active torsions:
REMARK  status: ('A' for Active; 'I' for Inactive)
REMARK    5  A    between atoms: CA   and  CB  
REMARK    6  A    between atoms: CB   and  CG  
REMARK    7  A    between atoms: CG   and  CD  
ROOT
ATOM     14  CA  GLU D 570     -18.033  -6.348 -13.375  1.00 32.92     0.160 C 
ENDROOT
BRANCH  14  15
ATOM     15  CB  GLU D 570     -19.500  -6.345 -13.794  1.00 32.92     0.043 C 
BRANCH  15  16
ATOM     16  CG  GLU D 570     -20.083  -7.632 -14.255  1.00 32.92     0.100 C 
BRANCH  16  17
ATOM     17  CD  GLU D 570     -20.577  -7.578 -15.681  1.00 32.92     0.185 C 
ATOM     18  OE1 GLU D 570     -20.893  -8.639 -16.253  1.00 32.92    -0.647 OA
ATOM     19  OE2 GLU D 570     -20.633  -6.464 -16.239  1.00 32.92    -0.647 OA
ENDBRANCH  16  17
ENDBRANCH  15  16
ENDBRANCH  14  15
END_RES GLU D 570
ENDMDL
MODEL 9
REMARK VINA RESULT:      -6.0      4.721      8.152
REMARK WARNING: 32 MAX_TORS EXCEEDED!!!
REMARK  37 active torsions:
REMARK  status: ('A' for Active; 'I' for Inactive)
REMARK    1  A    between atoms: C_2  and  C_3 
REMARK    2  A    between atoms: C_3  and  C_4 
REMARK    3  A    between atoms: C_4  and  C_5 
REMARK    4  A    between atoms: C_5  and  C_6 
REMARK    5  A    between atoms: C_6  and  C_7 
REMARK    6  A    between atoms: C_7  and  C_8 
REMARK    7  A    between atoms: C_8  and  C_9 
REMARK    8  A    between atoms: C_9  and  C_10 
REMARK    9  A    between atoms: C_10  and  C_11 
REMARK   10  A    between atoms: C_11  and  C_12 
REMARK   11  A    between atoms: C_12  and  C_13 
REMARK   12  A    between atoms: C_13  and  C_14 
REMARK   13  A    between atoms: C_14  and  C_15 
REMARK   14  A    between atoms: C_15  and  C_16 
REMARK   15  A    between atoms: C_16  and  C_17 
REMARK   16  A    between atoms: C_17  and  C_18 
REMARK       I    between atoms: C_18  and  N_20 
REMARK   17  A    between atoms: N_20  and  C_21 
REMARK   18  A    between atoms: C_21  and  C_22 
REMARK   19  A    between atoms: C_22  and  C_23 
REMARK   20  A    between atoms: C_23  and  N_24 
REMARK   21  A    between atoms: C_29  and  C_30 
REMARK   22  A    between atoms: C_30  and  C_31 
REMARK   23  A    between atoms: C_31  and  C_32 
REMARK   24  A    between atoms: C_32  and  C_33 
REMARK   25  A    between atoms: C_33  and  C_34 
REMARK   26  A    between atoms: C_34  and  C_35 
REMARK   27  A    between atoms: C_35  and  C_36 
REMARK   28  A    between atoms: C_36  and  C_37 
REMARK   29  A    between atoms: C_37  and  C_38 
REMARK   30  A    between atoms: C_38  and  C_39 
REMARK   31  A    between atoms: C_39  and  C_40 
REMARK   32  A    between atoms: C_40  and  C_41 
REMARK   33  A    between atoms: C_41  and  C_42 
REMARK   34  A    between atoms: C_42  and  C_43 
REMARK   35  A    between atoms: C_43  and  C_44 
REMARK   36  A    between atoms: C_44  and  C_45 
REMARK   37  A    between atoms: C_45  and  O_47 
ROOT
HETATM    1  C   UNL     2     -23.214  -4.838 -13.569  1.00  0.00     0.000 C 
ENDROOT
BRANCH   1   2
HETATM    2  C   UNL     2     -24.327  -3.843 -13.833  1.00  0.00     0.000 C 
BRANCH   2   3
HETATM    3  C   UNL     2     -24.455  -2.918 -12.648  1.00  0.00     0.000 C 
BRANCH   3   4
HETATM    4  C   UNL     2     -23.254  -3.059 -11.732  1.00  0.00     0.000 C 
BRANCH   4   5
HETATM    5  C   UNL     2     -23.794  -3.387 -10.362  1.00  0.00     0.000 C 
BRANCH   5   6
HETATM    6  C   UNL     2     -22.810  -4.150  -9.507  1.00  0.00     0.000 C 
BRANCH   6   7
HETATM    7  C   UNL     2     -21.568  -4.306 -10.367  1.00  0.00     0.000 C 
BRANCH   7   8
HETATM    8  C   UNL     2     -20.324  -4.387  -9.528  1.00  0.00     0.000 C 
BRANCH   8   9
HETATM    9  C   UNL     2     -20.661  -5.007  -8.192  1.00  0.00    -0.000 C 
BRANCH   9  10
HETATM   10  C   UNL     2     -19.631  -4.625  -7.156  1.00  0.00    -0.005 C 
HETATM   11  C   UNL     2     -20.059  -4.742  -5.706  1.00  0.00     0.005 C 
ENDBRANCH   9  10
ENDBRANCH   8   9
ENDBRANCH   7   8
ENDBRANCH   6   7
ENDBRANCH   5   6
ENDBRANCH   4   5
ENDBRANCH   3   4
ENDBRANCH   2   3
ENDBRANCH   1   2
BRANCH   1  12
HETATM   12  C   UNL     2     -23.637  -6.205 -14.068  1.00  0.00     0.000 C 
BRANCH  12  13
HETATM   13  C   UNL     2     -24.066  -6.128 -15.522  1.00  0.00     0.000 C 
BRANCH  13  14
HETATM   14  C   UNL     2     -25.265  -7.035 -15.751  1.00  0.00     0.000 C 
BRANCH  14  15
HETATM   15  C   UNL     2     -26.533  -6.214 -15.934  1.00  0.00     0.001 C 
BRANCH  15  16
HETATM   16  C   UNL     2     -27.766  -7.103 -15.813  1.00  0.00     0.010 C 
BRANCH  16  17
HETATM   17  C   UNL     2     -28.976  -6.446 -16.466  1.00  0.00     0.110 C 
BRANCH  17  18
HETATM   18  C   UNL     2     -28.730  -6.196 -17.948  1.00  0.00     0.139 C 
HETATM   19  O   UNL     2     -28.659  -5.107 -18.476  1.00  0.00    -0.650 OA
BRANCH  18  20
HETATM   20  O   UNL     2     -28.597  -7.372 -18.621  1.00  0.00    -0.776 OA
HETATM   21  H   UNL     2     -27.798  -7.887 -18.386  1.00  0.00     0.167 HD
ENDBRANCH  18  20
ENDBRANCH  17  18
ENDBRANCH  16  17
ENDBRANCH  15  16
ENDBRANCH  14  15
ENDBRANCH  13  14
ENDBRANCH  12  13
ENDBRANCH   1  12
TORSDOF 37
BEGIN_RES ARG D 557
REMARK  4 active torsions:
REMARK  status: ('A' for Active; 'I' for Inactive)
REMARK    1  A    between atoms: CA   and  CB  
REMARK    2  A    between atoms: CB   and  CG  
REMARK    3  A    between atoms: CG   and  CD  
REMARK    4  A    between atoms: CD   and  NE  
REMARK       I    between atoms: NE   and  CZ  
REMARK       I    between atoms: CZ   and  NH1 
REMARK       I    between atoms: CZ   and  NH2 
ROOT
ATOM      1  CA  ARG D 557     -26.217   2.705 -17.014  1.00 35.49     0.159 C 
ENDROOT
BRANCH   1   2
ATOM      2  CB  ARG D 557     -26.789   1.319 -17.183  1.00 35.49     0.034 C 
BRANCH   2   3
ATOM      3  CG  ARG D 557     -28.226   1.228 -17.468  1.00 35.49     0.027 C 
BRANCH   3   4
ATOM      4  CD  ARG D 557     -28.931   0.324 -16.530  1.00 35.49     0.116 C 
BRANCH   4   5
ATOM      5  NE  ARG D 557     -28.183  -0.877 -16.269  1.00 35.49    -0.212 N 
ATOM      6  CZ  ARG D 557     -28.455  -2.071 -16.748  1.00 35.49     0.666 C 
ATOM      7  NH1 ARG D 557     -29.490  -2.300 -17.535  1.00 35.49    -0.235 N 
ATOM      8  NH2 ARG D 557     -27.655  -3.044 -16.423  1.00 35.49    -0.235 N 
ATOM      9  HH  ARG D 557     -30.028  -1.674 -17.763  1.00 35.49     0.174 HD
ATOM     10  HH  ARG D 557     -29.616  -3.099 -17.819  1.00 35.49     0.174 HD
ATOM     11  HH  ARG D 557     -26.991  -2.865 -15.919  1.00 35.49     0.174 HD
ATOM     12  HH  ARG D 557     -27.796  -3.828 -16.715  1.00 35.49     0.174 HD
ATOM     13  HE  ARG D 557     -27.541  -0.835 -15.713  1.00 35.49     0.178 HD
ENDBRANCH   4   5
ENDBRANCH   3   4
ENDBRANCH   2   3
ENDBRANCH   1   2
END_RES ARG D 557
BEGIN_RES GLU D 570
REMARK  3 active torsions:
REMARK  status: ('A' for Active; 'I' for Inactive)
REMARK    5  A    between atoms: CA   and  CB  
REMARK    6  A    between atoms: CB   and  CG  
REMARK    7  A    between atoms: CG   and  CD  
ROOT
ATOM     14  CA  GLU D 570     -18.033  -6.348 -13.375  1.00 32.92     0.160 C 
ENDROOT
BRANCH  14  15
ATOM     15  CB  GLU D 570     -19.500  -6.345 -13.794  1.00 32.92     0.043 C 
BRANCH  15  16
ATOM     16  CG  GLU D 570     -19.799  -6.179 -15.240  1.00 32.92     0.100 C 
BRANCH  16  17
ATOM     17  CD  GLU D 570     -20.570  -7.342 -15.819  1.00 32.92     0.185 C 
ATOM     18  OE1 GLU D 570     -20.595  -8.422 -15.198  1.00 32.92    -0.647 OA
ATOM     19  OE2 GLU D 570     -21.141  -7.177 -16.915  1.00 32.92    -0.647 OA
ENDBRANCH  16  17
ENDBRANCH  15  16
ENDBRANCH  14  15
END_RES GLU D 570
ENDMDL
