MODEL 1
REMARK VINA RESULT:      -9.7      0.000      0.000
REMARK  4 active torsions:
REMARK  status: ('A' for Active; 'I' for Inactive)
REMARK    1  A    between atoms: C_9  and  O_25 
REMARK    2  A    between atoms: C_10  and  N_11 
REMARK    3  A    between atoms: N_13  and  C_15 
REMARK    4  A    between atoms: C_18  and  N_21 
ROOT
HETATM    1  N   UNL     1     -20.777  -6.957  -5.905  1.00  0.00    -0.297 N 
ATOM      2  HN  UNL     1     -21.608  -7.254  -6.418  1.00  0.00     0.187 HD
HETATM    3  N   UNL     1     -20.138  -5.919  -6.173  1.00  0.00    -0.299 N 
ATOM      4  HN  UNL     1     -19.331  -5.601  -5.636  1.00  0.00     0.187 HD
ENDROOT
BRANCH   1   5
HETATM    5  C   UNL     1     -20.229  -7.682  -4.815  1.00  0.00     0.092 A 
HETATM    6  C   UNL     1     -20.789  -7.496  -3.518  1.00  0.00     0.005 A 
HETATM    7  C   UNL     1     -21.799  -6.543  -3.245  1.00  0.00     0.014 A 
HETATM    8  C   UNL     1     -20.338  -8.297  -2.438  1.00  0.00    -0.024 A 
HETATM    9  C   UNL     1     -22.350  -6.398  -1.968  1.00  0.00     0.001 A 
HETATM   10  C   UNL     1     -21.905  -7.205  -0.928  1.00  0.00     0.001 A 
HETATM   11  C   UNL     1     -20.904  -8.146  -1.162  1.00  0.00     0.012 A 
HETATM   12  C   UNL     1     -19.335  -9.252  -2.651  1.00  0.00     0.015 A 
HETATM   13  C   UNL     1     -18.777  -9.432  -3.914  1.00  0.00     0.040 A 
HETATM   14  C   UNL     1     -19.229  -8.665  -4.985  1.00  0.00     0.094 A 
BRANCH  14  15
HETATM   15  O   UNL     1     -18.706  -8.908  -6.230  1.00  0.00    -0.358 OA
HETATM   16  H   UNL     1     -18.857  -8.135  -6.797  1.00  0.00     0.217 HD
ENDBRANCH  14  15
ENDBRANCH   1   5
BRANCH   3  17
HETATM   17  C   UNL     1     -20.650  -5.226  -7.300  1.00  0.00     0.070 A 
HETATM   18  C   UNL     1     -22.027  -4.926  -7.360  1.00  0.00     0.064 A 
HETATM   19  C   UNL     1     -22.586  -4.267  -8.463  1.00  0.00     0.062 A 
HETATM   20 CL   UNL     1     -23.095  -5.360  -6.067  1.00  0.00    -0.082 Cl
HETATM   21  C   UNL     1     -21.762  -3.886  -9.527  1.00  0.00     0.104 A 
HETATM   22  C   UNL     1     -20.388  -4.140  -9.484  1.00  0.00     0.038 A 
HETATM   23  C   UNL     1     -19.845  -4.798  -8.374  1.00  0.00     0.035 A 
BRANCH  21  24
HETATM   24  N   UNL     1     -22.342  -3.212 -10.695  1.00  0.00    -0.116 N 
HETATM   25  O   UNL     1     -23.571  -3.265 -10.837  1.00  0.00    -0.532 OA
HETATM   26  O   UNL     1     -21.567  -2.634 -11.470  1.00  0.00    -0.532 OA
ENDBRANCH  21  24
ENDBRANCH   3  17
TORSDOF 4
BEGIN_RES ARG D 557
REMARK  4 active torsions:
REMARK  status: ('A' for Active; 'I' for Inactive)
REMARK    1  A    between atoms: CA   and  CB  
REMARK    2  A    between atoms: CB   and  CG  
REMARK    3  A    between atoms: CG   and  CD  
REMARK    4  A    between atoms: CD   and  NE  
REMARK       I    between atoms: NE   and  CZ  
REMARK       I    between atoms: CZ   and  NH1 
REMARK       I    between atoms: CZ   and  NH2 
ROOT
ATOM      1  CA  ARG D 557     -26.217   2.705 -17.014  1.00 35.49     0.159 C 
ENDROOT
BRANCH   1   2
ATOM      2  CB  ARG D 557     -26.789   1.319 -17.183  1.00 35.49     0.034 C 
BRANCH   2   3
ATOM      3  CG  ARG D 557     -25.865   0.195 -16.988  1.00 35.49     0.027 C 
BRANCH   3   4
ATOM      4  CD  ARG D 557     -26.268  -0.676 -15.860  1.00 35.49     0.116 C 
BRANCH   4   5
ATOM      5  NE  ARG D 557     -25.179  -0.927 -14.953  1.00 35.49    -0.212 N 
ATOM      6  CZ  ARG D 557     -24.906  -2.078 -14.380  1.00 35.49     0.666 C 
ATOM      7  NH1 ARG D 557     -25.639  -3.159 -14.574  1.00 35.49    -0.235 N 
ATOM      8  NH2 ARG D 557     -23.864  -2.129 -13.602  1.00 35.49    -0.235 N 
ATOM      9  HH  ARG D 557     -26.327  -3.148 -15.084  1.00 35.49     0.174 HD
ATOM     10  HH  ARG D 557     -25.411  -3.882 -14.176  1.00 35.49     0.174 HD
ATOM     11  HH  ARG D 557     -23.405  -1.417 -13.501  1.00 35.49     0.174 HD
ATOM     12  HH  ARG D 557     -23.654  -2.855 -13.217  1.00 35.49     0.174 HD
ATOM     13  HE  ARG D 557     -24.697  -0.268 -14.715  1.00 35.49     0.178 HD
ENDBRANCH   4   5
ENDBRANCH   3   4
ENDBRANCH   2   3
ENDBRANCH   1   2
END_RES ARG D 557
BEGIN_RES GLU D 570
REMARK  3 active torsions:
REMARK  status: ('A' for Active; 'I' for Inactive)
REMARK    5  A    between atoms: CA   and  CB  
REMARK    6  A    between atoms: CB   and  CG  
REMARK    7  A    between atoms: CG   and  CD  
ROOT
ATOM     14  CA  GLU D 570     -18.033  -6.348 -13.375  1.00 32.92     0.160 C 
ENDROOT
BRANCH  14  15
ATOM     15  CB  GLU D 570     -19.500  -6.345 -13.794  1.00 32.92     0.043 C 
BRANCH  15  16
ATOM     16  CG  GLU D 570     -20.428  -5.471 -13.031  1.00 32.92     0.100 C 
BRANCH  16  17
ATOM     17  CD  GLU D 570     -21.685  -5.134 -13.798  1.00 32.92     0.185 C 
ATOM     18  OE1 GLU D 570     -22.789  -5.243 -13.230  1.00 32.92    -0.647 OA
ATOM     19  OE2 GLU D 570     -21.566  -4.772 -14.986  1.00 32.92    -0.647 OA
ENDBRANCH  16  17
ENDBRANCH  15  16
ENDBRANCH  14  15
END_RES GLU D 570
ENDMDL
MODEL 2
REMARK VINA RESULT:      -9.7      1.474      2.629
REMARK  4 active torsions:
REMARK  status: ('A' for Active; 'I' for Inactive)
REMARK    1  A    between atoms: C_9  and  O_25 
REMARK    2  A    between atoms: C_10  and  N_11 
REMARK    3  A    between atoms: N_13  and  C_15 
REMARK    4  A    between atoms: C_18  and  N_21 
ROOT
HETATM    1  N   UNL     1     -21.675  -6.677  -5.227  1.00  0.00    -0.297 N 
ATOM      2  HN  UNL     1     -22.271  -7.172  -5.891  1.00  0.00     0.187 HD
HETATM    3  N   UNL     1     -21.266  -5.511  -5.405  1.00  0.00    -0.299 N 
ATOM      4  HN  UNL     1     -20.703  -5.002  -4.724  1.00  0.00     0.187 HD
ENDROOT
BRANCH   1   5
HETATM    5  C   UNL     1     -21.225  -7.243  -4.006  1.00  0.00     0.092 A 
HETATM    6  C   UNL     1     -20.142  -8.168  -4.038  1.00  0.00     0.005 A 
HETATM    7  C   UNL     1     -19.560  -8.632  -5.242  1.00  0.00     0.014 A 
HETATM    8  C   UNL     1     -19.599  -8.654  -2.820  1.00  0.00    -0.024 A 
HETATM    9  C   UNL     1     -18.481  -9.521  -5.244  1.00  0.00     0.001 A 
HETATM   10  C   UNL     1     -17.954  -9.971  -4.040  1.00  0.00     0.001 A 
HETATM   11  C   UNL     1     -18.511  -9.542  -2.837  1.00  0.00     0.012 A 
HETATM   12  C   UNL     1     -20.142  -8.234  -1.599  1.00  0.00     0.015 A 
HETATM   13  C   UNL     1     -21.206  -7.336  -1.562  1.00  0.00     0.040 A 
HETATM   14  C   UNL     1     -21.732  -6.838  -2.751  1.00  0.00     0.094 A 
BRANCH  14  15
HETATM   15  O   UNL     1     -22.738  -5.908  -2.683  1.00  0.00    -0.358 OA
HETATM   16  H   UNL     1     -22.593  -5.336  -1.913  1.00  0.00     0.217 HD
ENDBRANCH  14  15
ENDBRANCH   1   5
BRANCH   3  17
HETATM   17  C   UNL     1     -21.666  -4.966  -6.652  1.00  0.00     0.070 A 
HETATM   18  C   UNL     1     -20.682  -4.610  -7.598  1.00  0.00     0.064 A 
HETATM   19  C   UNL     1     -21.022  -4.043  -8.834  1.00  0.00     0.062 A 
HETATM   20 CL   UNL     1     -18.997  -4.857  -7.274  1.00  0.00    -0.082 Cl
HETATM   21  C   UNL     1     -22.370  -3.836  -9.147  1.00  0.00     0.104 A 
HETATM   22  C   UNL     1     -23.371  -4.207  -8.244  1.00  0.00     0.038 A 
HETATM   23  C   UNL     1     -23.013  -4.773  -7.015  1.00  0.00     0.035 A 
BRANCH  21  24
HETATM   24  N   UNL     1     -22.736  -3.226 -10.431  1.00  0.00    -0.116 N 
HETATM   25  O   UNL     1     -21.819  -2.810 -11.150  1.00  0.00    -0.532 OA
HETATM   26  O   UNL     1     -23.940  -3.162 -10.714  1.00  0.00    -0.532 OA
ENDBRANCH  21  24
ENDBRANCH   3  17
TORSDOF 4
BEGIN_RES ARG D 557
REMARK  4 active torsions:
REMARK  status: ('A' for Active; 'I' for Inactive)
REMARK    1  A    between atoms: CA   and  CB  
REMARK    2  A    between atoms: CB   and  CG  
REMARK    3  A    between atoms: CG   and  CD  
REMARK    4  A    between atoms: CD   and  NE  
REMARK       I    between atoms: NE   and  CZ  
REMARK       I    between atoms: CZ   and  NH1 
REMARK       I    between atoms: CZ   and  NH2 
ROOT
ATOM      1  CA  ARG D 557     -26.217   2.705 -17.014  1.00 35.49     0.159 C 
ENDROOT
BRANCH   1   2
ATOM      2  CB  ARG D 557     -26.789   1.319 -17.183  1.00 35.49     0.034 C 
BRANCH   2   3
ATOM      3  CG  ARG D 557     -25.867   0.195 -16.983  1.00 35.49     0.027 C 
BRANCH   3   4
ATOM      4  CD  ARG D 557     -26.269  -0.671 -15.851  1.00 35.49     0.116 C 
BRANCH   4   5
ATOM      5  NE  ARG D 557     -25.183  -0.909 -14.937  1.00 35.49    -0.212 N 
ATOM      6  CZ  ARG D 557     -24.893  -2.058 -14.371  1.00 35.49     0.666 C 
ATOM      7  NH1 ARG D 557     -25.605  -3.151 -14.579  1.00 35.49    -0.235 N 
ATOM      8  NH2 ARG D 557     -23.857  -2.096 -13.584  1.00 35.49    -0.235 N 
ATOM      9  HH  ARG D 557     -26.290  -3.149 -15.094  1.00 35.49     0.174 HD
ATOM     10  HH  ARG D 557     -25.367  -3.873 -14.184  1.00 35.49     0.174 HD
ATOM     11  HH  ARG D 557     -23.412  -1.377 -13.474  1.00 35.49     0.174 HD
ATOM     12  HH  ARG D 557     -23.637  -2.821 -13.203  1.00 35.49     0.174 HD
ATOM     13  HE  ARG D 557     -24.715  -0.242 -14.690  1.00 35.49     0.178 HD
ENDBRANCH   4   5
ENDBRANCH   3   4
ENDBRANCH   2   3
ENDBRANCH   1   2
END_RES ARG D 557
BEGIN_RES GLU D 570
REMARK  3 active torsions:
REMARK  status: ('A' for Active; 'I' for Inactive)
REMARK    5  A    between atoms: CA   and  CB  
REMARK    6  A    between atoms: CB   and  CG  
REMARK    7  A    between atoms: CG   and  CD  
ROOT
ATOM     14  CA  GLU D 570     -18.033  -6.348 -13.375  1.00 32.92     0.160 C 
ENDROOT
BRANCH  14  15
ATOM     15  CB  GLU D 570     -19.500  -6.345 -13.794  1.00 32.92     0.043 C 
BRANCH  15  16
ATOM     16  CG  GLU D 570     -20.432  -5.488 -13.017  1.00 32.92     0.100 C 
BRANCH  16  17
ATOM     17  CD  GLU D 570     -21.688  -5.140 -13.781  1.00 32.92     0.185 C 
ATOM     18  OE1 GLU D 570     -22.783  -5.155 -13.185  1.00 32.92    -0.647 OA
ATOM     19  OE2 GLU D 570     -21.579  -4.866 -14.992  1.00 32.92    -0.647 OA
ENDBRANCH  16  17
ENDBRANCH  15  16
ENDBRANCH  14  15
END_RES GLU D 570
ENDMDL
MODEL 3
REMARK VINA RESULT:      -9.2      1.518      1.918
REMARK  4 active torsions:
REMARK  status: ('A' for Active; 'I' for Inactive)
REMARK    1  A    between atoms: C_9  and  O_25 
REMARK    2  A    between atoms: C_10  and  N_11 
REMARK    3  A    between atoms: N_13  and  C_15 
REMARK    4  A    between atoms: C_18  and  N_21 
ROOT
HETATM    1  N   UNL     1     -20.761  -6.981  -5.946  1.00  0.00    -0.297 N 
ATOM      2  HN  UNL     1     -21.574  -7.295  -6.474  1.00  0.00     0.187 HD
HETATM    3  N   UNL     1     -20.137  -5.930  -6.203  1.00  0.00    -0.299 N 
ATOM      4  HN  UNL     1     -19.348  -5.595  -5.650  1.00  0.00     0.187 HD
ENDROOT
BRANCH   1   5
HETATM    5  C   UNL     1     -20.221  -7.691  -4.842  1.00  0.00     0.092 A 
HETATM    6  C   UNL     1     -20.789  -7.487  -3.552  1.00  0.00     0.005 A 
HETATM    7  C   UNL     1     -21.800  -6.529  -3.298  1.00  0.00     0.014 A 
HETATM    8  C   UNL     1     -20.346  -8.274  -2.458  1.00  0.00    -0.024 A 
HETATM    9  C   UNL     1     -22.358  -6.366  -2.026  1.00  0.00     0.001 A 
HETATM   10  C   UNL     1     -21.922  -7.159  -0.973  1.00  0.00     0.001 A 
HETATM   11  C   UNL     1     -20.920  -8.105  -1.187  1.00  0.00     0.012 A 
HETATM   12  C   UNL     1     -19.344  -9.234  -2.651  1.00  0.00     0.015 A 
HETATM   13  C   UNL     1     -18.779  -9.432  -3.908  1.00  0.00     0.040 A 
HETATM   14  C   UNL     1     -19.222  -8.678  -4.992  1.00  0.00     0.094 A 
BRANCH  14  15
HETATM   15  O   UNL     1     -18.691  -8.939  -6.230  1.00  0.00    -0.358 OA
HETATM   16  H   UNL     1     -19.411  -9.118  -6.856  1.00  0.00     0.217 HD
ENDBRANCH  14  15
ENDBRANCH   1   5
BRANCH   3  17
HETATM   17  C   UNL     1     -20.639  -5.251  -7.342  1.00  0.00     0.070 A 
HETATM   18  C   UNL     1     -22.010  -4.926  -7.405  1.00  0.00     0.064 A 
HETATM   19  C   UNL     1     -22.560  -4.279  -8.520  1.00  0.00     0.062 A 
HETATM   20 CL   UNL     1     -23.082  -5.314  -6.101  1.00  0.00    -0.082 Cl
HETATM   21  C   UNL     1     -21.732  -3.935  -9.593  1.00  0.00     0.104 A 
HETATM   22  C   UNL     1     -20.363  -4.214  -9.549  1.00  0.00     0.038 A 
HETATM   23  C   UNL     1     -19.829  -4.859  -8.427  1.00  0.00     0.035 A 
BRANCH  21  24
HETATM   24  N   UNL     1     -22.302  -3.273 -10.773  1.00  0.00    -0.116 N 
HETATM   25  O   UNL     1     -21.535  -2.613 -11.486  1.00  0.00    -0.532 OA
HETATM   26  O   UNL     1     -23.515  -3.413 -10.982  1.00  0.00    -0.532 OA
ENDBRANCH  21  24
ENDBRANCH   3  17
TORSDOF 4
BEGIN_RES ARG D 557
REMARK  4 active torsions:
REMARK  status: ('A' for Active; 'I' for Inactive)
REMARK    1  A    between atoms: CA   and  CB  
REMARK    2  A    between atoms: CB   and  CG  
REMARK    3  A    between atoms: CG   and  CD  
REMARK    4  A    between atoms: CD   and  NE  
REMARK       I    between atoms: NE   and  CZ  
REMARK       I    between atoms: CZ   and  NH1 
REMARK       I    between atoms: CZ   and  NH2 
ROOT
ATOM      1  CA  ARG D 557     -26.217   2.705 -17.014  1.00 35.49     0.159 C 
ENDROOT
BRANCH   1   2
ATOM      2  CB  ARG D 557     -26.789   1.319 -17.183  1.00 35.49     0.034 C 
BRANCH   2   3
ATOM      3  CG  ARG D 557     -28.232   1.226 -17.434  1.00 35.49     0.027 C 
BRANCH   3   4
ATOM      4  CD  ARG D 557     -28.912   0.312 -16.489  1.00 35.49     0.116 C 
BRANCH   4   5
ATOM      5  NE  ARG D 557     -29.309  -0.921 -17.116  1.00 35.49    -0.212 N 
ATOM      6  CZ  ARG D 557     -28.673  -2.068 -17.026  1.00 35.49     0.666 C 
ATOM      7  NH1 ARG D 557     -27.557  -2.208 -16.335  1.00 35.49    -0.235 N 
ATOM      8  NH2 ARG D 557     -29.189  -3.090 -17.645  1.00 35.49    -0.235 N 
ATOM      9  HH  ARG D 557     -27.201  -1.549 -15.918  1.00 35.49     0.174 HD
ATOM     10  HH  ARG D 557     -27.188  -2.981 -16.310  1.00 35.49     0.174 HD
ATOM     11  HH  ARG D 557     -29.915  -2.972 -18.077  1.00 35.49     0.174 HD
ATOM     12  HH  ARG D 557     -28.810  -3.848 -17.606  1.00 35.49     0.174 HD
ATOM     13  HE  ARG D 557     -29.978  -0.905 -17.641  1.00 35.49     0.178 HD
ENDBRANCH   4   5
ENDBRANCH   3   4
ENDBRANCH   2   3
ENDBRANCH   1   2
END_RES ARG D 557
BEGIN_RES GLU D 570
REMARK  3 active torsions:
REMARK  status: ('A' for Active; 'I' for Inactive)
REMARK    5  A    between atoms: CA   and  CB  
REMARK    6  A    between atoms: CB   and  CG  
REMARK    7  A    between atoms: CG   and  CD  
ROOT
ATOM     14  CA  GLU D 570     -18.033  -6.348 -13.375  1.00 32.92     0.160 C 
ENDROOT
BRANCH  14  15
ATOM     15  CB  GLU D 570     -19.500  -6.345 -13.794  1.00 32.92     0.043 C 
BRANCH  15  16
ATOM     16  CG  GLU D 570     -20.420  -5.439 -13.059  1.00 32.92     0.100 C 
BRANCH  16  17
ATOM     17  CD  GLU D 570     -21.709  -5.177 -13.803  1.00 32.92     0.185 C 
ATOM     18  OE1 GLU D 570     -22.780  -5.594 -13.323  1.00 32.92    -0.647 OA
ATOM     19  OE2 GLU D 570     -21.644  -4.564 -14.887  1.00 32.92    -0.647 OA
ENDBRANCH  16  17
ENDBRANCH  15  16
ENDBRANCH  14  15
END_RES GLU D 570
ENDMDL
MODEL 4
REMARK VINA RESULT:      -9.0      1.584      2.037
REMARK  4 active torsions:
REMARK  status: ('A' for Active; 'I' for Inactive)
REMARK    1  A    between atoms: C_9  and  O_25 
REMARK    2  A    between atoms: C_10  and  N_11 
REMARK    3  A    between atoms: N_13  and  C_15 
REMARK    4  A    between atoms: C_18  and  N_21 
ROOT
HETATM    1  N   UNL     1     -21.422  -6.864  -5.357  1.00  0.00    -0.297 N 
ATOM      2  HN  UNL     1     -22.378  -7.122  -5.601  1.00  0.00     0.187 HD
HETATM    3  N   UNL     1     -20.812  -5.910  -5.882  1.00  0.00    -0.299 N 
ATOM      4  HN  UNL     1     -19.870  -5.627  -5.610  1.00  0.00     0.187 HD
ENDROOT
BRANCH   1   5
HETATM    5  C   UNL     1     -20.649  -7.552  -4.386  1.00  0.00     0.092 A 
HETATM    6  C   UNL     1     -21.048  -7.487  -3.020  1.00  0.00     0.005 A 
HETATM    7  C   UNL     1     -22.121  -6.680  -2.569  1.00  0.00     0.014 A 
HETATM    8  C   UNL     1     -20.362  -8.262  -2.051  1.00  0.00    -0.024 A 
HETATM    9  C   UNL     1     -22.508  -6.653  -1.226  1.00  0.00     0.001 A 
HETATM   10  C   UNL     1     -21.833  -7.434  -0.296  1.00  0.00     0.001 A 
HETATM   11  C   UNL     1     -20.765  -8.231  -0.706  1.00  0.00     0.012 A 
HETATM   12  C   UNL     1     -19.288  -9.073  -2.441  1.00  0.00     0.015 A 
HETATM   13  C   UNL     1     -18.888  -9.135  -3.774  1.00  0.00     0.040 A 
HETATM   14  C   UNL     1     -19.569  -8.393  -4.735  1.00  0.00     0.094 A 
BRANCH  14  15
HETATM   15  O   UNL     1     -19.192  -8.521  -6.048  1.00  0.00    -0.358 OA
HETATM   16  H   UNL     1     -19.977  -8.695  -6.591  1.00  0.00     0.217 HD
ENDBRANCH  14  15
ENDBRANCH   1   5
BRANCH   3  17
HETATM   17  C   UNL     1     -21.562  -5.259  -6.895  1.00  0.00     0.070 A 
HETATM   18  C   UNL     1     -20.920  -4.871  -8.090  1.00  0.00     0.064 A 
HETATM   19  C   UNL     1     -21.610  -4.202  -9.109  1.00  0.00     0.062 A 
HETATM   20 CL   UNL     1     -19.240  -5.205  -8.352  1.00  0.00    -0.082 Cl
HETATM   21  C   UNL     1     -22.971  -3.921  -8.948  1.00  0.00     0.104 A 
HETATM   22  C   UNL     1     -23.644  -4.320  -7.790  1.00  0.00     0.038 A 
HETATM   23  C   UNL     1     -22.940  -4.989  -6.781  1.00  0.00     0.035 A 
BRANCH  21  24
HETATM   24  N   UNL     1     -23.699  -3.204 -10.003  1.00  0.00    -0.116 N 
HETATM   25  O   UNL     1     -23.084  -2.937 -11.043  1.00  0.00    -0.532 OA
HETATM   26  O   UNL     1     -24.882  -2.907  -9.786  1.00  0.00    -0.532 OA
ENDBRANCH  21  24
ENDBRANCH   3  17
TORSDOF 4
BEGIN_RES ARG D 557
REMARK  4 active torsions:
REMARK  status: ('A' for Active; 'I' for Inactive)
REMARK    1  A    between atoms: CA   and  CB  
REMARK    2  A    between atoms: CB   and  CG  
REMARK    3  A    between atoms: CG   and  CD  
REMARK    4  A    between atoms: CD   and  NE  
REMARK       I    between atoms: NE   and  CZ  
REMARK       I    between atoms: CZ   and  NH1 
REMARK       I    between atoms: CZ   and  NH2 
ROOT
ATOM      1  CA  ARG D 557     -26.217   2.705 -17.014  1.00 35.49     0.159 C 
ENDROOT
BRANCH   1   2
ATOM      2  CB  ARG D 557     -26.789   1.319 -17.183  1.00 35.49     0.034 C 
BRANCH   2   3
ATOM      3  CG  ARG D 557     -25.840   0.201 -17.124  1.00 35.49     0.027 C 
BRANCH   3   4
ATOM      4  CD  ARG D 557     -24.756   0.432 -16.141  1.00 35.49     0.116 C 
BRANCH   4   5
ATOM      5  NE  ARG D 557     -24.866  -0.437 -14.999  1.00 35.49    -0.212 N 
ATOM      6  CZ  ARG D 557     -24.030  -1.400 -14.683  1.00 35.49     0.666 C 
ATOM      7  NH1 ARG D 557     -22.971  -1.689 -15.417  1.00 35.49    -0.235 N 
ATOM      8  NH2 ARG D 557     -24.274  -2.074 -13.597  1.00 35.49    -0.235 N 
ATOM      9  HH  ARG D 557     -22.790  -1.256 -16.134  1.00 35.49     0.174 HD
ATOM     10  HH  ARG D 557     -22.459  -2.326 -15.160  1.00 35.49     0.174 HD
ATOM     11  HH  ARG D 557     -24.960  -1.860 -13.139  1.00 35.49     0.174 HD
ATOM     12  HH  ARG D 557     -23.754  -2.701 -13.358  1.00 35.49     0.174 HD
ATOM     13  HE  ARG D 557     -25.559  -0.368 -14.510  1.00 35.49     0.178 HD
ENDBRANCH   4   5
ENDBRANCH   3   4
ENDBRANCH   2   3
ENDBRANCH   1   2
END_RES ARG D 557
BEGIN_RES GLU D 570
REMARK  3 active torsions:
REMARK  status: ('A' for Active; 'I' for Inactive)
REMARK    5  A    between atoms: CA   and  CB  
REMARK    6  A    between atoms: CB   and  CG  
REMARK    7  A    between atoms: CG   and  CD  
ROOT
ATOM     14  CA  GLU D 570     -18.033  -6.348 -13.375  1.00 32.92     0.160 C 
ENDROOT
BRANCH  14  15
ATOM     15  CB  GLU D 570     -19.500  -6.345 -13.794  1.00 32.92     0.043 C 
BRANCH  15  16
ATOM     16  CG  GLU D 570     -19.797  -6.234 -15.246  1.00 32.92     0.100 C 
BRANCH  16  17
ATOM     17  CD  GLU D 570     -20.654  -7.367 -15.760  1.00 32.92     0.185 C 
ATOM     18  OE1 GLU D 570     -21.395  -7.167 -16.742  1.00 32.92    -0.647 OA
ATOM     19  OE2 GLU D 570     -20.596  -8.461 -15.165  1.00 32.92    -0.647 OA
ENDBRANCH  16  17
ENDBRANCH  15  16
ENDBRANCH  14  15
END_RES GLU D 570
ENDMDL
MODEL 5
REMARK VINA RESULT:      -8.9      2.359      3.415
REMARK  4 active torsions:
REMARK  status: ('A' for Active; 'I' for Inactive)
REMARK    1  A    between atoms: C_9  and  O_25 
REMARK    2  A    between atoms: C_10  and  N_11 
REMARK    3  A    between atoms: N_13  and  C_15 
REMARK    4  A    between atoms: C_18  and  N_21 
ROOT
HETATM    1  N   UNL     1     -21.543  -6.762  -5.399  1.00  0.00    -0.297 N 
ATOM      2  HN  UNL     1     -21.977  -7.307  -6.144  1.00  0.00     0.187 HD
HETATM    3  N   UNL     1     -21.316  -5.537  -5.484  1.00  0.00    -0.299 N 
ATOM      4  HN  UNL     1     -20.918  -4.986  -4.724  1.00  0.00     0.187 HD
ENDROOT
BRANCH   1   5
HETATM    5  C   UNL     1     -21.134  -7.319  -4.159  1.00  0.00     0.092 A 
HETATM    6  C   UNL     1     -20.043  -8.235  -4.145  1.00  0.00     0.005 A 
HETATM    7  C   UNL     1     -19.413  -8.700  -5.325  1.00  0.00     0.014 A 
HETATM    8  C   UNL     1     -19.542  -8.710  -2.906  1.00  0.00    -0.024 A 
HETATM    9  C   UNL     1     -18.328  -9.581  -5.282  1.00  0.00     0.001 A 
HETATM   10  C   UNL     1     -17.842 -10.020  -4.057  1.00  0.00     0.001 A 
HETATM   11  C   UNL     1     -18.447  -9.590  -2.878  1.00  0.00     0.012 A 
HETATM   12  C   UNL     1     -20.132  -8.288  -1.708  1.00  0.00     0.015 A 
HETATM   13  C   UNL     1     -21.204  -7.399  -1.715  1.00  0.00     0.040 A 
HETATM   14  C   UNL     1     -21.690  -6.911  -2.926  1.00  0.00     0.094 A 
BRANCH  14  15
HETATM   15  O   UNL     1     -22.705  -5.989  -2.899  1.00  0.00    -0.358 OA
HETATM   16  H   UNL     1     -22.326  -5.097  -2.846  1.00  0.00     0.217 HD
ENDBRANCH  14  15
ENDBRANCH   1   5
BRANCH   3  17
HETATM   17  C   UNL     1     -21.669  -4.993  -6.745  1.00  0.00     0.070 A 
HETATM   18  C   UNL     1     -20.651  -4.656  -7.662  1.00  0.00     0.064 A 
HETATM   19  C   UNL     1     -20.946  -4.091  -8.910  1.00  0.00     0.062 A 
HETATM   20 CL   UNL     1     -18.982  -4.928  -7.285  1.00  0.00    -0.082 Cl
HETATM   21  C   UNL     1     -22.280  -3.864  -9.264  1.00  0.00     0.104 A 
HETATM   22  C   UNL     1     -23.314  -4.216  -8.391  1.00  0.00     0.038 A 
HETATM   23  C   UNL     1     -23.002  -4.781  -7.148  1.00  0.00     0.035 A 
BRANCH  21  24
HETATM   24  N   UNL     1     -22.598  -3.256 -10.561  1.00  0.00    -0.116 N 
HETATM   25  O   UNL     1     -21.651  -2.890 -11.271  1.00  0.00    -0.532 OA
HETATM   26  O   UNL     1     -23.793  -3.140 -10.865  1.00  0.00    -0.532 OA
ENDBRANCH  21  24
ENDBRANCH   3  17
TORSDOF 4
BEGIN_RES ARG D 557
REMARK  4 active torsions:
REMARK  status: ('A' for Active; 'I' for Inactive)
REMARK    1  A    between atoms: CA   and  CB  
REMARK    2  A    between atoms: CB   and  CG  
REMARK    3  A    between atoms: CG   and  CD  
REMARK    4  A    between atoms: CD   and  NE  
REMARK       I    between atoms: NE   and  CZ  
REMARK       I    between atoms: CZ   and  NH1 
REMARK       I    between atoms: CZ   and  NH2 
ROOT
ATOM      1  CA  ARG D 557     -26.217   2.705 -17.014  1.00 35.49     0.159 C 
ENDROOT
BRANCH   1   2
ATOM      2  CB  ARG D 557     -26.789   1.319 -17.183  1.00 35.49     0.034 C 
BRANCH   2   3
ATOM      3  CG  ARG D 557     -28.233   1.226 -17.428  1.00 35.49     0.027 C 
BRANCH   3   4
ATOM      4  CD  ARG D 557     -28.906   0.298 -16.491  1.00 35.49     0.116 C 
BRANCH   4   5
ATOM      5  NE  ARG D 557     -29.300  -0.929 -17.131  1.00 35.49    -0.212 N 
ATOM      6  CZ  ARG D 557     -28.673  -2.081 -17.037  1.00 35.49     0.666 C 
ATOM      7  NH1 ARG D 557     -27.569  -2.231 -16.329  1.00 35.49    -0.235 N 
ATOM      8  NH2 ARG D 557     -29.185  -3.097 -17.669  1.00 35.49    -0.235 N 
ATOM      9  HH  ARG D 557     -27.216  -1.577 -15.902  1.00 35.49     0.174 HD
ATOM     10  HH  ARG D 557     -27.206  -3.007 -16.301  1.00 35.49     0.174 HD
ATOM     11  HH  ARG D 557     -29.903  -2.972 -18.112  1.00 35.49     0.174 HD
ATOM     12  HH  ARG D 557     -28.811  -3.857 -17.629  1.00 35.49     0.174 HD
ATOM     13  HE  ARG D 557     -29.961  -0.907 -17.666  1.00 35.49     0.178 HD
ENDBRANCH   4   5
ENDBRANCH   3   4
ENDBRANCH   2   3
ENDBRANCH   1   2
END_RES ARG D 557
BEGIN_RES GLU D 570
REMARK  3 active torsions:
REMARK  status: ('A' for Active; 'I' for Inactive)
REMARK    5  A    between atoms: CA   and  CB  
REMARK    6  A    between atoms: CB   and  CG  
REMARK    7  A    between atoms: CG   and  CD  
ROOT
ATOM     14  CA  GLU D 570     -18.033  -6.348 -13.375  1.00 32.92     0.160 C 
ENDROOT
BRANCH  14  15
ATOM     15  CB  GLU D 570     -19.500  -6.345 -13.794  1.00 32.92     0.043 C 
BRANCH  15  16
ATOM     16  CG  GLU D 570     -20.115  -7.652 -14.143  1.00 32.92     0.100 C 
BRANCH  16  17
ATOM     17  CD  GLU D 570     -20.692  -7.677 -15.539  1.00 32.92     0.185 C 
ATOM     18  OE1 GLU D 570     -21.218  -6.644 -15.996  1.00 32.92    -0.647 OA
ATOM     19  OE2 GLU D 570     -20.633  -8.747 -16.177  1.00 32.92    -0.647 OA
ENDBRANCH  16  17
ENDBRANCH  15  16
ENDBRANCH  14  15
END_RES GLU D 570
ENDMDL
MODEL 6
REMARK VINA RESULT:      -8.9      1.336      2.421
REMARK  4 active torsions:
REMARK  status: ('A' for Active; 'I' for Inactive)
REMARK    1  A    between atoms: C_9  and  O_25 
REMARK    2  A    between atoms: C_10  and  N_11 
REMARK    3  A    between atoms: N_13  and  C_15 
REMARK    4  A    between atoms: C_18  and  N_21 
ROOT
HETATM    1  N   UNL     1     -21.146  -6.810  -5.433  1.00  0.00    -0.297 N 
ATOM      2  HN  UNL     1     -21.572  -7.303  -6.218  1.00  0.00     0.187 HD
HETATM    3  N   UNL     1     -20.827  -5.604  -5.469  1.00  0.00    -0.299 N 
ATOM      4  HN  UNL     1     -20.437  -5.102  -4.671  1.00  0.00     0.187 HD
ENDROOT
BRANCH   1   5
HETATM    5  C   UNL     1     -20.857  -7.426  -4.188  1.00  0.00     0.092 A 
HETATM    6  C   UNL     1     -19.809  -8.390  -4.126  1.00  0.00     0.005 A 
HETATM    7  C   UNL     1     -19.111  -8.842  -5.272  1.00  0.00     0.014 A 
HETATM    8  C   UNL     1     -19.424  -8.928  -2.872  1.00  0.00    -0.024 A 
HETATM    9  C   UNL     1     -18.070  -9.770  -5.181  1.00  0.00     0.001 A 
HETATM   10  C   UNL     1     -17.697 -10.272  -3.940  1.00  0.00     0.001 A 
HETATM   11  C   UNL     1     -18.372  -9.855  -2.794  1.00  0.00     0.012 A 
HETATM   12  C   UNL     1     -20.086  -8.521  -1.706  1.00  0.00     0.015 A 
HETATM   13  C   UNL     1     -21.116  -7.585  -1.761  1.00  0.00     0.040 A 
HETATM   14  C   UNL     1     -21.487  -7.036  -2.985  1.00  0.00     0.094 A 
BRANCH  14  15
HETATM   15  O   UNL     1     -22.463  -6.071  -3.000  1.00  0.00    -0.358 OA
HETATM   16  H   UNL     1     -23.170  -6.321  -2.384  1.00  0.00     0.217 HD
ENDBRANCH  14  15
ENDBRANCH   1   5
BRANCH   3  17
HETATM   17  C   UNL     1     -21.060  -5.004  -6.732  1.00  0.00     0.070 A 
HETATM   18  C   UNL     1     -22.386  -4.752  -7.143  1.00  0.00     0.064 A 
HETATM   19  C   UNL     1     -22.672  -4.186  -8.393  1.00  0.00     0.062 A 
HETATM   20 CL   UNL     1     -23.729  -5.133  -6.116  1.00  0.00    -0.082 Cl
HETATM   21  C   UNL     1     -21.621  -3.850  -9.252  1.00  0.00     0.104 A 
HETATM   22  C   UNL     1     -20.294  -4.058  -8.862  1.00  0.00     0.038 A 
HETATM   23  C   UNL     1     -20.026  -4.623  -7.609  1.00  0.00     0.035 A 
BRANCH  21  24
HETATM   24  N   UNL     1     -21.910  -3.274 -10.571  1.00  0.00    -0.116 N 
HETATM   25  O   UNL     1     -23.086  -3.289 -10.957  1.00  0.00    -0.532 OA
HETATM   26  O   UNL     1     -20.960  -2.811 -11.217  1.00  0.00    -0.532 OA
ENDBRANCH  21  24
ENDBRANCH   3  17
TORSDOF 4
BEGIN_RES ARG D 557
REMARK  4 active torsions:
REMARK  status: ('A' for Active; 'I' for Inactive)
REMARK    1  A    between atoms: CA   and  CB  
REMARK    2  A    between atoms: CB   and  CG  
REMARK    3  A    between atoms: CG   and  CD  
REMARK    4  A    between atoms: CD   and  NE  
REMARK       I    between atoms: NE   and  CZ  
REMARK       I    between atoms: CZ   and  NH1 
REMARK       I    between atoms: CZ   and  NH2 
ROOT
ATOM      1  CA  ARG D 557     -26.217   2.705 -17.014  1.00 35.49     0.159 C 
ENDROOT
BRANCH   1   2
ATOM      2  CB  ARG D 557     -26.789   1.319 -17.183  1.00 35.49     0.034 C 
BRANCH   2   3
ATOM      3  CG  ARG D 557     -25.839   0.201 -17.133  1.00 35.49     0.027 C 
BRANCH   3   4
ATOM      4  CD  ARG D 557     -24.742   0.436 -16.165  1.00 35.49     0.116 C 
BRANCH   4   5
ATOM      5  NE  ARG D 557     -24.863  -0.396 -14.997  1.00 35.49    -0.212 N 
ATOM      6  CZ  ARG D 557     -24.050  -1.372 -14.662  1.00 35.49     0.666 C 
ATOM      7  NH1 ARG D 557     -23.008  -1.711 -15.398  1.00 35.49    -0.235 N 
ATOM      8  NH2 ARG D 557     -24.300  -2.009 -13.555  1.00 35.49    -0.235 N 
ATOM      9  HH  ARG D 557     -22.823  -1.305 -16.130  1.00 35.49     0.174 HD
ATOM     10  HH  ARG D 557     -22.511  -2.355 -15.128  1.00 35.49     0.174 HD
ATOM     11  HH  ARG D 557     -24.975  -1.763 -13.096  1.00 35.49     0.174 HD
ATOM     12  HH  ARG D 557     -23.795  -2.642 -13.304  1.00 35.49     0.174 HD
ATOM     13  HE  ARG D 557     -25.548  -0.295 -14.504  1.00 35.49     0.178 HD
ENDBRANCH   4   5
ENDBRANCH   3   4
ENDBRANCH   2   3
ENDBRANCH   1   2
END_RES ARG D 557
BEGIN_RES GLU D 570
REMARK  3 active torsions:
REMARK  status: ('A' for Active; 'I' for Inactive)
REMARK    5  A    between atoms: CA   and  CB  
REMARK    6  A    between atoms: CB   and  CG  
REMARK    7  A    between atoms: CG   and  CD  
ROOT
ATOM     14  CA  GLU D 570     -18.033  -6.348 -13.375  1.00 32.92     0.160 C 
ENDROOT
BRANCH  14  15
ATOM     15  CB  GLU D 570     -19.500  -6.345 -13.794  1.00 32.92     0.043 C 
BRANCH  15  16
ATOM     16  CG  GLU D 570     -20.419  -5.435 -13.063  1.00 32.92     0.100 C 
BRANCH  16  17
ATOM     17  CD  GLU D 570     -21.738  -5.234 -13.772  1.00 32.92     0.185 C 
ATOM     18  OE1 GLU D 570     -22.328  -6.225 -14.245  1.00 32.92    -0.647 OA
ATOM     19  OE2 GLU D 570     -22.178  -4.072 -13.871  1.00 32.92    -0.647 OA
ENDBRANCH  16  17
ENDBRANCH  15  16
ENDBRANCH  14  15
END_RES GLU D 570
ENDMDL
MODEL 7
REMARK VINA RESULT:      -8.8      7.127     12.384
REMARK  4 active torsions:
REMARK  status: ('A' for Active; 'I' for Inactive)
REMARK    1  A    between atoms: C_9  and  O_25 
REMARK    2  A    between atoms: C_10  and  N_11 
REMARK    3  A    between atoms: N_13  and  C_15 
REMARK    4  A    between atoms: C_18  and  N_21 
ROOT
HETATM    1  N   UNL     1     -25.853  -6.375 -18.766  1.00  0.00    -0.297 N 
ATOM      2  HN  UNL     1     -26.268  -5.799 -19.498  1.00  0.00     0.187 HD
HETATM    3  N   UNL     1     -26.443  -6.669 -17.705  1.00  0.00    -0.299 N 
ATOM      4  HN  UNL     1     -26.044  -7.278 -16.991  1.00  0.00     0.187 HD
ENDROOT
BRANCH   1   5
HETATM    5  C   UNL     1     -24.548  -6.925 -18.848  1.00  0.00     0.092 A 
HETATM    6  C   UNL     1     -24.100  -7.446 -20.096  1.00  0.00     0.005 A 
HETATM    7  C   UNL     1     -24.935  -7.536 -21.236  1.00  0.00     0.014 A 
HETATM    8  C   UNL     1     -22.760  -7.890 -20.231  1.00  0.00    -0.024 A 
HETATM    9  C   UNL     1     -24.463  -8.029 -22.457  1.00  0.00     0.001 A 
HETATM   10  C   UNL     1     -23.142  -8.442 -22.571  1.00  0.00     0.001 A 
HETATM   11  C   UNL     1     -22.298  -8.376 -21.465  1.00  0.00     0.012 A 
HETATM   12  C   UNL     1     -21.893  -7.829 -19.133  1.00  0.00     0.015 A 
HETATM   13  C   UNL     1     -22.326  -7.330 -17.907  1.00  0.00     0.040 A 
HETATM   14  C   UNL     1     -23.635  -6.872 -17.772  1.00  0.00     0.094 A 
BRANCH  14  15
HETATM   15  O   UNL     1     -24.016  -6.328 -16.571  1.00  0.00    -0.358 OA
HETATM   16  H   UNL     1     -23.257  -6.323 -15.966  1.00  0.00     0.217 HD
ENDBRANCH  14  15
ENDBRANCH   1   5
BRANCH   3  17
HETATM   17  C   UNL     1     -27.724  -6.070 -17.597  1.00  0.00     0.070 A 
HETATM   18  C   UNL     1     -28.531  -6.362 -16.477  1.00  0.00     0.064 A 
HETATM   19  C   UNL     1     -29.814  -5.818 -16.336  1.00  0.00     0.062 A 
HETATM   20 CL   UNL     1     -27.969  -7.413 -15.219  1.00  0.00    -0.082 Cl
HETATM   21  C   UNL     1     -30.307  -4.954 -17.320  1.00  0.00     0.104 A 
HETATM   22  C   UNL     1     -29.520  -4.620 -18.426  1.00  0.00     0.038 A 
HETATM   23  C   UNL     1     -28.239  -5.171 -18.551  1.00  0.00     0.035 A 
BRANCH  21  24
HETATM   24  N   UNL     1     -31.657  -4.393 -17.190  1.00  0.00    -0.116 N 
HETATM   25  O   UNL     1     -31.804  -3.189 -17.442  1.00  0.00    -0.532 OA
HETATM   26  O   UNL     1     -32.566  -5.156 -16.835  1.00  0.00    -0.532 OA
ENDBRANCH  21  24
ENDBRANCH   3  17
TORSDOF 4
BEGIN_RES ARG D 557
REMARK  4 active torsions:
REMARK  status: ('A' for Active; 'I' for Inactive)
REMARK    1  A    between atoms: CA   and  CB  
REMARK    2  A    between atoms: CB   and  CG  
REMARK    3  A    between atoms: CG   and  CD  
REMARK    4  A    between atoms: CD   and  NE  
REMARK       I    between atoms: NE   and  CZ  
REMARK       I    between atoms: CZ   and  NH1 
REMARK       I    between atoms: CZ   and  NH2 
ROOT
ATOM      1  CA  ARG D 557     -26.217   2.705 -17.014  1.00 35.49     0.159 C 
ENDROOT
BRANCH   1   2
ATOM      2  CB  ARG D 557     -26.789   1.319 -17.183  1.00 35.49     0.034 C 
BRANCH   2   3
ATOM      3  CG  ARG D 557     -25.837   0.202 -17.148  1.00 35.49     0.027 C 
BRANCH   3   4
ATOM      4  CD  ARG D 557     -24.762   0.408 -16.150  1.00 35.49     0.116 C 
BRANCH   4   5
ATOM      5  NE  ARG D 557     -24.910  -0.455 -15.008  1.00 35.49    -0.212 N 
ATOM      6  CZ  ARG D 557     -24.087  -1.420 -14.663  1.00 35.49     0.666 C 
ATOM      7  NH1 ARG D 557     -23.009  -1.716 -15.364  1.00 35.49    -0.235 N 
ATOM      8  NH2 ARG D 557     -24.367  -2.089 -13.582  1.00 35.49    -0.235 N 
ATOM      9  HH  ARG D 557     -22.804  -1.288 -16.077  1.00 35.49     0.174 HD
ATOM     10  HH  ARG D 557     -22.507  -2.355 -15.089  1.00 35.49     0.174 HD
ATOM     11  HH  ARG D 557     -25.066  -1.871 -13.146  1.00 35.49     0.174 HD
ATOM     12  HH  ARG D 557     -23.857  -2.717 -13.326  1.00 35.49     0.174 HD
ATOM     13  HE  ARG D 557     -25.617  -0.381 -14.541  1.00 35.49     0.178 HD
ENDBRANCH   4   5
ENDBRANCH   3   4
ENDBRANCH   2   3
ENDBRANCH   1   2
END_RES ARG D 557
BEGIN_RES GLU D 570
REMARK  3 active torsions:
REMARK  status: ('A' for Active; 'I' for Inactive)
REMARK    5  A    between atoms: CA   and  CB  
REMARK    6  A    between atoms: CB   and  CG  
REMARK    7  A    between atoms: CG   and  CD  
ROOT
ATOM     14  CA  GLU D 570     -18.033  -6.348 -13.375  1.00 32.92     0.160 C 
ENDROOT
BRANCH  14  15
ATOM     15  CB  GLU D 570     -19.500  -6.345 -13.794  1.00 32.92     0.043 C 
BRANCH  15  16
ATOM     16  CG  GLU D 570     -20.439  -5.517 -12.994  1.00 32.92     0.100 C 
BRANCH  16  17
ATOM     17  CD  GLU D 570     -21.747  -5.258 -13.703  1.00 32.92     0.185 C 
ATOM     18  OE1 GLU D 570     -22.231  -6.150 -14.425  1.00 32.92    -0.647 OA
ATOM     19  OE2 GLU D 570     -22.286  -4.144 -13.548  1.00 32.92    -0.647 OA
ENDBRANCH  16  17
ENDBRANCH  15  16
ENDBRANCH  14  15
END_RES GLU D 570
ENDMDL
MODEL 8
REMARK VINA RESULT:      -8.8      6.497     10.370
REMARK  4 active torsions:
REMARK  status: ('A' for Active; 'I' for Inactive)
REMARK    1  A    between atoms: C_9  and  O_25 
REMARK    2  A    between atoms: C_10  and  N_11 
REMARK    3  A    between atoms: N_13  and  C_15 
REMARK    4  A    between atoms: C_18  and  N_21 
ROOT
HETATM    1  N   UNL     1     -25.524  -6.049 -15.473  1.00  0.00    -0.297 N 
ATOM      2  HN  UNL     1     -25.511  -6.708 -14.695  1.00  0.00     0.187 HD
HETATM    3  N   UNL     1     -24.991  -4.920 -15.427  1.00  0.00    -0.299 N 
ATOM      4  HN  UNL     1     -24.970  -4.277 -16.218  1.00  0.00     0.187 HD
ENDROOT
BRANCH   1   5
HETATM    5  C   UNL     1     -26.149  -6.319 -16.718  1.00  0.00     0.092 A 
HETATM    6  C   UNL     1     -27.568  -6.235 -16.805  1.00  0.00     0.005 A 
HETATM    7  C   UNL     1     -28.396  -5.997 -15.682  1.00  0.00     0.014 A 
HETATM    8  C   UNL     1     -28.203  -6.383 -18.065  1.00  0.00    -0.024 A 
HETATM    9  C   UNL     1     -29.785  -5.894 -15.799  1.00  0.00     0.001 A 
HETATM   10  C   UNL     1     -30.385  -6.025 -17.045  1.00  0.00     0.001 A 
HETATM   11  C   UNL     1     -29.600  -6.271 -18.169  1.00  0.00     0.012 A 
HETATM   12  C   UNL     1     -27.433  -6.627 -19.209  1.00  0.00     0.015 A 
HETATM   13  C   UNL     1     -26.046  -6.718 -19.129  1.00  0.00     0.040 A 
HETATM   14  C   UNL     1     -25.412  -6.554 -17.900  1.00  0.00     0.094 A 
BRANCH  14  15
HETATM   15  O   UNL     1     -24.041  -6.587 -17.861  1.00  0.00    -0.358 OA
HETATM   16  H   UNL     1     -23.734  -6.212 -17.021  1.00  0.00     0.217 HD
ENDBRANCH  14  15
ENDBRANCH   1   5
BRANCH   3  17
HETATM   17  C   UNL     1     -24.419  -4.626 -14.163  1.00  0.00     0.070 A 
HETATM   18  C   UNL     1     -24.548  -3.326 -13.632  1.00  0.00     0.064 A 
HETATM   19  C   UNL     1     -23.978  -2.977 -12.400  1.00  0.00     0.062 A 
HETATM   20 CL   UNL     1     -25.420  -2.093 -14.483  1.00  0.00    -0.082 Cl
HETATM   21  C   UNL     1     -23.275  -3.941 -11.670  1.00  0.00     0.104 A 
HETATM   22  C   UNL     1     -23.156  -5.247 -12.154  1.00  0.00     0.038 A 
HETATM   23  C   UNL     1     -23.733  -5.580 -13.386  1.00  0.00     0.035 A 
BRANCH  21  24
HETATM   24  N   UNL     1     -22.659  -3.581 -10.387  1.00  0.00    -0.116 N 
HETATM   25  O   UNL     1     -21.424  -3.499 -10.348  1.00  0.00    -0.532 OA
HETATM   26  O   UNL     1     -23.410  -3.385  -9.423  1.00  0.00    -0.532 OA
ENDBRANCH  21  24
ENDBRANCH   3  17
TORSDOF 4
BEGIN_RES ARG D 557
REMARK  4 active torsions:
REMARK  status: ('A' for Active; 'I' for Inactive)
REMARK    1  A    between atoms: CA   and  CB  
REMARK    2  A    between atoms: CB   and  CG  
REMARK    3  A    between atoms: CG   and  CD  
REMARK    4  A    between atoms: CD   and  NE  
REMARK       I    between atoms: NE   and  CZ  
REMARK       I    between atoms: CZ   and  NH1 
REMARK       I    between atoms: CZ   and  NH2 
ROOT
ATOM      1  CA  ARG D 557     -26.217   2.705 -17.014  1.00 35.49     0.159 C 
ENDROOT
BRANCH   1   2
ATOM      2  CB  ARG D 557     -26.789   1.319 -17.183  1.00 35.49     0.034 C 
BRANCH   2   3
ATOM      3  CG  ARG D 557     -28.251   1.197 -17.135  1.00 35.49     0.027 C 
BRANCH   3   4
ATOM      4  CD  ARG D 557     -28.696   0.071 -16.282  1.00 35.49     0.116 C 
BRANCH   4   5
ATOM      5  NE  ARG D 557     -29.416  -0.925 -17.031  1.00 35.49    -0.212 N 
ATOM      6  CZ  ARG D 557     -29.064  -2.184 -17.171  1.00 35.49     0.666 C 
ATOM      7  NH1 ARG D 557     -27.966  -2.677 -16.631  1.00 35.49    -0.235 N 
ATOM      8  NH2 ARG D 557     -29.849  -2.952 -17.869  1.00 35.49    -0.235 N 
ATOM      9  HH  ARG D 557     -27.435  -2.191 -16.166  1.00 35.49     0.174 HD
ATOM     10  HH  ARG D 557     -27.789  -3.507 -16.754  1.00 35.49     0.174 HD
ATOM     11  HH  ARG D 557     -30.555  -2.607 -18.200  1.00 35.49     0.174 HD
ATOM     12  HH  ARG D 557     -29.657  -3.771 -17.978  1.00 35.49     0.174 HD
ATOM     13  HE  ARG D 557     -30.098  -0.676 -17.473  1.00 35.49     0.178 HD
ENDBRANCH   4   5
ENDBRANCH   3   4
ENDBRANCH   2   3
ENDBRANCH   1   2
END_RES ARG D 557
BEGIN_RES GLU D 570
REMARK  3 active torsions:
REMARK  status: ('A' for Active; 'I' for Inactive)
REMARK    5  A    between atoms: CA   and  CB  
REMARK    6  A    between atoms: CB   and  CG  
REMARK    7  A    between atoms: CG   and  CD  
ROOT
ATOM     14  CA  GLU D 570     -18.033  -6.348 -13.375  1.00 32.92     0.160 C 
ENDROOT
BRANCH  14  15
ATOM     15  CB  GLU D 570     -19.500  -6.345 -13.794  1.00 32.92     0.043 C 
BRANCH  15  16
ATOM     16  CG  GLU D 570     -19.817  -5.894 -15.174  1.00 32.92     0.100 C 
BRANCH  16  17
ATOM     17  CD  GLU D 570     -21.136  -6.429 -15.680  1.00 32.92     0.185 C 
ATOM     18  OE1 GLU D 570     -21.912  -5.660 -16.279  1.00 32.92    -0.647 OA
ATOM     19  OE2 GLU D 570     -21.404  -7.627 -15.461  1.00 32.92    -0.647 OA
ENDBRANCH  16  17
ENDBRANCH  15  16
ENDBRANCH  14  15
END_RES GLU D 570
ENDMDL
MODEL 9
REMARK VINA RESULT:      -8.3      6.740     10.901
REMARK  4 active torsions:
REMARK  status: ('A' for Active; 'I' for Inactive)
REMARK    1  A    between atoms: C_9  and  O_25 
REMARK    2  A    between atoms: C_10  and  N_11 
REMARK    3  A    between atoms: N_13  and  C_15 
REMARK    4  A    between atoms: C_18  and  N_21 
ROOT
HETATM    1  N   UNL     1     -25.740  -5.841 -15.787  1.00  0.00    -0.297 N 
ATOM      2  HN  UNL     1     -25.276  -6.630 -15.338  1.00  0.00     0.187 HD
HETATM    3  N   UNL     1     -25.524  -4.650 -15.481  1.00  0.00    -0.299 N 
ATOM      4  HN  UNL     1     -25.959  -3.860 -15.956  1.00  0.00     0.187 HD
ENDROOT
BRANCH   1   5
HETATM    5  C   UNL     1     -26.698  -5.983 -16.824  1.00  0.00     0.092 A 
HETATM    6  C   UNL     1     -26.263  -6.443 -18.100  1.00  0.00     0.005 A 
HETATM    7  C   UNL     1     -24.901  -6.664 -18.416  1.00  0.00     0.014 A 
HETATM    8  C   UNL     1     -27.220  -6.706 -19.114  1.00  0.00    -0.024 A 
HETATM    9  C   UNL     1     -24.503  -7.139 -19.669  1.00  0.00     0.001 A 
HETATM   10  C   UNL     1     -25.458  -7.407 -20.642  1.00  0.00     0.001 A 
HETATM   11  C   UNL     1     -26.807  -7.189 -20.367  1.00  0.00     0.012 A 
HETATM   12  C   UNL     1     -28.581  -6.498 -18.859  1.00  0.00     0.015 A 
HETATM   13  C   UNL     1     -29.012  -6.041 -17.615  1.00  0.00     0.040 A 
HETATM   14  C   UNL     1     -28.082  -5.799 -16.607  1.00  0.00     0.094 A 
BRANCH  14  15
HETATM   15  O   UNL     1     -28.541  -5.410 -15.374  1.00  0.00    -0.358 OA
HETATM   16  H   UNL     1     -28.452  -6.149 -14.752  1.00  0.00     0.217 HD
ENDBRANCH  14  15
ENDBRANCH   1   5
BRANCH   3  17
HETATM   17  C   UNL     1     -24.612  -4.510 -14.404  1.00  0.00     0.070 A 
HETATM   18  C   UNL     1     -24.458  -3.250 -13.788  1.00  0.00     0.064 A 
HETATM   19  C   UNL     1     -23.550  -3.052 -12.739  1.00  0.00     0.062 A 
HETATM   20 CL   UNL     1     -25.388  -1.882 -14.304  1.00  0.00    -0.082 Cl
HETATM   21  C   UNL     1     -22.786  -4.130 -12.279  1.00  0.00     0.104 A 
HETATM   22  C   UNL     1     -22.937  -5.399 -12.847  1.00  0.00     0.038 A 
HETATM   23  C   UNL     1     -23.849  -5.579 -13.894  1.00  0.00     0.035 A 
BRANCH  21  24
HETATM   24  N   UNL     1     -21.819  -3.929 -11.193  1.00  0.00    -0.116 N 
HETATM   25  O   UNL     1     -20.619  -4.076 -11.459  1.00  0.00    -0.532 OA
HETATM   26  O   UNL     1     -22.263  -3.630 -10.075  1.00  0.00    -0.532 OA
ENDBRANCH  21  24
ENDBRANCH   3  17
TORSDOF 4
BEGIN_RES ARG D 557
REMARK  4 active torsions:
REMARK  status: ('A' for Active; 'I' for Inactive)
REMARK    1  A    between atoms: CA   and  CB  
REMARK    2  A    between atoms: CB   and  CG  
REMARK    3  A    between atoms: CG   and  CD  
REMARK    4  A    between atoms: CD   and  NE  
REMARK       I    between atoms: NE   and  CZ  
REMARK       I    between atoms: CZ   and  NH1 
REMARK       I    between atoms: CZ   and  NH2 
ROOT
ATOM      1  CA  ARG D 557     -26.217   2.705 -17.014  1.00 35.49     0.159 C 
ENDROOT
BRANCH   1   2
ATOM      2  CB  ARG D 557     -26.789   1.319 -17.183  1.00 35.49     0.034 C 
BRANCH   2   3
ATOM      3  CG  ARG D 557     -28.246   1.219 -17.333  1.00 35.49     0.027 C 
BRANCH   3   4
ATOM      4  CD  ARG D 557     -28.847   0.260 -16.379  1.00 35.49     0.116 C 
BRANCH   4   5
ATOM      5  NE  ARG D 557     -29.529  -0.816 -17.048  1.00 35.49    -0.212 N 
ATOM      6  CZ  ARG D 557     -29.098  -2.054 -17.149  1.00 35.49     0.666 C 
ATOM      7  NH1 ARG D 557     -27.946  -2.447 -16.639  1.00 35.49    -0.235 N 
ATOM      8  NH2 ARG D 557     -29.858  -2.905 -17.775  1.00 35.49    -0.235 N 
ATOM      9  HH  ARG D 557     -27.430  -1.904 -16.222  1.00 35.49     0.174 HD
ATOM     10  HH  ARG D 557     -27.718  -3.267 -16.734  1.00 35.49     0.174 HD
ATOM     11  HH  ARG D 557     -30.601  -2.624 -18.087  1.00 35.49     0.174 HD
ATOM     12  HH  ARG D 557     -29.616  -3.713 -17.857  1.00 35.49     0.174 HD
ATOM     13  HE  ARG D 557     -30.246  -0.635 -17.468  1.00 35.49     0.178 HD
ENDBRANCH   4   5
ENDBRANCH   3   4
ENDBRANCH   2   3
ENDBRANCH   1   2
END_RES ARG D 557
BEGIN_RES GLU D 570
REMARK  3 active torsions:
REMARK  status: ('A' for Active; 'I' for Inactive)
REMARK    5  A    between atoms: CA   and  CB  
REMARK    6  A    between atoms: CB   and  CG  
REMARK    7  A    between atoms: CG   and  CD  
ROOT
ATOM     14  CA  GLU D 570     -18.033  -6.348 -13.375  1.00 32.92     0.160 C 
ENDROOT
BRANCH  14  15
ATOM     15  CB  GLU D 570     -19.500  -6.345 -13.794  1.00 32.92     0.043 C 
BRANCH  15  16
ATOM     16  CG  GLU D 570     -20.091  -7.637 -14.228  1.00 32.92     0.100 C 
BRANCH  16  17
ATOM     17  CD  GLU D 570     -20.768  -7.553 -15.576  1.00 32.92     0.185 C 
ATOM     18  OE1 GLU D 570     -21.229  -8.591 -16.088  1.00 32.92    -0.647 OA
ATOM     19  OE2 GLU D 570     -20.825  -6.439 -16.133  1.00 32.92    -0.647 OA
ENDBRANCH  16  17
ENDBRANCH  15  16
ENDBRANCH  14  15
END_RES GLU D 570
ENDMDL
