MODEL 1
REMARK VINA RESULT:      -1.2      0.000      0.000
REMARK  1 active torsions:
REMARK  status: ('A' for Active; 'I' for Inactive)
REMARK    1  A    between atoms: C_1  and  O_3 
ROOT
HETATM    1  H   UNL     1     -22.220  -9.037 -15.763  1.00  0.00     0.271 HD
HETATM    2  H   UNL     1     -20.663  -9.394 -15.583  1.00  0.00     0.271 HD
HETATM    3  H   UNL     1     -21.167  -7.850 -15.508  1.00  0.00     0.271 HD
HETATM    4  H   UNL     1     -21.121  -8.617 -17.056  1.00  0.00     0.271 HD
HETATM    5  N   UNL     2     -21.272  -8.732 -16.064  1.00  0.00    -0.084 N 
ENDROOT
TORSDOF 1
BEGIN_RES ARG D 557
REMARK  4 active torsions:
REMARK  status: ('A' for Active; 'I' for Inactive)
REMARK    1  A    between atoms: CA   and  CB  
REMARK    2  A    between atoms: CB   and  CG  
REMARK    3  A    between atoms: CG   and  CD  
REMARK    4  A    between atoms: CD   and  NE  
REMARK       I    between atoms: NE   and  CZ  
REMARK       I    between atoms: CZ   and  NH1 
REMARK       I    between atoms: CZ   and  NH2 
ROOT
ATOM      1  CA  ARG D 557     -26.217   2.705 -17.014  1.00 35.49     0.159 C 
ENDROOT
BRANCH   1   2
ATOM      2  CB  ARG D 557     -26.789   1.319 -17.183  1.00 35.49     0.034 C 
BRANCH   2   3
ATOM      3  CG  ARG D 557     -25.836   0.203 -17.157  1.00 35.49     0.027 C 
BRANCH   3   4
ATOM      4  CD  ARG D 557     -24.748   0.413 -16.174  1.00 35.49     0.116 C 
BRANCH   4   5
ATOM      5  NE  ARG D 557     -24.893  -0.431 -15.017  1.00 35.49    -0.212 N 
ATOM      6  CZ  ARG D 557     -24.081  -1.404 -14.669  1.00 35.49     0.666 C 
ATOM      7  NH1 ARG D 557     -23.018  -1.729 -15.382  1.00 35.49    -0.235 N 
ATOM      8  NH2 ARG D 557     -24.355  -2.053 -13.575  1.00 35.49    -0.235 N 
ATOM      9  HH  ARG D 557     -22.818  -1.314 -16.104  1.00 35.49     0.174 HD
ATOM     10  HH  ARG D 557     -22.523  -2.371 -15.105  1.00 35.49     0.174 HD
ATOM     11  HH  ARG D 557     -25.044  -1.816 -13.131  1.00 35.49     0.174 HD
ATOM     12  HH  ARG D 557     -23.853  -2.685 -13.317  1.00 35.49     0.174 HD
ATOM     13  HE  ARG D 557     -25.591  -0.339 -14.540  1.00 35.49     0.178 HD
ENDBRANCH   4   5
ENDBRANCH   3   4
ENDBRANCH   2   3
ENDBRANCH   1   2
END_RES ARG D 557
BEGIN_RES GLU D 570
REMARK  3 active torsions:
REMARK  status: ('A' for Active; 'I' for Inactive)
REMARK    5  A    between atoms: CA   and  CB  
REMARK    6  A    between atoms: CB   and  CG  
REMARK    7  A    between atoms: CG   and  CD  
ROOT
ATOM     14  CA  GLU D 570     -18.033  -6.348 -13.375  1.00 32.92     0.160 C 
ENDROOT
BRANCH  14  15
ATOM     15  CB  GLU D 570     -19.500  -6.345 -13.794  1.00 32.92     0.043 C 
BRANCH  15  16
ATOM     16  CG  GLU D 570     -20.440  -5.520 -12.991  1.00 32.92     0.100 C 
BRANCH  16  17
ATOM     17  CD  GLU D 570     -21.745  -5.252 -13.703  1.00 32.92     0.185 C 
ATOM     18  OE1 GLU D 570     -22.310  -4.154 -13.538  1.00 32.92    -0.647 OA
ATOM     19  OE2 GLU D 570     -22.215  -6.156 -14.422  1.00 32.92    -0.647 OA
ENDBRANCH  16  17
ENDBRANCH  15  16
ENDBRANCH  14  15
END_RES GLU D 570
ENDMDL
MODEL 2
REMARK VINA RESULT:      -1.1      3.619      4.187
REMARK  1 active torsions:
REMARK  status: ('A' for Active; 'I' for Inactive)
REMARK    1  A    between atoms: C_1  and  O_3 
ROOT
HETATM    1  H   UNL     1     -32.581  -8.873 -10.701  1.00  0.00     0.271 HD
HETATM    2  H   UNL     1     -33.215  -9.012  -9.230  1.00  0.00     0.271 HD
HETATM    3  H   UNL     1     -33.524 -10.130 -10.369  1.00  0.00     0.271 HD
HETATM    4  H   UNL     1     -34.295  -8.590 -10.510  1.00  0.00     0.271 HD
HETATM    5  N   UNL     2     -33.473  -9.095 -10.213  1.00  0.00    -0.084 N 
ENDROOT
TORSDOF 1
BEGIN_RES ARG D 557
REMARK  4 active torsions:
REMARK  status: ('A' for Active; 'I' for Inactive)
REMARK    1  A    between atoms: CA   and  CB  
REMARK    2  A    between atoms: CB   and  CG  
REMARK    3  A    between atoms: CG   and  CD  
REMARK    4  A    between atoms: CD   and  NE  
REMARK       I    between atoms: NE   and  CZ  
REMARK       I    between atoms: CZ   and  NH1 
REMARK       I    between atoms: CZ   and  NH2 
ROOT
ATOM      1  CA  ARG D 557     -26.217   2.705 -17.014  1.00 35.49     0.159 C 
ENDROOT
BRANCH   1   2
ATOM      2  CB  ARG D 557     -26.789   1.319 -17.183  1.00 35.49     0.034 C 
BRANCH   2   3
ATOM      3  CG  ARG D 557     -25.834   0.204 -17.172  1.00 35.49     0.027 C 
BRANCH   3   4
ATOM      4  CD  ARG D 557     -24.745   0.404 -16.189  1.00 35.49     0.116 C 
BRANCH   4   5
ATOM      5  NE  ARG D 557     -24.895  -0.441 -15.034  1.00 35.49    -0.212 N 
ATOM      6  CZ  ARG D 557     -24.076  -1.405 -14.676  1.00 35.49     0.666 C 
ATOM      7  NH1 ARG D 557     -22.999  -1.716 -15.373  1.00 35.49    -0.235 N 
ATOM      8  NH2 ARG D 557     -24.357  -2.056 -13.585  1.00 35.49    -0.235 N 
ATOM      9  HH  ARG D 557     -22.794  -1.299 -16.093  1.00 35.49     0.174 HD
ATOM     10  HH  ARG D 557     -22.500  -2.352 -15.089  1.00 35.49     0.174 HD
ATOM     11  HH  ARG D 557     -25.055  -1.828 -13.151  1.00 35.49     0.174 HD
ATOM     12  HH  ARG D 557     -23.850  -2.682 -13.319  1.00 35.49     0.174 HD
ATOM     13  HE  ARG D 557     -25.601  -0.358 -14.567  1.00 35.49     0.178 HD
ENDBRANCH   4   5
ENDBRANCH   3   4
ENDBRANCH   2   3
ENDBRANCH   1   2
END_RES ARG D 557
BEGIN_RES GLU D 570
REMARK  3 active torsions:
REMARK  status: ('A' for Active; 'I' for Inactive)
REMARK    5  A    between atoms: CA   and  CB  
REMARK    6  A    between atoms: CB   and  CG  
REMARK    7  A    between atoms: CG   and  CD  
ROOT
ATOM     14  CA  GLU D 570     -18.033  -6.348 -13.375  1.00 32.92     0.160 C 
ENDROOT
BRANCH  14  15
ATOM     15  CB  GLU D 570     -19.500  -6.345 -13.794  1.00 32.92     0.043 C 
BRANCH  15  16
ATOM     16  CG  GLU D 570     -20.439  -5.518 -12.993  1.00 32.92     0.100 C 
BRANCH  16  17
ATOM     17  CD  GLU D 570     -21.732  -5.225 -13.718  1.00 32.92     0.185 C 
ATOM     18  OE1 GLU D 570     -22.174  -6.061 -14.529  1.00 32.92    -0.647 OA
ATOM     19  OE2 GLU D 570     -22.300  -4.140 -13.485  1.00 32.92    -0.647 OA
ENDBRANCH  16  17
ENDBRANCH  15  16
ENDBRANCH  14  15
END_RES GLU D 570
ENDMDL
MODEL 3
REMARK VINA RESULT:      -1.1      2.187      2.778
REMARK  1 active torsions:
REMARK  status: ('A' for Active; 'I' for Inactive)
REMARK    1  A    between atoms: C_1  and  O_3 
ROOT
HETATM    1  H   UNL     1     -24.555  -3.306  -9.199  1.00  0.00     0.271 HD
HETATM    2  H   UNL     1     -25.136  -3.830 -10.603  1.00  0.00     0.271 HD
HETATM    3  H   UNL     1     -25.892  -2.641  -9.792  1.00  0.00     0.271 HD
HETATM    4  H   UNL     1     -26.024  -4.254  -9.183  1.00  0.00     0.271 HD
HETATM    5  N   UNL     2     -25.444  -3.580  -9.664  1.00  0.00    -0.084 N 
ENDROOT
TORSDOF 1
BEGIN_RES ARG D 557
REMARK  4 active torsions:
REMARK  status: ('A' for Active; 'I' for Inactive)
REMARK    1  A    between atoms: CA   and  CB  
REMARK    2  A    between atoms: CB   and  CG  
REMARK    3  A    between atoms: CG   and  CD  
REMARK    4  A    between atoms: CD   and  NE  
REMARK       I    between atoms: NE   and  CZ  
REMARK       I    between atoms: CZ   and  NH1 
REMARK       I    between atoms: CZ   and  NH2 
ROOT
ATOM      1  CA  ARG D 557     -26.217   2.705 -17.014  1.00 35.49     0.159 C 
ENDROOT
BRANCH   1   2
ATOM      2  CB  ARG D 557     -26.789   1.319 -17.183  1.00 35.49     0.034 C 
BRANCH   2   3
ATOM      3  CG  ARG D 557     -25.835   0.204 -17.163  1.00 35.49     0.027 C 
BRANCH   3   4
ATOM      4  CD  ARG D 557     -24.749   0.408 -16.177  1.00 35.49     0.116 C 
BRANCH   4   5
ATOM      5  NE  ARG D 557     -24.899  -0.439 -15.022  1.00 35.49    -0.212 N 
ATOM      6  CZ  ARG D 557     -24.085  -1.409 -14.670  1.00 35.49     0.666 C 
ATOM      7  NH1 ARG D 557     -23.014  -1.727 -15.374  1.00 35.49    -0.235 N 
ATOM      8  NH2 ARG D 557     -24.364  -2.060 -13.579  1.00 35.49    -0.235 N 
ATOM      9  HH  ARG D 557     -22.810  -1.310 -16.094  1.00 35.49     0.174 HD
ATOM     10  HH  ARG D 557     -22.519  -2.367 -15.094  1.00 35.49     0.174 HD
ATOM     11  HH  ARG D 557     -25.058  -1.828 -13.141  1.00 35.49     0.174 HD
ATOM     12  HH  ARG D 557     -23.861  -2.690 -13.317  1.00 35.49     0.174 HD
ATOM     13  HE  ARG D 557     -25.602  -0.351 -14.551  1.00 35.49     0.178 HD
ENDBRANCH   4   5
ENDBRANCH   3   4
ENDBRANCH   2   3
ENDBRANCH   1   2
END_RES ARG D 557
BEGIN_RES GLU D 570
REMARK  3 active torsions:
REMARK  status: ('A' for Active; 'I' for Inactive)
REMARK    5  A    between atoms: CA   and  CB  
REMARK    6  A    between atoms: CB   and  CG  
REMARK    7  A    between atoms: CG   and  CD  
ROOT
ATOM     14  CA  GLU D 570     -18.033  -6.348 -13.375  1.00 32.92     0.160 C 
ENDROOT
BRANCH  14  15
ATOM     15  CB  GLU D 570     -19.500  -6.345 -13.794  1.00 32.92     0.043 C 
BRANCH  15  16
ATOM     16  CG  GLU D 570     -20.441  -5.529 -12.984  1.00 32.92     0.100 C 
BRANCH  16  17
ATOM     17  CD  GLU D 570     -21.741  -5.244 -13.701  1.00 32.92     0.185 C 
ATOM     18  OE1 GLU D 570     -22.312  -4.153 -13.508  1.00 32.92    -0.647 OA
ATOM     19  OE2 GLU D 570     -22.201  -6.127 -14.451  1.00 32.92    -0.647 OA
ENDBRANCH  16  17
ENDBRANCH  15  16
ENDBRANCH  14  15
END_RES GLU D 570
ENDMDL
MODEL 4
REMARK VINA RESULT:      -1.0      4.162      5.306
REMARK  1 active torsions:
REMARK  status: ('A' for Active; 'I' for Inactive)
REMARK    1  A    between atoms: C_1  and  O_3 
ROOT
HETATM    1  H   UNL     1     -11.158   6.586 -13.417  1.00  0.00     0.271 HD
HETATM    2  H   UNL     1     -11.468   5.136 -14.040  1.00  0.00     0.271 HD
HETATM    3  H   UNL     1     -12.592   5.909 -13.155  1.00  0.00     0.271 HD
HETATM    4  H   UNL     1     -11.238   5.220 -12.330  1.00  0.00     0.271 HD
HETATM    5  N   UNL     2     -11.573   5.664 -13.173  1.00  0.00    -0.084 N 
ENDROOT
TORSDOF 1
BEGIN_RES ARG D 557
REMARK  4 active torsions:
REMARK  status: ('A' for Active; 'I' for Inactive)
REMARK    1  A    between atoms: CA   and  CB  
REMARK    2  A    between atoms: CB   and  CG  
REMARK    3  A    between atoms: CG   and  CD  
REMARK    4  A    between atoms: CD   and  NE  
REMARK       I    between atoms: NE   and  CZ  
REMARK       I    between atoms: CZ   and  NH1 
REMARK       I    between atoms: CZ   and  NH2 
ROOT
ATOM      1  CA  ARG D 557     -26.217   2.705 -17.014  1.00 35.49     0.159 C 
ENDROOT
BRANCH   1   2
ATOM      2  CB  ARG D 557     -26.789   1.319 -17.183  1.00 35.49     0.034 C 
BRANCH   2   3
ATOM      3  CG  ARG D 557     -25.835   0.203 -17.160  1.00 35.49     0.027 C 
BRANCH   3   4
ATOM      4  CD  ARG D 557     -24.748   0.411 -16.176  1.00 35.49     0.116 C 
BRANCH   4   5
ATOM      5  NE  ARG D 557     -24.896  -0.433 -15.019  1.00 35.49    -0.212 N 
ATOM      6  CZ  ARG D 557     -24.084  -1.406 -14.670  1.00 35.49     0.666 C 
ATOM      7  NH1 ARG D 557     -23.018  -1.730 -15.379  1.00 35.49    -0.235 N 
ATOM      8  NH2 ARG D 557     -24.361  -2.055 -13.576  1.00 35.49    -0.235 N 
ATOM      9  HH  ARG D 557     -22.816  -1.315 -16.100  1.00 35.49     0.174 HD
ATOM     10  HH  ARG D 557     -22.524  -2.372 -15.100  1.00 35.49     0.174 HD
ATOM     11  HH  ARG D 557     -25.051  -1.819 -13.134  1.00 35.49     0.174 HD
ATOM     12  HH  ARG D 557     -23.858  -2.686 -13.316  1.00 35.49     0.174 HD
ATOM     13  HE  ARG D 557     -25.596  -0.342 -14.545  1.00 35.49     0.178 HD
ENDBRANCH   4   5
ENDBRANCH   3   4
ENDBRANCH   2   3
ENDBRANCH   1   2
END_RES ARG D 557
BEGIN_RES GLU D 570
REMARK  3 active torsions:
REMARK  status: ('A' for Active; 'I' for Inactive)
REMARK    5  A    between atoms: CA   and  CB  
REMARK    6  A    between atoms: CB   and  CG  
REMARK    7  A    between atoms: CG   and  CD  
ROOT
ATOM     14  CA  GLU D 570     -18.033  -6.348 -13.375  1.00 32.92     0.160 C 
ENDROOT
BRANCH  14  15
ATOM     15  CB  GLU D 570     -19.500  -6.345 -13.794  1.00 32.92     0.043 C 
BRANCH  15  16
ATOM     16  CG  GLU D 570     -20.442  -5.533 -12.982  1.00 32.92     0.100 C 
BRANCH  16  17
ATOM     17  CD  GLU D 570     -21.737  -5.237 -13.702  1.00 32.92     0.185 C 
ATOM     18  OE1 GLU D 570     -22.308  -4.148 -13.497  1.00 32.92    -0.647 OA
ATOM     19  OE2 GLU D 570     -22.194  -6.110 -14.465  1.00 32.92    -0.647 OA
ENDBRANCH  16  17
ENDBRANCH  15  16
ENDBRANCH  14  15
END_RES GLU D 570
ENDMDL
MODEL 5
REMARK VINA RESULT:      -1.0      4.934      6.146
REMARK  1 active torsions:
REMARK  status: ('A' for Active; 'I' for Inactive)
REMARK    1  A    between atoms: C_1  and  O_3 
ROOT
HETATM    1  H   UNL     1     -33.785  -5.527  -1.967  1.00  0.00     0.271 HD
HETATM    2  H   UNL     1     -35.342  -5.483  -1.569  1.00  0.00     0.271 HD
HETATM    3  H   UNL     1     -34.270  -4.531  -0.803  1.00  0.00     0.271 HD
HETATM    4  H   UNL     1     -34.266  -6.221  -0.437  1.00  0.00     0.271 HD
HETATM    5  N   UNL     2     -34.417  -5.513  -1.141  1.00  0.00    -0.084 N 
ENDROOT
TORSDOF 1
BEGIN_RES ARG D 557
REMARK  4 active torsions:
REMARK  status: ('A' for Active; 'I' for Inactive)
REMARK    1  A    between atoms: CA   and  CB  
REMARK    2  A    between atoms: CB   and  CG  
REMARK    3  A    between atoms: CG   and  CD  
REMARK    4  A    between atoms: CD   and  NE  
REMARK       I    between atoms: NE   and  CZ  
REMARK       I    between atoms: CZ   and  NH1 
REMARK       I    between atoms: CZ   and  NH2 
ROOT
ATOM      1  CA  ARG D 557     -26.217   2.705 -17.014  1.00 35.49     0.159 C 
ENDROOT
BRANCH   1   2
ATOM      2  CB  ARG D 557     -26.789   1.319 -17.183  1.00 35.49     0.034 C 
BRANCH   2   3
ATOM      3  CG  ARG D 557     -25.836   0.203 -17.156  1.00 35.49     0.027 C 
BRANCH   3   4
ATOM      4  CD  ARG D 557     -24.747   0.414 -16.174  1.00 35.49     0.116 C 
BRANCH   4   5
ATOM      5  NE  ARG D 557     -24.888  -0.431 -15.018  1.00 35.49    -0.212 N 
ATOM      6  CZ  ARG D 557     -24.072  -1.403 -14.674  1.00 35.49     0.666 C 
ATOM      7  NH1 ARG D 557     -23.009  -1.723 -15.387  1.00 35.49    -0.235 N 
ATOM      8  NH2 ARG D 557     -24.343  -2.054 -13.580  1.00 35.49    -0.235 N 
ATOM      9  HH  ARG D 557     -22.811  -1.306 -16.110  1.00 35.49     0.174 HD
ATOM     10  HH  ARG D 557     -22.512  -2.364 -15.112  1.00 35.49     0.174 HD
ATOM     11  HH  ARG D 557     -25.032  -1.820 -13.135  1.00 35.49     0.174 HD
ATOM     12  HH  ARG D 557     -23.838  -2.684 -13.323  1.00 35.49     0.174 HD
ATOM     13  HE  ARG D 557     -25.586  -0.342 -14.541  1.00 35.49     0.178 HD
ENDBRANCH   4   5
ENDBRANCH   3   4
ENDBRANCH   2   3
ENDBRANCH   1   2
END_RES ARG D 557
BEGIN_RES GLU D 570
REMARK  3 active torsions:
REMARK  status: ('A' for Active; 'I' for Inactive)
REMARK    5  A    between atoms: CA   and  CB  
REMARK    6  A    between atoms: CB   and  CG  
REMARK    7  A    between atoms: CG   and  CD  
ROOT
ATOM     14  CA  GLU D 570     -18.033  -6.348 -13.375  1.00 32.92     0.160 C 
ENDROOT
BRANCH  14  15
ATOM     15  CB  GLU D 570     -19.500  -6.345 -13.794  1.00 32.92     0.043 C 
BRANCH  15  16
ATOM     16  CG  GLU D 570     -20.443  -5.536 -12.979  1.00 32.92     0.100 C 
BRANCH  16  17
ATOM     17  CD  GLU D 570     -21.743  -5.250 -13.694  1.00 32.92     0.185 C 
ATOM     18  OE1 GLU D 570     -22.231  -6.124 -14.435  1.00 32.92    -0.647 OA
ATOM     19  OE2 GLU D 570     -22.271  -4.133 -13.523  1.00 32.92    -0.647 OA
ENDBRANCH  16  17
ENDBRANCH  15  16
ENDBRANCH  14  15
END_RES GLU D 570
ENDMDL
MODEL 6
REMARK VINA RESULT:      -1.0      3.489      4.568
REMARK  1 active torsions:
REMARK  status: ('A' for Active; 'I' for Inactive)
REMARK    1  A    between atoms: C_1  and  O_3 
ROOT
HETATM    1  H   UNL     1     -25.274  -0.996 -14.619  1.00  0.00     0.271 HD
HETATM    2  H   UNL     1     -25.119   0.047 -15.833  1.00  0.00     0.271 HD
HETATM    3  H   UNL     1     -23.927  -1.006 -15.495  1.00  0.00     0.271 HD
HETATM    4  H   UNL     1     -24.156   0.334 -14.428  1.00  0.00     0.271 HD
HETATM    5  N   UNL     2     -24.594  -0.334 -15.046  1.00  0.00    -0.084 N 
ENDROOT
TORSDOF 1
BEGIN_RES ARG D 557
REMARK  4 active torsions:
REMARK  status: ('A' for Active; 'I' for Inactive)
REMARK    1  A    between atoms: CA   and  CB  
REMARK    2  A    between atoms: CB   and  CG  
REMARK    3  A    between atoms: CG   and  CD  
REMARK    4  A    between atoms: CD   and  NE  
REMARK       I    between atoms: NE   and  CZ  
REMARK       I    between atoms: CZ   and  NH1 
REMARK       I    between atoms: CZ   and  NH2 
ROOT
ATOM      1  CA  ARG D 557     -26.217   2.705 -17.014  1.00 35.49     0.159 C 
ENDROOT
BRANCH   1   2
ATOM      2  CB  ARG D 557     -26.789   1.319 -17.183  1.00 35.49     0.034 C 
BRANCH   2   3
ATOM      3  CG  ARG D 557     -28.234   1.225 -17.421  1.00 35.49     0.027 C 
BRANCH   3   4
ATOM      4  CD  ARG D 557     -28.902   0.294 -16.483  1.00 35.49     0.116 C 
BRANCH   4   5
ATOM      5  NE  ARG D 557     -29.283  -0.938 -17.122  1.00 35.49    -0.212 N 
ATOM      6  CZ  ARG D 557     -28.645  -2.083 -17.026  1.00 35.49     0.666 C 
ATOM      7  NH1 ARG D 557     -27.539  -2.221 -16.318  1.00 35.49    -0.235 N 
ATOM      8  NH2 ARG D 557     -29.146  -3.105 -17.656  1.00 35.49    -0.235 N 
ATOM      9  HH  ARG D 557     -27.193  -1.563 -15.893  1.00 35.49     0.174 HD
ATOM     10  HH  ARG D 557     -27.168  -2.993 -16.289  1.00 35.49     0.174 HD
ATOM     11  HH  ARG D 557     -29.866  -2.988 -18.100  1.00 35.49     0.174 HD
ATOM     12  HH  ARG D 557     -28.765  -3.861 -17.615  1.00 35.49     0.174 HD
ATOM     13  HE  ARG D 557     -29.944  -0.923 -17.657  1.00 35.49     0.178 HD
ENDBRANCH   4   5
ENDBRANCH   3   4
ENDBRANCH   2   3
ENDBRANCH   1   2
END_RES ARG D 557
BEGIN_RES GLU D 570
REMARK  3 active torsions:
REMARK  status: ('A' for Active; 'I' for Inactive)
REMARK    5  A    between atoms: CA   and  CB  
REMARK    6  A    between atoms: CB   and  CG  
REMARK    7  A    between atoms: CG   and  CD  
ROOT
ATOM     14  CA  GLU D 570     -18.033  -6.348 -13.375  1.00 32.92     0.160 C 
ENDROOT
BRANCH  14  15
ATOM     15  CB  GLU D 570     -19.500  -6.345 -13.794  1.00 32.92     0.043 C 
BRANCH  15  16
ATOM     16  CG  GLU D 570     -20.443  -5.537 -12.978  1.00 32.92     0.100 C 
BRANCH  16  17
ATOM     17  CD  GLU D 570     -21.731  -5.224 -13.704  1.00 32.92     0.185 C 
ATOM     18  OE1 GLU D 570     -22.157  -6.029 -14.554  1.00 32.92    -0.647 OA
ATOM     19  OE2 GLU D 570     -22.311  -4.155 -13.431  1.00 32.92    -0.647 OA
ENDBRANCH  16  17
ENDBRANCH  15  16
ENDBRANCH  14  15
END_RES GLU D 570
ENDMDL
MODEL 7
REMARK VINA RESULT:      -1.0      2.644      2.644
REMARK  1 active torsions:
REMARK  status: ('A' for Active; 'I' for Inactive)
REMARK    1  A    between atoms: C_1  and  O_3 
ROOT
HETATM    1  H   UNL     1     -30.090  -9.015 -19.567  1.00  0.00     0.271 HD
HETATM    2  H   UNL     1     -29.470  -7.565 -19.256  1.00  0.00     0.271 HD
HETATM    3  H   UNL     1     -28.637  -8.913 -18.889  1.00  0.00     0.271 HD
HETATM    4  H   UNL     1     -29.994  -8.499 -17.900  1.00  0.00     0.271 HD
HETATM    5  N   UNL     2     -29.591  -8.482 -18.826  1.00  0.00    -0.084 N 
ENDROOT
TORSDOF 1
BEGIN_RES ARG D 557
REMARK  4 active torsions:
REMARK  status: ('A' for Active; 'I' for Inactive)
REMARK    1  A    between atoms: CA   and  CB  
REMARK    2  A    between atoms: CB   and  CG  
REMARK    3  A    between atoms: CG   and  CD  
REMARK    4  A    between atoms: CD   and  NE  
REMARK       I    between atoms: NE   and  CZ  
REMARK       I    between atoms: CZ   and  NH1 
REMARK       I    between atoms: CZ   and  NH2 
ROOT
ATOM      1  CA  ARG D 557     -26.217   2.705 -17.014  1.00 35.49     0.159 C 
ENDROOT
BRANCH   1   2
ATOM      2  CB  ARG D 557     -26.789   1.319 -17.183  1.00 35.49     0.034 C 
BRANCH   2   3
ATOM      3  CG  ARG D 557     -25.835   0.203 -17.159  1.00 35.49     0.027 C 
BRANCH   3   4
ATOM      4  CD  ARG D 557     -24.748   0.411 -16.175  1.00 35.49     0.116 C 
BRANCH   4   5
ATOM      5  NE  ARG D 557     -24.896  -0.433 -15.018  1.00 35.49    -0.212 N 
ATOM      6  CZ  ARG D 557     -24.084  -1.405 -14.669  1.00 35.49     0.666 C 
ATOM      7  NH1 ARG D 557     -23.018  -1.729 -15.378  1.00 35.49    -0.235 N 
ATOM      8  NH2 ARG D 557     -24.360  -2.054 -13.575  1.00 35.49    -0.235 N 
ATOM      9  HH  ARG D 557     -22.816  -1.314 -16.100  1.00 35.49     0.174 HD
ATOM     10  HH  ARG D 557     -22.524  -2.371 -15.099  1.00 35.49     0.174 HD
ATOM     11  HH  ARG D 557     -25.051  -1.818 -13.133  1.00 35.49     0.174 HD
ATOM     12  HH  ARG D 557     -23.858  -2.685 -13.315  1.00 35.49     0.174 HD
ATOM     13  HE  ARG D 557     -25.595  -0.341 -14.544  1.00 35.49     0.178 HD
ENDBRANCH   4   5
ENDBRANCH   3   4
ENDBRANCH   2   3
ENDBRANCH   1   2
END_RES ARG D 557
BEGIN_RES GLU D 570
REMARK  3 active torsions:
REMARK  status: ('A' for Active; 'I' for Inactive)
REMARK    5  A    between atoms: CA   and  CB  
REMARK    6  A    between atoms: CB   and  CG  
REMARK    7  A    between atoms: CG   and  CD  
ROOT
ATOM     14  CA  GLU D 570     -18.033  -6.348 -13.375  1.00 32.92     0.160 C 
ENDROOT
BRANCH  14  15
ATOM     15  CB  GLU D 570     -19.500  -6.345 -13.794  1.00 32.92     0.043 C 
BRANCH  15  16
ATOM     16  CG  GLU D 570     -20.442  -5.533 -12.981  1.00 32.92     0.100 C 
BRANCH  16  17
ATOM     17  CD  GLU D 570     -21.740  -5.242 -13.699  1.00 32.92     0.185 C 
ATOM     18  OE1 GLU D 570     -22.297  -4.142 -13.519  1.00 32.92    -0.647 OA
ATOM     19  OE2 GLU D 570     -22.212  -6.130 -14.436  1.00 32.92    -0.647 OA
ENDBRANCH  16  17
ENDBRANCH  15  16
ENDBRANCH  14  15
END_RES GLU D 570
ENDMDL
MODEL 8
REMARK VINA RESULT:      -1.0      3.712      4.327
REMARK  1 active torsions:
REMARK  status: ('A' for Active; 'I' for Inactive)
REMARK    1  A    between atoms: C_1  and  O_3 
ROOT
HETATM    1  H   UNL     1     -21.530  -6.385  -1.636  1.00  0.00     0.271 HD
HETATM    2  H   UNL     1     -22.491  -6.340  -2.924  1.00  0.00     0.271 HD
HETATM    3  H   UNL     1     -21.838  -4.972  -2.336  1.00  0.00     0.271 HD
HETATM    4  H   UNL     1     -23.129  -5.705  -1.450  1.00  0.00     0.271 HD
HETATM    5  N   UNL     2     -22.325  -5.853  -2.043  1.00  0.00    -0.084 N 
ENDROOT
TORSDOF 1
BEGIN_RES ARG D 557
REMARK  4 active torsions:
REMARK  status: ('A' for Active; 'I' for Inactive)
REMARK    1  A    between atoms: CA   and  CB  
REMARK    2  A    between atoms: CB   and  CG  
REMARK    3  A    between atoms: CG   and  CD  
REMARK    4  A    between atoms: CD   and  NE  
REMARK       I    between atoms: NE   and  CZ  
REMARK       I    between atoms: CZ   and  NH1 
REMARK       I    between atoms: CZ   and  NH2 
ROOT
ATOM      1  CA  ARG D 557     -26.217   2.705 -17.014  1.00 35.49     0.159 C 
ENDROOT
BRANCH   1   2
ATOM      2  CB  ARG D 557     -26.789   1.319 -17.183  1.00 35.49     0.034 C 
BRANCH   2   3
ATOM      3  CG  ARG D 557     -25.836   0.203 -17.157  1.00 35.49     0.027 C 
BRANCH   3   4
ATOM      4  CD  ARG D 557     -24.748   0.413 -16.174  1.00 35.49     0.116 C 
BRANCH   4   5
ATOM      5  NE  ARG D 557     -24.893  -0.432 -15.017  1.00 35.49    -0.212 N 
ATOM      6  CZ  ARG D 557     -24.079  -1.404 -14.670  1.00 35.49     0.666 C 
ATOM      7  NH1 ARG D 557     -23.014  -1.726 -15.380  1.00 35.49    -0.235 N 
ATOM      8  NH2 ARG D 557     -24.354  -2.054 -13.576  1.00 35.49    -0.235 N 
ATOM      9  HH  ARG D 557     -22.814  -1.310 -16.102  1.00 35.49     0.174 HD
ATOM     10  HH  ARG D 557     -22.519  -2.367 -15.103  1.00 35.49     0.174 HD
ATOM     11  HH  ARG D 557     -25.044  -1.819 -13.133  1.00 35.49     0.174 HD
ATOM     12  HH  ARG D 557     -23.850  -2.685 -13.317  1.00 35.49     0.174 HD
ATOM     13  HE  ARG D 557     -25.592  -0.342 -14.542  1.00 35.49     0.178 HD
ENDBRANCH   4   5
ENDBRANCH   3   4
ENDBRANCH   2   3
ENDBRANCH   1   2
END_RES ARG D 557
BEGIN_RES GLU D 570
REMARK  3 active torsions:
REMARK  status: ('A' for Active; 'I' for Inactive)
REMARK    5  A    between atoms: CA   and  CB  
REMARK    6  A    between atoms: CB   and  CG  
REMARK    7  A    between atoms: CG   and  CD  
ROOT
ATOM     14  CA  GLU D 570     -18.033  -6.348 -13.375  1.00 32.92     0.160 C 
ENDROOT
BRANCH  14  15
ATOM     15  CB  GLU D 570     -19.500  -6.345 -13.794  1.00 32.92     0.043 C 
BRANCH  15  16
ATOM     16  CG  GLU D 570     -20.443  -5.536 -12.979  1.00 32.92     0.100 C 
BRANCH  16  17
ATOM     17  CD  GLU D 570     -21.740  -5.242 -13.697  1.00 32.92     0.185 C 
ATOM     18  OE1 GLU D 570     -22.301  -4.146 -13.507  1.00 32.92    -0.647 OA
ATOM     19  OE2 GLU D 570     -22.208  -6.124 -14.444  1.00 32.92    -0.647 OA
ENDBRANCH  16  17
ENDBRANCH  15  16
ENDBRANCH  14  15
END_RES GLU D 570
ENDMDL
MODEL 9
REMARK VINA RESULT:      -0.8      2.356      4.925
REMARK  1 active torsions:
REMARK  status: ('A' for Active; 'I' for Inactive)
REMARK    1  A    between atoms: C_1  and  O_3 
ROOT
HETATM    1  H   UNL     1     -25.649   6.326  -9.554  1.00  0.00     0.271 HD
HETATM    2  H   UNL     1     -25.009   5.146 -10.440  1.00  0.00     0.271 HD
HETATM    3  H   UNL     1     -26.614   5.410 -10.455  1.00  0.00     0.271 HD
HETATM    4  H   UNL     1     -25.923   4.675  -9.051  1.00  0.00     0.271 HD
HETATM    5  N   UNL     2     -25.791   5.328  -9.810  1.00  0.00    -0.084 N 
ENDROOT
TORSDOF 1
BEGIN_RES ARG D 557
REMARK  4 active torsions:
REMARK  status: ('A' for Active; 'I' for Inactive)
REMARK    1  A    between atoms: CA   and  CB  
REMARK    2  A    between atoms: CB   and  CG  
REMARK    3  A    between atoms: CG   and  CD  
REMARK    4  A    between atoms: CD   and  NE  
REMARK       I    between atoms: NE   and  CZ  
REMARK       I    between atoms: CZ   and  NH1 
REMARK       I    between atoms: CZ   and  NH2 
ROOT
ATOM      1  CA  ARG D 557     -26.217   2.705 -17.014  1.00 35.49     0.159 C 
ENDROOT
BRANCH   1   2
ATOM      2  CB  ARG D 557     -26.789   1.319 -17.183  1.00 35.49     0.034 C 
BRANCH   2   3
ATOM      3  CG  ARG D 557     -25.835   0.203 -17.161  1.00 35.49     0.027 C 
BRANCH   3   4
ATOM      4  CD  ARG D 557     -24.747   0.411 -16.178  1.00 35.49     0.116 C 
BRANCH   4   5
ATOM      5  NE  ARG D 557     -24.893  -0.433 -15.021  1.00 35.49    -0.212 N 
ATOM      6  CZ  ARG D 557     -24.081  -1.405 -14.672  1.00 35.49     0.666 C 
ATOM      7  NH1 ARG D 557     -23.015  -1.728 -15.382  1.00 35.49    -0.235 N 
ATOM      8  NH2 ARG D 557     -24.356  -2.054 -13.578  1.00 35.49    -0.235 N 
ATOM      9  HH  ARG D 557     -22.814  -1.313 -16.104  1.00 35.49     0.174 HD
ATOM     10  HH  ARG D 557     -22.520  -2.370 -15.104  1.00 35.49     0.174 HD
ATOM     11  HH  ARG D 557     -25.046  -1.818 -13.136  1.00 35.49     0.174 HD
ATOM     12  HH  ARG D 557     -23.853  -2.685 -13.319  1.00 35.49     0.174 HD
ATOM     13  HE  ARG D 557     -25.593  -0.342 -14.547  1.00 35.49     0.178 HD
ENDBRANCH   4   5
ENDBRANCH   3   4
ENDBRANCH   2   3
ENDBRANCH   1   2
END_RES ARG D 557
BEGIN_RES GLU D 570
REMARK  3 active torsions:
REMARK  status: ('A' for Active; 'I' for Inactive)
REMARK    5  A    between atoms: CA   and  CB  
REMARK    6  A    between atoms: CB   and  CG  
REMARK    7  A    between atoms: CG   and  CD  
ROOT
ATOM     14  CA  GLU D 570     -18.033  -6.348 -13.375  1.00 32.92     0.160 C 
ENDROOT
BRANCH  14  15
ATOM     15  CB  GLU D 570     -19.500  -6.345 -13.794  1.00 32.92     0.043 C 
BRANCH  15  16
ATOM     16  CG  GLU D 570     -20.442  -5.534 -12.981  1.00 32.92     0.100 C 
BRANCH  16  17
ATOM     17  CD  GLU D 570     -21.744  -5.251 -13.695  1.00 32.92     0.185 C 
ATOM     18  OE1 GLU D 570     -22.233  -6.128 -14.432  1.00 32.92    -0.647 OA
ATOM     19  OE2 GLU D 570     -22.271  -4.133 -13.528  1.00 32.92    -0.647 OA
ENDBRANCH  16  17
ENDBRANCH  15  16
ENDBRANCH  14  15
END_RES GLU D 570
ENDMDL
