MODEL 1
REMARK VINA RESULT:      -7.3      0.000      0.000
REMARK  17 active torsions:
REMARK  status: ('A' for Active; 'I' for Inactive)
REMARK    1  A    between atoms: C_2  and  C_3 
REMARK    2  A    between atoms: C_3  and  C_4 
REMARK    3  A    between atoms: C_4  and  C_5 
REMARK    4  A    between atoms: C_5  and  C_6 
REMARK    5  A    between atoms: C_6  and  C_7 
REMARK    6  A    between atoms: C_7  and  C_8 
REMARK    7  A    between atoms: C_8  and  C_9 
REMARK    8  A    between atoms: C_9  and  C_10 
REMARK    9  A    between atoms: C_10  and  C_11 
REMARK   10  A    between atoms: C_11  and  C_12 
REMARK   11  A    between atoms: C_12  and  C_13 
REMARK   12  A    between atoms: C_13  and  C_14 
REMARK   13  A    between atoms: C_14  and  C_15 
REMARK   14  A    between atoms: C_15  and  C_16 
REMARK   15  A    between atoms: C_16  and  N_17 
REMARK   16  A    between atoms: N_17  and  C_20 
REMARK   17  A    between atoms: C_20  and  C_21 
ROOT
HETATM    1  C   UNL     1     -19.499  -4.785  -7.161  1.00  0.00     0.000 C 
ENDROOT
BRANCH   1   2
HETATM    2  C   UNL     1     -20.206  -5.046  -5.842  1.00  0.00     0.000 C 
BRANCH   2   3
HETATM    3  C   UNL     1     -21.636  -5.487  -6.117  1.00  0.00     0.000 C 
BRANCH   3   4
HETATM    4  C   UNL     1     -22.108  -6.447  -5.041  1.00  0.00     0.000 C 
BRANCH   4   5
HETATM    5  C   UNL     1     -21.173  -6.394  -3.845  1.00  0.00     0.000 C 
BRANCH   5   6
HETATM    6  C   UNL     1     -21.979  -6.263  -2.563  1.00  0.00     0.000 C 
BRANCH   6   7
HETATM    7  C   UNL     1     -21.637  -7.386  -1.600  1.00  0.00     0.000 C 
BRANCH   7   8
HETATM    8  C   UNL     1     -22.497  -7.282  -0.349  1.00  0.00     0.000 C 
BRANCH   8   9
HETATM    9  C   UNL     1     -22.599  -8.635   0.343  1.00  0.00     0.000 C 
BRANCH   9  10
HETATM   10  C   UNL     1     -22.779  -9.745  -0.683  1.00  0.00    -0.000 C 
BRANCH  10  11
HETATM   11  C   UNL     1     -23.920 -10.673  -0.287  1.00  0.00    -0.005 C 
HETATM   12  C   UNL     1     -23.387 -11.967   0.301  1.00  0.00     0.005 C 
ENDBRANCH  10  11
ENDBRANCH   9  10
ENDBRANCH   8   9
ENDBRANCH   7   8
ENDBRANCH   6   7
ENDBRANCH   5   6
ENDBRANCH   4   5
ENDBRANCH   3   4
ENDBRANCH   2   3
ENDBRANCH   1   2
BRANCH   1  13
HETATM   13  C   UNL     1     -20.381  -5.152  -8.348  1.00  0.00     0.000 C 
BRANCH  13  14
HETATM   14  C   UNL     1     -20.634  -3.953  -9.263  1.00  0.00     0.002 C 
BRANCH  14  15
HETATM   15  C   UNL     1     -20.966  -4.314 -10.716  1.00  0.00     0.028 C 
BRANCH  15  16
HETATM   16  C   UNL     1     -21.725  -3.205 -11.455  1.00  0.00     0.237 C 
BRANCH  16  17
HETATM   17  N   UNL     1     -23.179  -3.601 -11.760  1.00  0.00    -0.065 N 
HETATM   18  C   UNL     1     -23.314  -5.013 -12.251  1.00  0.00     0.272 C 
HETATM   19  C   UNL     1     -24.076  -3.332 -10.555  1.00  0.00     0.272 C 
BRANCH  17  20
HETATM   20  C   UNL     1     -23.684  -2.626 -12.922  1.00  0.00     0.349 C 
BRANCH  20  21
HETATM   21  C   UNL     1     -23.647  -3.189 -14.371  1.00  0.00     0.199 C 
HETATM   22  O   UNL     1     -22.560  -2.984 -14.978  1.00  0.00    -0.647 OA
HETATM   23  O   UNL     1     -24.753  -3.651 -14.769  1.00  0.00    -0.647 OA
ENDBRANCH  20  21
ENDBRANCH  17  20
ENDBRANCH  16  17
ENDBRANCH  15  16
ENDBRANCH  14  15
ENDBRANCH  13  14
ENDBRANCH   1  13
TORSDOF 17
BEGIN_RES ARG D 557
REMARK  4 active torsions:
REMARK  status: ('A' for Active; 'I' for Inactive)
REMARK    1  A    between atoms: CA   and  CB  
REMARK    2  A    between atoms: CB   and  CG  
REMARK    3  A    between atoms: CG   and  CD  
REMARK    4  A    between atoms: CD   and  NE  
REMARK       I    between atoms: NE   and  CZ  
REMARK       I    between atoms: CZ   and  NH1 
REMARK       I    between atoms: CZ   and  NH2 
ROOT
ATOM      1  CA  ARG D 557     -26.217   2.705 -17.014  1.00 35.49     0.159 C 
ENDROOT
BRANCH   1   2
ATOM      2  CB  ARG D 557     -26.789   1.319 -17.183  1.00 35.49     0.034 C 
BRANCH   2   3
ATOM      3  CG  ARG D 557     -28.225   1.228 -17.473  1.00 35.49     0.027 C 
BRANCH   3   4
ATOM      4  CD  ARG D 557     -28.915   0.246 -16.604  1.00 35.49     0.116 C 
BRANCH   4   5
ATOM      5  NE  ARG D 557     -28.044  -0.826 -16.200  1.00 35.49    -0.212 N 
ATOM      6  CZ  ARG D 557     -28.137  -2.078 -16.588  1.00 35.49     0.666 C 
ATOM      7  NH1 ARG D 557     -29.082  -2.498 -17.408  1.00 35.49    -0.235 N 
ATOM      8  NH2 ARG D 557     -27.247  -2.914 -16.137  1.00 35.49    -0.235 N 
ATOM      9  HH  ARG D 557     -29.677  -1.966 -17.719  1.00 35.49     0.174 HD
ATOM     10  HH  ARG D 557     -29.091  -3.326 -17.629  1.00 35.49     0.174 HD
ATOM     11  HH  ARG D 557     -26.643  -2.612 -15.615  1.00 35.49     0.174 HD
ATOM     12  HH  ARG D 557     -27.272  -3.729 -16.368  1.00 35.49     0.174 HD
ATOM     13  HE  ARG D 557     -27.450  -0.659 -15.615  1.00 35.49     0.178 HD
ENDBRANCH   4   5
ENDBRANCH   3   4
ENDBRANCH   2   3
ENDBRANCH   1   2
END_RES ARG D 557
BEGIN_RES GLU D 570
REMARK  3 active torsions:
REMARK  status: ('A' for Active; 'I' for Inactive)
REMARK    5  A    between atoms: CA   and  CB  
REMARK    6  A    between atoms: CB   and  CG  
REMARK    7  A    between atoms: CG   and  CD  
ROOT
ATOM     14  CA  GLU D 570     -18.033  -6.348 -13.375  1.00 32.92     0.160 C 
ENDROOT
BRANCH  14  15
ATOM     15  CB  GLU D 570     -19.500  -6.345 -13.794  1.00 32.92     0.043 C 
BRANCH  15  16
ATOM     16  CG  GLU D 570     -20.086  -7.634 -14.243  1.00 32.92     0.100 C 
BRANCH  16  17
ATOM     17  CD  GLU D 570     -21.145  -7.461 -15.307  1.00 32.92     0.185 C 
ATOM     18  OE1 GLU D 570     -21.122  -8.200 -16.310  1.00 32.92    -0.647 OA
ATOM     19  OE2 GLU D 570     -21.997  -6.566 -15.144  1.00 32.92    -0.647 OA
ENDBRANCH  16  17
ENDBRANCH  15  16
ENDBRANCH  14  15
END_RES GLU D 570
ENDMDL
MODEL 2
REMARK VINA RESULT:      -7.2      1.154      1.548
REMARK  17 active torsions:
REMARK  status: ('A' for Active; 'I' for Inactive)
REMARK    1  A    between atoms: C_2  and  C_3 
REMARK    2  A    between atoms: C_3  and  C_4 
REMARK    3  A    between atoms: C_4  and  C_5 
REMARK    4  A    between atoms: C_5  and  C_6 
REMARK    5  A    between atoms: C_6  and  C_7 
REMARK    6  A    between atoms: C_7  and  C_8 
REMARK    7  A    between atoms: C_8  and  C_9 
REMARK    8  A    between atoms: C_9  and  C_10 
REMARK    9  A    between atoms: C_10  and  C_11 
REMARK   10  A    between atoms: C_11  and  C_12 
REMARK   11  A    between atoms: C_12  and  C_13 
REMARK   12  A    between atoms: C_13  and  C_14 
REMARK   13  A    between atoms: C_14  and  C_15 
REMARK   14  A    between atoms: C_15  and  C_16 
REMARK   15  A    between atoms: C_16  and  N_17 
REMARK   16  A    between atoms: N_17  and  C_20 
REMARK   17  A    between atoms: C_20  and  C_21 
ROOT
HETATM    1  C   UNL     1     -20.724  -4.075  -6.936  1.00  0.00     0.000 C 
ENDROOT
BRANCH   1   2
HETATM    2  C   UNL     1     -20.405  -5.074  -5.837  1.00  0.00     0.000 C 
BRANCH   2   3
HETATM    3  C   UNL     1     -21.603  -5.987  -5.623  1.00  0.00     0.000 C 
BRANCH   3   4
HETATM    4  C   UNL     1     -21.348  -6.930  -4.463  1.00  0.00     0.000 C 
BRANCH   4   5
HETATM    5  C   UNL     1     -21.560  -6.208  -3.143  1.00  0.00     0.000 C 
BRANCH   5   6
HETATM    6  C   UNL     1     -21.373  -7.175  -1.987  1.00  0.00     0.000 C 
BRANCH   6   7
HETATM    7  C   UNL     1     -22.347  -6.861  -0.865  1.00  0.00     0.000 C 
BRANCH   7   8
HETATM    8  C   UNL     1     -22.158  -7.843   0.283  1.00  0.00     0.000 C 
BRANCH   8   9
HETATM    9  C   UNL     1     -23.311  -8.835   0.333  1.00  0.00     0.000 C 
BRANCH   9  10
HETATM   10  C   UNL     1     -23.000 -10.055  -0.524  1.00  0.00    -0.000 C 
BRANCH  10  11
HETATM   11  C   UNL     1     -24.054 -11.138  -0.331  1.00  0.00    -0.005 C 
HETATM   12  C   UNL     1     -23.487 -12.313   0.445  1.00  0.00     0.005 C 
ENDBRANCH  10  11
ENDBRANCH   9  10
ENDBRANCH   8   9
ENDBRANCH   7   8
ENDBRANCH   6   7
ENDBRANCH   5   6
ENDBRANCH   4   5
ENDBRANCH   3   4
ENDBRANCH   2   3
ENDBRANCH   1   2
BRANCH   1  13
HETATM   13  C   UNL     1     -19.668  -4.100  -8.034  1.00  0.00     0.000 C 
BRANCH  13  14
HETATM   14  C   UNL     1     -20.287  -4.324  -9.415  1.00  0.00     0.002 C 
BRANCH  14  15
HETATM   15  C   UNL     1     -21.783  -4.000  -9.507  1.00  0.00     0.028 C 
BRANCH  15  16
HETATM   16  C   UNL     1     -22.166  -3.281 -10.807  1.00  0.00     0.237 C 
BRANCH  16  17
HETATM   17  N   UNL     1     -23.236  -4.047 -11.600  1.00  0.00    -0.065 N 
HETATM   18  C   UNL     1     -23.911  -5.120 -10.795  1.00  0.00     0.272 C 
HETATM   19  C   UNL     1     -24.245  -3.082 -12.216  1.00  0.00     0.272 C 
BRANCH  17  20
HETATM   20  C   UNL     1     -22.483  -4.750 -12.822  1.00  0.00     0.349 C 
BRANCH  20  21
HETATM   21  C   UNL     1     -23.360  -5.164 -14.038  1.00  0.00     0.199 C 
HETATM   22  O   UNL     1     -23.944  -6.274 -13.901  1.00  0.00    -0.647 OA
HETATM   23  O   UNL     1     -23.256  -4.390 -15.031  1.00  0.00    -0.647 OA
ENDBRANCH  20  21
ENDBRANCH  17  20
ENDBRANCH  16  17
ENDBRANCH  15  16
ENDBRANCH  14  15
ENDBRANCH  13  14
ENDBRANCH   1  13
TORSDOF 17
BEGIN_RES ARG D 557
REMARK  4 active torsions:
REMARK  status: ('A' for Active; 'I' for Inactive)
REMARK    1  A    between atoms: CA   and  CB  
REMARK    2  A    between atoms: CB   and  CG  
REMARK    3  A    between atoms: CG   and  CD  
REMARK    4  A    between atoms: CD   and  NE  
REMARK       I    between atoms: NE   and  CZ  
REMARK       I    between atoms: CZ   and  NH1 
REMARK       I    between atoms: CZ   and  NH2 
ROOT
ATOM      1  CA  ARG D 557     -26.217   2.705 -17.014  1.00 35.49     0.159 C 
ENDROOT
BRANCH   1   2
ATOM      2  CB  ARG D 557     -26.789   1.319 -17.183  1.00 35.49     0.034 C 
BRANCH   2   3
ATOM      3  CG  ARG D 557     -25.973   0.203 -16.690  1.00 35.49     0.027 C 
BRANCH   3   4
ATOM      4  CD  ARG D 557     -26.786  -0.841 -16.026  1.00 35.49     0.116 C 
BRANCH   4   5
ATOM      5  NE  ARG D 557     -28.038  -1.065 -16.700  1.00 35.49    -0.212 N 
ATOM      6  CZ  ARG D 557     -28.566  -2.237 -16.969  1.00 35.49     0.666 C 
ATOM      7  NH1 ARG D 557     -27.973  -3.373 -16.649  1.00 35.49    -0.235 N 
ATOM      8  NH2 ARG D 557     -29.721  -2.252 -17.570  1.00 35.49    -0.235 N 
ATOM      9  HH  ARG D 557     -27.214  -3.387 -16.252  1.00 35.49     0.174 HD
ATOM     10  HH  ARG D 557     -28.367  -4.107 -16.847  1.00 35.49     0.174 HD
ATOM     11  HH  ARG D 557     -30.084  -1.503 -17.758  1.00 35.49     0.174 HD
ATOM     12  HH  ARG D 557     -30.095  -2.990 -17.756  1.00 35.49     0.174 HD
ATOM     13  HE  ARG D 557     -28.452  -0.389 -17.007  1.00 35.49     0.178 HD
ENDBRANCH   4   5
ENDBRANCH   3   4
ENDBRANCH   2   3
ENDBRANCH   1   2
END_RES ARG D 557
BEGIN_RES GLU D 570
REMARK  3 active torsions:
REMARK  status: ('A' for Active; 'I' for Inactive)
REMARK    5  A    between atoms: CA   and  CB  
REMARK    6  A    between atoms: CB   and  CG  
REMARK    7  A    between atoms: CG   and  CD  
ROOT
ATOM     14  CA  GLU D 570     -18.033  -6.348 -13.375  1.00 32.92     0.160 C 
ENDROOT
BRANCH  14  15
ATOM     15  CB  GLU D 570     -19.500  -6.345 -13.794  1.00 32.92     0.043 C 
BRANCH  15  16
ATOM     16  CG  GLU D 570     -20.021  -7.560 -14.473  1.00 32.92     0.100 C 
BRANCH  16  17
ATOM     17  CD  GLU D 570     -20.812  -7.244 -15.720  1.00 32.92     0.185 C 
ATOM     18  OE1 GLU D 570     -20.597  -6.173 -16.319  1.00 32.92    -0.647 OA
ATOM     19  OE2 GLU D 570     -21.668  -8.070 -16.094  1.00 32.92    -0.647 OA
ENDBRANCH  16  17
ENDBRANCH  15  16
ENDBRANCH  14  15
END_RES GLU D 570
ENDMDL
MODEL 3
REMARK VINA RESULT:      -7.1      1.758      2.607
REMARK  17 active torsions:
REMARK  status: ('A' for Active; 'I' for Inactive)
REMARK    1  A    between atoms: C_2  and  C_3 
REMARK    2  A    between atoms: C_3  and  C_4 
REMARK    3  A    between atoms: C_4  and  C_5 
REMARK    4  A    between atoms: C_5  and  C_6 
REMARK    5  A    between atoms: C_6  and  C_7 
REMARK    6  A    between atoms: C_7  and  C_8 
REMARK    7  A    between atoms: C_8  and  C_9 
REMARK    8  A    between atoms: C_9  and  C_10 
REMARK    9  A    between atoms: C_10  and  C_11 
REMARK   10  A    between atoms: C_11  and  C_12 
REMARK   11  A    between atoms: C_12  and  C_13 
REMARK   12  A    between atoms: C_13  and  C_14 
REMARK   13  A    between atoms: C_14  and  C_15 
REMARK   14  A    between atoms: C_15  and  C_16 
REMARK   15  A    between atoms: C_16  and  N_17 
REMARK   16  A    between atoms: N_17  and  C_20 
REMARK   17  A    between atoms: C_20  and  C_21 
ROOT
HETATM    1  C   UNL     1     -19.372  -4.662  -7.316  1.00  0.00     0.000 C 
ENDROOT
BRANCH   1   2
HETATM    2  C   UNL     1     -20.029  -5.035  -5.998  1.00  0.00     0.000 C 
BRANCH   2   3
HETATM    3  C   UNL     1     -21.515  -5.272  -6.226  1.00  0.00     0.000 C 
BRANCH   3   4
HETATM    4  C   UNL     1     -22.023  -6.362  -5.301  1.00  0.00     0.000 C 
BRANCH   4   5
HETATM    5  C   UNL     1     -20.858  -7.160  -4.741  1.00  0.00     0.000 C 
BRANCH   5   6
HETATM    6  C   UNL     1     -21.130  -8.648  -4.888  1.00  0.00     0.000 C 
BRANCH   6   7
HETATM    7  C   UNL     1     -21.559  -9.246  -3.560  1.00  0.00     0.000 C 
BRANCH   7   8
HETATM    8  C   UNL     1     -20.374  -9.309  -2.607  1.00  0.00     0.000 C 
BRANCH   8   9
HETATM    9  C   UNL     1     -20.343  -8.080  -1.711  1.00  0.00     0.000 C 
BRANCH   9  10
HETATM   10  C   UNL     1     -21.227  -8.289  -0.488  1.00  0.00    -0.000 C 
BRANCH  10  11
HETATM   11  C   UNL     1     -22.456  -7.390  -0.543  1.00  0.00    -0.005 C 
HETATM   12  C   UNL     1     -22.236  -6.232  -1.499  1.00  0.00     0.005 C 
ENDBRANCH  10  11
ENDBRANCH   9  10
ENDBRANCH   8   9
ENDBRANCH   7   8
ENDBRANCH   6   7
ENDBRANCH   5   6
ENDBRANCH   4   5
ENDBRANCH   3   4
ENDBRANCH   2   3
ENDBRANCH   1   2
BRANCH   1  13
HETATM   13  C   UNL     1     -20.238  -5.067  -8.503  1.00  0.00     0.000 C 
BRANCH  13  14
HETATM   14  C   UNL     1     -20.378  -3.933  -9.519  1.00  0.00     0.002 C 
BRANCH  14  15
HETATM   15  C   UNL     1     -20.969  -4.353 -10.871  1.00  0.00     0.028 C 
BRANCH  15  16
HETATM   16  C   UNL     1     -21.871  -3.280 -11.494  1.00  0.00     0.237 C 
BRANCH  16  17
HETATM   17  N   UNL     1     -23.162  -3.876 -12.079  1.00  0.00    -0.065 N 
HETATM   18  C   UNL     1     -24.099  -2.835 -12.619  1.00  0.00     0.272 C 
HETATM   19  C   UNL     1     -22.839  -4.944 -13.121  1.00  0.00     0.272 C 
BRANCH  17  20
HETATM   20  C   UNL     1     -23.902  -4.630 -10.879  1.00  0.00     0.349 C 
BRANCH  20  21
HETATM   21  C   UNL     1     -24.468  -3.738  -9.737  1.00  0.00     0.199 C 
HETATM   22  O   UNL     1     -23.779  -3.753  -8.680  1.00  0.00    -0.647 OA
HETATM   23  O   UNL     1     -25.598  -3.234  -9.992  1.00  0.00    -0.647 OA
ENDBRANCH  20  21
ENDBRANCH  17  20
ENDBRANCH  16  17
ENDBRANCH  15  16
ENDBRANCH  14  15
ENDBRANCH  13  14
ENDBRANCH   1  13
TORSDOF 17
BEGIN_RES ARG D 557
REMARK  4 active torsions:
REMARK  status: ('A' for Active; 'I' for Inactive)
REMARK    1  A    between atoms: CA   and  CB  
REMARK    2  A    between atoms: CB   and  CG  
REMARK    3  A    between atoms: CG   and  CD  
REMARK    4  A    between atoms: CD   and  NE  
REMARK       I    between atoms: NE   and  CZ  
REMARK       I    between atoms: CZ   and  NH1 
REMARK       I    between atoms: CZ   and  NH2 
ROOT
ATOM      1  CA  ARG D 557     -26.217   2.705 -17.014  1.00 35.49     0.159 C 
ENDROOT
BRANCH   1   2
ATOM      2  CB  ARG D 557     -26.789   1.319 -17.183  1.00 35.49     0.034 C 
BRANCH   2   3
ATOM      3  CG  ARG D 557     -28.199   1.137 -16.819  1.00 35.49     0.027 C 
BRANCH   3   4
ATOM      4  CD  ARG D 557     -28.578  -0.291 -16.722  1.00 35.49     0.116 C 
BRANCH   4   5
ATOM      5  NE  ARG D 557     -27.591  -1.067 -16.019  1.00 35.49    -0.212 N 
ATOM      6  CZ  ARG D 557     -27.429  -2.368 -16.110  1.00 35.49     0.666 C 
ATOM      7  NH1 ARG D 557     -28.193  -3.126 -16.874  1.00 35.49    -0.235 N 
ATOM      8  NH2 ARG D 557     -26.467  -2.904 -15.416  1.00 35.49    -0.235 N 
ATOM      9  HH  ARG D 557     -28.831  -2.795 -17.341  1.00 35.49     0.174 HD
ATOM     10  HH  ARG D 557     -28.039  -3.969 -16.896  1.00 35.49     0.174 HD
ATOM     11  HH  ARG D 557     -25.984  -2.389 -14.937  1.00 35.49     0.174 HD
ATOM     12  HH  ARG D 557     -26.329  -3.740 -15.452  1.00 35.49     0.174 HD
ATOM     13  HE  ARG D 557     -27.101  -0.669 -15.449  1.00 35.49     0.178 HD
ENDBRANCH   4   5
ENDBRANCH   3   4
ENDBRANCH   2   3
ENDBRANCH   1   2
END_RES ARG D 557
BEGIN_RES GLU D 570
REMARK  3 active torsions:
REMARK  status: ('A' for Active; 'I' for Inactive)
REMARK    5  A    between atoms: CA   and  CB  
REMARK    6  A    between atoms: CB   and  CG  
REMARK    7  A    between atoms: CG   and  CD  
ROOT
ATOM     14  CA  GLU D 570     -18.033  -6.348 -13.375  1.00 32.92     0.160 C 
ENDROOT
BRANCH  14  15
ATOM     15  CB  GLU D 570     -19.500  -6.345 -13.794  1.00 32.92     0.043 C 
BRANCH  15  16
ATOM     16  CG  GLU D 570     -20.048  -7.597 -14.376  1.00 32.92     0.100 C 
BRANCH  16  17
ATOM     17  CD  GLU D 570     -20.766  -7.373 -15.687  1.00 32.92     0.185 C 
ATOM     18  OE1 GLU D 570     -20.505  -6.352 -16.353  1.00 32.92    -0.647 OA
ATOM     19  OE2 GLU D 570     -21.610  -8.218 -16.043  1.00 32.92    -0.647 OA
ENDBRANCH  16  17
ENDBRANCH  15  16
ENDBRANCH  14  15
END_RES GLU D 570
ENDMDL
MODEL 4
REMARK VINA RESULT:      -6.9      1.166      1.864
REMARK  17 active torsions:
REMARK  status: ('A' for Active; 'I' for Inactive)
REMARK    1  A    between atoms: C_2  and  C_3 
REMARK    2  A    between atoms: C_3  and  C_4 
REMARK    3  A    between atoms: C_4  and  C_5 
REMARK    4  A    between atoms: C_5  and  C_6 
REMARK    5  A    between atoms: C_6  and  C_7 
REMARK    6  A    between atoms: C_7  and  C_8 
REMARK    7  A    between atoms: C_8  and  C_9 
REMARK    8  A    between atoms: C_9  and  C_10 
REMARK    9  A    between atoms: C_10  and  C_11 
REMARK   10  A    between atoms: C_11  and  C_12 
REMARK   11  A    between atoms: C_12  and  C_13 
REMARK   12  A    between atoms: C_13  and  C_14 
REMARK   13  A    between atoms: C_14  and  C_15 
REMARK   14  A    between atoms: C_15  and  C_16 
REMARK   15  A    between atoms: C_16  and  N_17 
REMARK   16  A    between atoms: N_17  and  C_20 
REMARK   17  A    between atoms: C_20  and  C_21 
ROOT
HETATM    1  C   UNL     1     -20.384  -5.171  -5.409  1.00  0.00     0.000 C 
ENDROOT
BRANCH   1   2
HETATM    2  C   UNL     1     -21.748  -5.830  -5.521  1.00  0.00     0.000 C 
BRANCH   2   3
HETATM    3  C   UNL     1     -21.964  -6.746  -4.327  1.00  0.00     0.000 C 
BRANCH   3   4
HETATM    4  C   UNL     1     -21.362  -6.134  -3.076  1.00  0.00     0.000 C 
BRANCH   4   5
HETATM    5  C   UNL     1     -22.270  -6.378  -1.883  1.00  0.00     0.000 C 
BRANCH   5   6
HETATM    6  C   UNL     1     -21.685  -7.469  -1.001  1.00  0.00     0.000 C 
BRANCH   6   7
HETATM    7  C   UNL     1     -22.670  -7.862   0.086  1.00  0.00     0.000 C 
BRANCH   7   8
HETATM    8  C   UNL     1     -23.064  -9.324  -0.070  1.00  0.00     0.000 C 
BRANCH   8   9
HETATM    9  C   UNL     1     -22.363  -9.942  -1.271  1.00  0.00     0.000 C 
BRANCH   9  10
HETATM   10  C   UNL     1     -21.919 -11.364  -0.956  1.00  0.00    -0.000 C 
BRANCH  10  11
HETATM   11  C   UNL     1     -22.221 -11.720   0.494  1.00  0.00    -0.005 C 
HETATM   12  C   UNL     1     -23.238 -12.844   0.574  1.00  0.00     0.005 C 
ENDBRANCH  10  11
ENDBRANCH   9  10
ENDBRANCH   8   9
ENDBRANCH   7   8
ENDBRANCH   6   7
ENDBRANCH   5   6
ENDBRANCH   4   5
ENDBRANCH   3   4
ENDBRANCH   2   3
ENDBRANCH   1   2
BRANCH   1  13
HETATM   13  C   UNL     1     -19.843  -4.776  -6.778  1.00  0.00     0.000 C 
BRANCH  13  14
HETATM   14  C   UNL     1     -20.809  -5.152  -7.903  1.00  0.00     0.002 C 
BRANCH  14  15
HETATM   15  C   UNL     1     -20.784  -4.209  -9.111  1.00  0.00     0.028 C 
BRANCH  15  16
HETATM   16  C   UNL     1     -22.176  -3.701  -9.508  1.00  0.00     0.237 C 
BRANCH  16  17
HETATM   17  N   UNL     1     -22.532  -4.057 -10.961  1.00  0.00    -0.065 N 
HETATM   18  C   UNL     1     -21.337  -4.452 -11.780  1.00  0.00     0.272 C 
HETATM   19  C   UNL     1     -23.625  -5.121 -11.003  1.00  0.00     0.272 C 
BRANCH  17  20
HETATM   20  C   UNL     1     -23.162  -2.740 -11.613  1.00  0.00     0.349 C 
BRANCH  20  21
HETATM   21  C   UNL     1     -24.149  -2.951 -12.796  1.00  0.00     0.199 C 
HETATM   22  O   UNL     1     -25.367  -2.895 -12.470  1.00  0.00    -0.647 OA
HETATM   23  O   UNL     1     -23.587  -3.275 -13.880  1.00  0.00    -0.647 OA
ENDBRANCH  20  21
ENDBRANCH  17  20
ENDBRANCH  16  17
ENDBRANCH  15  16
ENDBRANCH  14  15
ENDBRANCH  13  14
ENDBRANCH   1  13
TORSDOF 17
BEGIN_RES ARG D 557
REMARK  4 active torsions:
REMARK  status: ('A' for Active; 'I' for Inactive)
REMARK    1  A    between atoms: CA   and  CB  
REMARK    2  A    between atoms: CB   and  CG  
REMARK    3  A    between atoms: CG   and  CD  
REMARK    4  A    between atoms: CD   and  NE  
REMARK       I    between atoms: NE   and  CZ  
REMARK       I    between atoms: CZ   and  NH1 
REMARK       I    between atoms: CZ   and  NH2 
ROOT
ATOM      1  CA  ARG D 557     -26.217   2.705 -17.014  1.00 35.49     0.159 C 
ENDROOT
BRANCH   1   2
ATOM      2  CB  ARG D 557     -26.789   1.319 -17.183  1.00 35.49     0.034 C 
BRANCH   2   3
ATOM      3  CG  ARG D 557     -28.232   1.168 -16.959  1.00 35.49     0.027 C 
BRANCH   3   4
ATOM      4  CD  ARG D 557     -28.618  -0.238 -16.700  1.00 35.49     0.116 C 
BRANCH   4   5
ATOM      5  NE  ARG D 557     -27.586  -0.967 -16.012  1.00 35.49    -0.212 N 
ATOM      6  CZ  ARG D 557     -27.383  -2.263 -16.082  1.00 35.49     0.666 C 
ATOM      7  NH1 ARG D 557     -28.144  -3.061 -16.809  1.00 35.49    -0.235 N 
ATOM      8  NH2 ARG D 557     -26.385  -2.752 -15.406  1.00 35.49    -0.235 N 
ATOM      9  HH  ARG D 557     -28.805  -2.761 -17.264  1.00 35.49     0.174 HD
ATOM     10  HH  ARG D 557     -27.962  -3.899 -16.819  1.00 35.49     0.174 HD
ATOM     11  HH  ARG D 557     -25.906  -2.212 -14.952  1.00 35.49     0.174 HD
ATOM     12  HH  ARG D 557     -26.220  -3.584 -15.430  1.00 35.49     0.174 HD
ATOM     13  HE  ARG D 557     -27.094  -0.541 -15.464  1.00 35.49     0.178 HD
ENDBRANCH   4   5
ENDBRANCH   3   4
ENDBRANCH   2   3
ENDBRANCH   1   2
END_RES ARG D 557
BEGIN_RES GLU D 570
REMARK  3 active torsions:
REMARK  status: ('A' for Active; 'I' for Inactive)
REMARK    5  A    between atoms: CA   and  CB  
REMARK    6  A    between atoms: CB   and  CG  
REMARK    7  A    between atoms: CG   and  CD  
ROOT
ATOM     14  CA  GLU D 570     -18.033  -6.348 -13.375  1.00 32.92     0.160 C 
ENDROOT
BRANCH  14  15
ATOM     15  CB  GLU D 570     -19.500  -6.345 -13.794  1.00 32.92     0.043 C 
BRANCH  15  16
ATOM     16  CG  GLU D 570     -19.810  -5.975 -15.199  1.00 32.92     0.100 C 
BRANCH  16  17
ATOM     17  CD  GLU D 570     -21.272  -5.665 -15.418  1.00 32.92     0.185 C 
ATOM     18  OE1 GLU D 570     -21.589  -4.814 -16.271  1.00 32.92    -0.647 OA
ATOM     19  OE2 GLU D 570     -22.109  -6.268 -14.718  1.00 32.92    -0.647 OA
ENDBRANCH  16  17
ENDBRANCH  15  16
ENDBRANCH  14  15
END_RES GLU D 570
ENDMDL
MODEL 5
REMARK VINA RESULT:      -6.8      1.710      2.299
REMARK  17 active torsions:
REMARK  status: ('A' for Active; 'I' for Inactive)
REMARK    1  A    between atoms: C_2  and  C_3 
REMARK    2  A    between atoms: C_3  and  C_4 
REMARK    3  A    between atoms: C_4  and  C_5 
REMARK    4  A    between atoms: C_5  and  C_6 
REMARK    5  A    between atoms: C_6  and  C_7 
REMARK    6  A    between atoms: C_7  and  C_8 
REMARK    7  A    between atoms: C_8  and  C_9 
REMARK    8  A    between atoms: C_9  and  C_10 
REMARK    9  A    between atoms: C_10  and  C_11 
REMARK   10  A    between atoms: C_11  and  C_12 
REMARK   11  A    between atoms: C_12  and  C_13 
REMARK   12  A    between atoms: C_13  and  C_14 
REMARK   13  A    between atoms: C_14  and  C_15 
REMARK   14  A    between atoms: C_15  and  C_16 
REMARK   15  A    between atoms: C_16  and  N_17 
REMARK   16  A    between atoms: N_17  and  C_20 
REMARK   17  A    between atoms: C_20  and  C_21 
ROOT
HETATM    1  C   UNL     1     -19.408  -4.771  -7.161  1.00  0.00     0.000 C 
ENDROOT
BRANCH   1   2
HETATM    2  C   UNL     1     -20.121  -4.851  -5.822  1.00  0.00     0.000 C 
BRANCH   2   3
HETATM    3  C   UNL     1     -21.516  -5.423  -6.029  1.00  0.00     0.000 C 
BRANCH   3   4
HETATM    4  C   UNL     1     -21.617  -6.804  -5.410  1.00  0.00     0.000 C 
BRANCH   4   5
HETATM    5  C   UNL     1     -20.890  -6.836  -4.077  1.00  0.00     0.000 C 
BRANCH   5   6
HETATM    6  C   UNL     1     -21.838  -6.437  -2.960  1.00  0.00     0.000 C 
BRANCH   6   7
HETATM    7  C   UNL     1     -21.948  -7.549  -1.931  1.00  0.00     0.000 C 
BRANCH   7   8
HETATM    8  C   UNL     1     -22.374  -6.977  -0.586  1.00  0.00     0.000 C 
BRANCH   8   9
HETATM    9  C   UNL     1     -22.721  -8.096   0.385  1.00  0.00     0.000 C 
BRANCH   9  10
HETATM   10  C   UNL     1     -22.245  -9.438  -0.157  1.00  0.00    -0.000 C 
BRANCH  10  11
HETATM   11  C   UNL     1     -21.007  -9.919   0.589  1.00  0.00    -0.005 C 
HETATM   12  C   UNL     1     -20.712  -9.026   1.781  1.00  0.00     0.005 C 
ENDBRANCH  10  11
ENDBRANCH   9  10
ENDBRANCH   8   9
ENDBRANCH   7   8
ENDBRANCH   6   7
ENDBRANCH   5   6
ENDBRANCH   4   5
ENDBRANCH   3   4
ENDBRANCH   2   3
ENDBRANCH   1   2
BRANCH   1  13
HETATM   13  C   UNL     1     -20.347  -5.106  -8.313  1.00  0.00     0.000 C 
BRANCH  13  14
HETATM   14  C   UNL     1     -20.183  -4.135  -9.483  1.00  0.00     0.002 C 
BRANCH  14  15
HETATM   15  C   UNL     1     -20.828  -4.598 -10.795  1.00  0.00     0.028 C 
BRANCH  15  16
HETATM   16  C   UNL     1     -21.318  -3.436 -11.669  1.00  0.00     0.237 C 
BRANCH  16  17
HETATM   17  N   UNL     1     -22.790  -3.600 -12.080  1.00  0.00    -0.065 N 
HETATM   18  C   UNL     1     -23.063  -3.153 -13.487  1.00  0.00     0.272 C 
HETATM   19  C   UNL     1     -23.262  -5.031 -11.839  1.00  0.00     0.272 C 
BRANCH  17  20
HETATM   20  C   UNL     1     -23.645  -2.675 -11.096  1.00  0.00     0.349 C 
BRANCH  20  21
HETATM   21  C   UNL     1     -24.415  -3.395  -9.952  1.00  0.00     0.199 C 
HETATM   22  O   UNL     1     -25.669  -3.391 -10.091  1.00  0.00    -0.647 OA
HETATM   23  O   UNL     1     -23.680  -3.762  -8.992  1.00  0.00    -0.647 OA
ENDBRANCH  20  21
ENDBRANCH  17  20
ENDBRANCH  16  17
ENDBRANCH  15  16
ENDBRANCH  14  15
ENDBRANCH  13  14
ENDBRANCH   1  13
TORSDOF 17
BEGIN_RES ARG D 557
REMARK  4 active torsions:
REMARK  status: ('A' for Active; 'I' for Inactive)
REMARK    1  A    between atoms: CA   and  CB  
REMARK    2  A    between atoms: CB   and  CG  
REMARK    3  A    between atoms: CG   and  CD  
REMARK    4  A    between atoms: CD   and  NE  
REMARK       I    between atoms: NE   and  CZ  
REMARK       I    between atoms: CZ   and  NH1 
REMARK       I    between atoms: CZ   and  NH2 
ROOT
ATOM      1  CA  ARG D 557     -26.217   2.705 -17.014  1.00 35.49     0.159 C 
ENDROOT
BRANCH   1   2
ATOM      2  CB  ARG D 557     -26.789   1.319 -17.183  1.00 35.49     0.034 C 
BRANCH   2   3
ATOM      3  CG  ARG D 557     -25.951   0.199 -16.738  1.00 35.49     0.027 C 
BRANCH   3   4
ATOM      4  CD  ARG D 557     -26.736  -0.861 -16.065  1.00 35.49     0.116 C 
BRANCH   4   5
ATOM      5  NE  ARG D 557     -27.987  -1.113 -16.729  1.00 35.49    -0.212 N 
ATOM      6  CZ  ARG D 557     -28.512  -2.296 -16.956  1.00 35.49     0.666 C 
ATOM      7  NH1 ARG D 557     -27.915  -3.417 -16.597  1.00 35.49    -0.235 N 
ATOM      8  NH2 ARG D 557     -29.668  -2.335 -17.553  1.00 35.49    -0.235 N 
ATOM      9  HH  ARG D 557     -27.156  -3.415 -16.200  1.00 35.49     0.174 HD
ATOM     10  HH  ARG D 557     -28.307  -4.160 -16.768  1.00 35.49     0.174 HD
ATOM     11  HH  ARG D 557     -30.033  -1.595 -17.767  1.00 35.49     0.174 HD
ATOM     12  HH  ARG D 557     -30.040  -3.080 -17.713  1.00 35.49     0.174 HD
ATOM     13  HE  ARG D 557     -28.405  -0.449 -17.059  1.00 35.49     0.178 HD
ENDBRANCH   4   5
ENDBRANCH   3   4
ENDBRANCH   2   3
ENDBRANCH   1   2
END_RES ARG D 557
BEGIN_RES GLU D 570
REMARK  3 active torsions:
REMARK  status: ('A' for Active; 'I' for Inactive)
REMARK    5  A    between atoms: CA   and  CB  
REMARK    6  A    between atoms: CB   and  CG  
REMARK    7  A    between atoms: CG   and  CD  
ROOT
ATOM     14  CA  GLU D 570     -18.033  -6.348 -13.375  1.00 32.92     0.160 C 
ENDROOT
BRANCH  14  15
ATOM     15  CB  GLU D 570     -19.500  -6.345 -13.794  1.00 32.92     0.043 C 
BRANCH  15  16
ATOM     16  CG  GLU D 570     -19.803  -6.070 -15.222  1.00 32.92     0.100 C 
BRANCH  16  17
ATOM     17  CD  GLU D 570     -21.268  -5.791 -15.470  1.00 32.92     0.185 C 
ATOM     18  OE1 GLU D 570     -22.123  -6.508 -14.916  1.00 32.92    -0.647 OA
ATOM     19  OE2 GLU D 570     -21.562  -4.856 -16.241  1.00 32.92    -0.647 OA
ENDBRANCH  16  17
ENDBRANCH  15  16
ENDBRANCH  14  15
END_RES GLU D 570
ENDMDL
MODEL 6
REMARK VINA RESULT:      -6.7      4.579      9.154
REMARK  17 active torsions:
REMARK  status: ('A' for Active; 'I' for Inactive)
REMARK    1  A    between atoms: C_2  and  C_3 
REMARK    2  A    between atoms: C_3  and  C_4 
REMARK    3  A    between atoms: C_4  and  C_5 
REMARK    4  A    between atoms: C_5  and  C_6 
REMARK    5  A    between atoms: C_6  and  C_7 
REMARK    6  A    between atoms: C_7  and  C_8 
REMARK    7  A    between atoms: C_8  and  C_9 
REMARK    8  A    between atoms: C_9  and  C_10 
REMARK    9  A    between atoms: C_10  and  C_11 
REMARK   10  A    between atoms: C_11  and  C_12 
REMARK   11  A    between atoms: C_12  and  C_13 
REMARK   12  A    between atoms: C_13  and  C_14 
REMARK   13  A    between atoms: C_14  and  C_15 
REMARK   14  A    between atoms: C_15  and  C_16 
REMARK   15  A    between atoms: C_16  and  N_17 
REMARK   16  A    between atoms: N_17  and  C_20 
REMARK   17  A    between atoms: C_20  and  C_21 
ROOT
HETATM    1  C   UNL     1     -22.131  -6.647  -4.467  1.00  0.00     0.000 C 
ENDROOT
BRANCH   1   2
HETATM    2  C   UNL     1     -21.404  -6.264  -5.744  1.00  0.00     0.000 C 
BRANCH   2   3
HETATM    3  C   UNL     1     -20.494  -5.077  -5.468  1.00  0.00     0.000 C 
BRANCH   3   4
HETATM    4  C   UNL     1     -19.637  -4.774  -6.684  1.00  0.00     0.000 C 
BRANCH   4   5
HETATM    5  C   UNL     1     -20.377  -5.157  -7.954  1.00  0.00     0.000 C 
BRANCH   5   6
HETATM    6  C   UNL     1     -20.193  -4.077  -9.007  1.00  0.00     0.000 C 
BRANCH   6   7
HETATM    7  C   UNL     1     -20.123  -4.690 -10.394  1.00  0.00     0.000 C 
BRANCH   7   8
HETATM    8  C   UNL     1     -20.974  -3.884 -11.366  1.00  0.00     0.000 C 
BRANCH   8   9
HETATM    9  C   UNL     1     -22.414  -4.377 -11.349  1.00  0.00     0.000 C 
BRANCH   9  10
HETATM   10  C   UNL     1     -23.378  -3.201 -11.253  1.00  0.00    -0.000 C 
BRANCH  10  11
HETATM   11  C   UNL     1     -24.443  -3.455 -10.194  1.00  0.00    -0.005 C 
HETATM   12  C   UNL     1     -23.824  -4.019  -8.928  1.00  0.00     0.005 C 
ENDBRANCH  10  11
ENDBRANCH   9  10
ENDBRANCH   8   9
ENDBRANCH   7   8
ENDBRANCH   6   7
ENDBRANCH   5   6
ENDBRANCH   4   5
ENDBRANCH   3   4
ENDBRANCH   2   3
ENDBRANCH   1   2
BRANCH   1  13
HETATM   13  C   UNL     1     -21.341  -6.232  -3.231  1.00  0.00     0.000 C 
BRANCH  13  14
HETATM   14  C   UNL     1     -22.224  -6.171  -1.984  1.00  0.00     0.002 C 
BRANCH  14  15
HETATM   15  C   UNL     1     -21.983  -7.297  -0.972  1.00  0.00     0.028 C 
BRANCH  15  16
HETATM   16  C   UNL     1     -20.755  -8.154  -1.303  1.00  0.00     0.237 C 
BRANCH  16  17
HETATM   17  N   UNL     1     -21.094  -9.651  -1.377  1.00  0.00    -0.065 N 
HETATM   18  C   UNL     1     -22.007  -9.993  -2.519  1.00  0.00     0.272 C 
HETATM   19  C   UNL     1     -19.820 -10.492  -1.399  1.00  0.00     0.272 C 
BRANCH  17  20
HETATM   20  C   UNL     1     -21.849 -10.017  -0.017  1.00  0.00     0.349 C 
BRANCH  20  21
HETATM   21  C   UNL     1     -22.939 -11.123  -0.099  1.00  0.00     0.199 C 
HETATM   22  O   UNL     1     -24.123 -10.687  -0.053  1.00  0.00    -0.647 OA
HETATM   23  O   UNL     1     -22.479 -12.299  -0.070  1.00  0.00    -0.647 OA
ENDBRANCH  20  21
ENDBRANCH  17  20
ENDBRANCH  16  17
ENDBRANCH  15  16
ENDBRANCH  14  15
ENDBRANCH  13  14
ENDBRANCH   1  13
TORSDOF 17
BEGIN_RES ARG D 557
REMARK  4 active torsions:
REMARK  status: ('A' for Active; 'I' for Inactive)
REMARK    1  A    between atoms: CA   and  CB  
REMARK    2  A    between atoms: CB   and  CG  
REMARK    3  A    between atoms: CG   and  CD  
REMARK    4  A    between atoms: CD   and  NE  
REMARK       I    between atoms: NE   and  CZ  
REMARK       I    between atoms: CZ   and  NH1 
REMARK       I    between atoms: CZ   and  NH2 
ROOT
ATOM      1  CA  ARG D 557     -26.217   2.705 -17.014  1.00 35.49     0.159 C 
ENDROOT
BRANCH   1   2
ATOM      2  CB  ARG D 557     -26.789   1.319 -17.183  1.00 35.49     0.034 C 
BRANCH   2   3
ATOM      3  CG  ARG D 557     -28.237   1.174 -16.990  1.00 35.49     0.027 C 
BRANCH   3   4
ATOM      4  CD  ARG D 557     -28.635  -0.230 -16.739  1.00 35.49     0.116 C 
BRANCH   4   5
ATOM      5  NE  ARG D 557     -27.614  -0.966 -16.040  1.00 35.49    -0.212 N 
ATOM      6  CZ  ARG D 557     -27.429  -2.266 -16.097  1.00 35.49     0.666 C 
ATOM      7  NH1 ARG D 557     -28.198  -3.061 -16.818  1.00 35.49    -0.235 N 
ATOM      8  NH2 ARG D 557     -26.439  -2.762 -15.414  1.00 35.49    -0.235 N 
ATOM      9  HH  ARG D 557     -28.854  -2.756 -17.278  1.00 35.49     0.174 HD
ATOM     10  HH  ARG D 557     -28.028  -3.901 -16.819  1.00 35.49     0.174 HD
ATOM     11  HH  ARG D 557     -25.954  -2.224 -14.963  1.00 35.49     0.174 HD
ATOM     12  HH  ARG D 557     -26.286  -3.596 -15.429  1.00 35.49     0.174 HD
ATOM     13  HE  ARG D 557     -27.118  -0.542 -15.495  1.00 35.49     0.178 HD
ENDBRANCH   4   5
ENDBRANCH   3   4
ENDBRANCH   2   3
ENDBRANCH   1   2
END_RES ARG D 557
BEGIN_RES GLU D 570
REMARK  3 active torsions:
REMARK  status: ('A' for Active; 'I' for Inactive)
REMARK    5  A    between atoms: CA   and  CB  
REMARK    6  A    between atoms: CB   and  CG  
REMARK    7  A    between atoms: CG   and  CD  
ROOT
ATOM     14  CA  GLU D 570     -18.033  -6.348 -13.375  1.00 32.92     0.160 C 
ENDROOT
BRANCH  14  15
ATOM     15  CB  GLU D 570     -19.500  -6.345 -13.794  1.00 32.92     0.043 C 
BRANCH  15  16
ATOM     16  CG  GLU D 570     -20.116  -7.652 -14.139  1.00 32.92     0.100 C 
BRANCH  16  17
ATOM     17  CD  GLU D 570     -20.956  -7.595 -15.394  1.00 32.92     0.185 C 
ATOM     18  OE1 GLU D 570     -21.824  -6.708 -15.501  1.00 32.92    -0.647 OA
ATOM     19  OE2 GLU D 570     -20.754  -8.457 -16.272  1.00 32.92    -0.647 OA
ENDBRANCH  16  17
ENDBRANCH  15  16
ENDBRANCH  14  15
END_RES GLU D 570
ENDMDL
MODEL 7
REMARK VINA RESULT:      -6.6      1.475      2.083
REMARK  17 active torsions:
REMARK  status: ('A' for Active; 'I' for Inactive)
REMARK    1  A    between atoms: C_2  and  C_3 
REMARK    2  A    between atoms: C_3  and  C_4 
REMARK    3  A    between atoms: C_4  and  C_5 
REMARK    4  A    between atoms: C_5  and  C_6 
REMARK    5  A    between atoms: C_6  and  C_7 
REMARK    6  A    between atoms: C_7  and  C_8 
REMARK    7  A    between atoms: C_8  and  C_9 
REMARK    8  A    between atoms: C_9  and  C_10 
REMARK    9  A    between atoms: C_10  and  C_11 
REMARK   10  A    between atoms: C_11  and  C_12 
REMARK   11  A    between atoms: C_12  and  C_13 
REMARK   12  A    between atoms: C_13  and  C_14 
REMARK   13  A    between atoms: C_14  and  C_15 
REMARK   14  A    between atoms: C_15  and  C_16 
REMARK   15  A    between atoms: C_16  and  N_17 
REMARK   16  A    between atoms: N_17  and  C_20 
REMARK   17  A    between atoms: C_20  and  C_21 
ROOT
HETATM    1  C   UNL     1     -19.482  -4.241  -8.350  1.00  0.00     0.000 C 
ENDROOT
BRANCH   1   2
HETATM    2  C   UNL     1     -20.076  -4.617  -7.003  1.00  0.00     0.000 C 
BRANCH   2   3
HETATM    3  C   UNL     1     -21.161  -5.663  -7.206  1.00  0.00     0.000 C 
BRANCH   3   4
HETATM    4  C   UNL     1     -22.161  -5.616  -6.065  1.00  0.00     0.000 C 
BRANCH   4   5
HETATM    5  C   UNL     1     -21.516  -6.113  -4.783  1.00  0.00     0.000 C 
BRANCH   5   6
HETATM    6  C   UNL     1     -21.679  -7.620  -4.672  1.00  0.00     0.000 C 
BRANCH   6   7
HETATM    7  C   UNL     1     -20.436  -8.248  -4.065  1.00  0.00     0.000 C 
BRANCH   7   8
HETATM    8  C   UNL     1     -20.387  -7.969  -2.570  1.00  0.00     0.000 C 
BRANCH   8   9
HETATM    9  C   UNL     1     -21.699  -8.367  -1.909  1.00  0.00     0.000 C 
BRANCH   9  10
HETATM   10  C   UNL     1     -22.157  -7.285  -0.940  1.00  0.00    -0.000 C 
BRANCH  10  11
HETATM   11  C   UNL     1     -22.623  -7.894   0.376  1.00  0.00    -0.005 C 
HETATM   12  C   UNL     1     -21.441  -8.367   1.203  1.00  0.00     0.005 C 
ENDBRANCH  10  11
ENDBRANCH   9  10
ENDBRANCH   8   9
ENDBRANCH   7   8
ENDBRANCH   6   7
ENDBRANCH   5   6
ENDBRANCH   4   5
ENDBRANCH   3   4
ENDBRANCH   2   3
ENDBRANCH   1   2
BRANCH   1  13
HETATM   13  C   UNL     1     -20.340  -4.758  -9.499  1.00  0.00     0.000 C 
BRANCH  13  14
HETATM   14  C   UNL     1     -20.572  -3.685 -10.564  1.00  0.00     0.002 C 
BRANCH  14  15
HETATM   15  C   UNL     1     -21.557  -4.082 -11.670  1.00  0.00     0.028 C 
BRANCH  15  16
HETATM   16  C   UNL     1     -22.506  -2.945 -12.069  1.00  0.00     0.237 C 
BRANCH  16  17
HETATM   17  N   UNL     1     -23.399  -3.326 -13.260  1.00  0.00    -0.065 N 
HETATM   18  C   UNL     1     -24.787  -2.762 -13.160  1.00  0.00     0.272 C 
HETATM   19  C   UNL     1     -22.729  -2.950 -14.579  1.00  0.00     0.272 C 
BRANCH  17  20
HETATM   20  C   UNL     1     -23.515  -4.920 -13.254  1.00  0.00     0.349 C 
BRANCH  20  21
HETATM   21  C   UNL     1     -24.176  -5.578 -14.499  1.00  0.00     0.199 C 
HETATM   22  O   UNL     1     -24.998  -4.833 -15.101  1.00  0.00    -0.647 OA
HETATM   23  O   UNL     1     -23.889  -6.799 -14.646  1.00  0.00    -0.647 OA
ENDBRANCH  20  21
ENDBRANCH  17  20
ENDBRANCH  16  17
ENDBRANCH  15  16
ENDBRANCH  14  15
ENDBRANCH  13  14
ENDBRANCH   1  13
TORSDOF 17
BEGIN_RES ARG D 557
REMARK  4 active torsions:
REMARK  status: ('A' for Active; 'I' for Inactive)
REMARK    1  A    between atoms: CA   and  CB  
REMARK    2  A    between atoms: CB   and  CG  
REMARK    3  A    between atoms: CG   and  CD  
REMARK    4  A    between atoms: CD   and  NE  
REMARK       I    between atoms: NE   and  CZ  
REMARK       I    between atoms: CZ   and  NH1 
REMARK       I    between atoms: CZ   and  NH2 
ROOT
ATOM      1  CA  ARG D 557     -26.217   2.705 -17.014  1.00 35.49     0.159 C 
ENDROOT
BRANCH   1   2
ATOM      2  CB  ARG D 557     -26.789   1.319 -17.183  1.00 35.49     0.034 C 
BRANCH   2   3
ATOM      3  CG  ARG D 557     -28.204   1.141 -16.836  1.00 35.49     0.027 C 
BRANCH   3   4
ATOM      4  CD  ARG D 557     -28.727  -0.178 -17.257  1.00 35.49     0.116 C 
BRANCH   4   5
ATOM      5  NE  ARG D 557     -27.991  -1.266 -16.669  1.00 35.49    -0.212 N 
ATOM      6  CZ  ARG D 557     -28.270  -2.544 -16.803  1.00 35.49     0.666 C 
ATOM      7  NH1 ARG D 557     -29.301  -2.974 -17.506  1.00 35.49    -0.235 N 
ATOM      8  NH2 ARG D 557     -27.480  -3.395 -16.215  1.00 35.49    -0.235 N 
ATOM      9  HH  ARG D 557     -29.832  -2.432 -17.903  1.00 35.49     0.174 HD
ATOM     10  HH  ARG D 557     -29.432  -3.819 -17.560  1.00 35.49     0.174 HD
ATOM     11  HH  ARG D 557     -26.818  -3.088 -15.774  1.00 35.49     0.174 HD
ATOM     12  HH  ARG D 557     -27.626  -4.228 -16.282  1.00 35.49     0.174 HD
ATOM     13  HE  ARG D 557     -27.353  -1.077 -16.139  1.00 35.49     0.178 HD
ENDBRANCH   4   5
ENDBRANCH   3   4
ENDBRANCH   2   3
ENDBRANCH   1   2
END_RES ARG D 557
BEGIN_RES GLU D 570
REMARK  3 active torsions:
REMARK  status: ('A' for Active; 'I' for Inactive)
REMARK    5  A    between atoms: CA   and  CB  
REMARK    6  A    between atoms: CB   and  CG  
REMARK    7  A    between atoms: CG   and  CD  
ROOT
ATOM     14  CA  GLU D 570     -18.033  -6.348 -13.375  1.00 32.92     0.160 C 
ENDROOT
BRANCH  14  15
ATOM     15  CB  GLU D 570     -19.500  -6.345 -13.794  1.00 32.92     0.043 C 
BRANCH  15  16
ATOM     16  CG  GLU D 570     -20.096  -7.641 -14.209  1.00 32.92     0.100 C 
BRANCH  16  17
ATOM     17  CD  GLU D 570     -20.593  -7.632 -15.635  1.00 32.92     0.185 C 
ATOM     18  OE1 GLU D 570     -20.766  -8.717 -16.223  1.00 32.92    -0.647 OA
ATOM     19  OE2 GLU D 570     -20.796  -6.527 -16.177  1.00 32.92    -0.647 OA
ENDBRANCH  16  17
ENDBRANCH  15  16
ENDBRANCH  14  15
END_RES GLU D 570
ENDMDL
MODEL 8
REMARK VINA RESULT:      -6.5      4.724      9.315
REMARK  17 active torsions:
REMARK  status: ('A' for Active; 'I' for Inactive)
REMARK    1  A    between atoms: C_2  and  C_3 
REMARK    2  A    between atoms: C_3  and  C_4 
REMARK    3  A    between atoms: C_4  and  C_5 
REMARK    4  A    between atoms: C_5  and  C_6 
REMARK    5  A    between atoms: C_6  and  C_7 
REMARK    6  A    between atoms: C_7  and  C_8 
REMARK    7  A    between atoms: C_8  and  C_9 
REMARK    8  A    between atoms: C_9  and  C_10 
REMARK    9  A    between atoms: C_10  and  C_11 
REMARK   10  A    between atoms: C_11  and  C_12 
REMARK   11  A    between atoms: C_12  and  C_13 
REMARK   12  A    between atoms: C_13  and  C_14 
REMARK   13  A    between atoms: C_14  and  C_15 
REMARK   14  A    between atoms: C_15  and  C_16 
REMARK   15  A    between atoms: C_16  and  N_17 
REMARK   16  A    between atoms: N_17  and  C_20 
REMARK   17  A    between atoms: C_20  and  C_21 
ROOT
HETATM    1  C   UNL     1     -20.875  -6.047  -4.696  1.00  0.00     0.000 C 
ENDROOT
BRANCH   1   2
HETATM    2  C   UNL     1     -20.646  -6.801  -5.994  1.00  0.00     0.000 C 
BRANCH   2   3
HETATM    3  C   UNL     1     -20.824  -5.850  -7.168  1.00  0.00     0.000 C 
BRANCH   3   4
HETATM    4  C   UNL     1     -20.763  -4.410  -6.694  1.00  0.00     0.000 C 
BRANCH   4   5
HETATM    5  C   UNL     1     -21.649  -3.534  -7.563  1.00  0.00     0.000 C 
BRANCH   5   6
HETATM    6  C   UNL     1     -22.953  -4.252  -7.863  1.00  0.00     0.000 C 
BRANCH   6   7
HETATM    7  C   UNL     1     -23.568  -3.728  -9.149  1.00  0.00     0.000 C 
BRANCH   7   8
HETATM    8  C   UNL     1     -23.676  -4.851 -10.171  1.00  0.00     0.000 C 
BRANCH   8   9
HETATM    9  C   UNL     1     -22.755  -4.587 -11.354  1.00  0.00     0.000 C 
BRANCH   9  10
HETATM   10  C   UNL     1     -22.134  -3.201 -11.246  1.00  0.00    -0.000 C 
BRANCH  10  11
HETATM   11  C   UNL     1     -20.613  -3.281 -11.264  1.00  0.00    -0.005 C 
HETATM   12  C   UNL     1     -20.133  -4.579 -10.640  1.00  0.00     0.005 C 
ENDBRANCH  10  11
ENDBRANCH   9  10
ENDBRANCH   8   9
ENDBRANCH   7   8
ENDBRANCH   6   7
ENDBRANCH   5   6
ENDBRANCH   4   5
ENDBRANCH   3   4
ENDBRANCH   2   3
ENDBRANCH   1   2
BRANCH   1  13
HETATM   13  C   UNL     1     -22.028  -6.647  -3.901  1.00  0.00     0.000 C 
BRANCH  13  14
HETATM   14  C   UNL     1     -21.911  -6.339  -2.407  1.00  0.00     0.002 C 
BRANCH  14  15
HETATM   15  C   UNL     1     -21.176  -7.406  -1.588  1.00  0.00     0.028 C 
BRANCH  15  16
HETATM   16  C   UNL     1     -21.893  -8.762  -1.582  1.00  0.00     0.237 C 
BRANCH  16  17
HETATM   17  N   UNL     1     -22.151  -9.276  -0.157  1.00  0.00    -0.065 N 
HETATM   18  C   UNL     1     -21.075 -10.198   0.341  1.00  0.00     0.272 C 
HETATM   19  C   UNL     1     -22.388  -8.112   0.802  1.00  0.00     0.272 C 
BRANCH  17  20
HETATM   20  C   UNL     1     -23.520 -10.100  -0.208  1.00  0.00     0.349 C 
BRANCH  20  21
HETATM   21  C   UNL     1     -23.404 -11.631  -0.453  1.00  0.00     0.199 C 
HETATM   22  O   UNL     1     -23.271 -11.952  -1.667  1.00  0.00    -0.647 OA
HETATM   23  O   UNL     1     -23.590 -12.331   0.582  1.00  0.00    -0.647 OA
ENDBRANCH  20  21
ENDBRANCH  17  20
ENDBRANCH  16  17
ENDBRANCH  15  16
ENDBRANCH  14  15
ENDBRANCH  13  14
ENDBRANCH   1  13
TORSDOF 17
BEGIN_RES ARG D 557
REMARK  4 active torsions:
REMARK  status: ('A' for Active; 'I' for Inactive)
REMARK    1  A    between atoms: CA   and  CB  
REMARK    2  A    between atoms: CB   and  CG  
REMARK    3  A    between atoms: CG   and  CD  
REMARK    4  A    between atoms: CD   and  NE  
REMARK       I    between atoms: NE   and  CZ  
REMARK       I    between atoms: CZ   and  NH1 
REMARK       I    between atoms: CZ   and  NH2 
ROOT
ATOM      1  CA  ARG D 557     -26.217   2.705 -17.014  1.00 35.49     0.159 C 
ENDROOT
BRANCH   1   2
ATOM      2  CB  ARG D 557     -26.789   1.319 -17.183  1.00 35.49     0.034 C 
BRANCH   2   3
ATOM      3  CG  ARG D 557     -25.927   0.197 -16.792  1.00 35.49     0.027 C 
BRANCH   3   4
ATOM      4  CD  ARG D 557     -26.669  -0.857 -16.062  1.00 35.49     0.116 C 
BRANCH   4   5
ATOM      5  NE  ARG D 557     -25.921  -1.371 -14.945  1.00 35.49    -0.212 N 
ATOM      6  CZ  ARG D 557     -25.855  -2.632 -14.580  1.00 35.49     0.666 C 
ATOM      7  NH1 ARG D 557     -26.503  -3.589 -15.218  1.00 35.49    -0.235 N 
ATOM      8  NH2 ARG D 557     -25.110  -2.921 -13.553  1.00 35.49    -0.235 N 
ATOM      9  HH  ARG D 557     -26.997  -3.422 -15.897  1.00 35.49     0.174 HD
ATOM     10  HH  ARG D 557     -26.420  -4.394 -14.936  1.00 35.49     0.174 HD
ATOM     11  HH  ARG D 557     -24.697  -2.283 -13.166  1.00 35.49     0.174 HD
ATOM     12  HH  ARG D 557     -25.039  -3.724 -13.291  1.00 35.49     0.174 HD
ATOM     13  HE  ARG D 557     -25.531  -0.813 -14.435  1.00 35.49     0.178 HD
ENDBRANCH   4   5
ENDBRANCH   3   4
ENDBRANCH   2   3
ENDBRANCH   1   2
END_RES ARG D 557
BEGIN_RES GLU D 570
REMARK  3 active torsions:
REMARK  status: ('A' for Active; 'I' for Inactive)
REMARK    5  A    between atoms: CA   and  CB  
REMARK    6  A    between atoms: CB   and  CG  
REMARK    7  A    between atoms: CG   and  CD  
ROOT
ATOM     14  CA  GLU D 570     -18.033  -6.348 -13.375  1.00 32.92     0.160 C 
ENDROOT
BRANCH  14  15
ATOM     15  CB  GLU D 570     -19.500  -6.345 -13.794  1.00 32.92     0.043 C 
BRANCH  15  16
ATOM     16  CG  GLU D 570     -19.945  -7.403 -14.738  1.00 32.92     0.100 C 
BRANCH  16  17
ATOM     17  CD  GLU D 570     -20.808  -6.869 -15.857  1.00 32.92     0.185 C 
ATOM     18  OE1 GLU D 570     -20.362  -5.962 -16.586  1.00 32.92    -0.647 OA
ATOM     19  OE2 GLU D 570     -21.949  -7.352 -15.996  1.00 32.92    -0.647 OA
ENDBRANCH  16  17
ENDBRANCH  15  16
ENDBRANCH  14  15
END_RES GLU D 570
ENDMDL
MODEL 9
REMARK VINA RESULT:      -6.5      2.659      4.989
REMARK  17 active torsions:
REMARK  status: ('A' for Active; 'I' for Inactive)
REMARK    1  A    between atoms: C_2  and  C_3 
REMARK    2  A    between atoms: C_3  and  C_4 
REMARK    3  A    between atoms: C_4  and  C_5 
REMARK    4  A    between atoms: C_5  and  C_6 
REMARK    5  A    between atoms: C_6  and  C_7 
REMARK    6  A    between atoms: C_7  and  C_8 
REMARK    7  A    between atoms: C_8  and  C_9 
REMARK    8  A    between atoms: C_9  and  C_10 
REMARK    9  A    between atoms: C_10  and  C_11 
REMARK   10  A    between atoms: C_11  and  C_12 
REMARK   11  A    between atoms: C_12  and  C_13 
REMARK   12  A    between atoms: C_13  and  C_14 
REMARK   13  A    between atoms: C_14  and  C_15 
REMARK   14  A    between atoms: C_15  and  C_16 
REMARK   15  A    between atoms: C_16  and  N_17 
REMARK   16  A    between atoms: N_17  and  C_20 
REMARK   17  A    between atoms: C_20  and  C_21 
ROOT
HETATM    1  C   UNL     1     -22.023  -6.365  -2.419  1.00  0.00     0.000 C 
ENDROOT
BRANCH   1   2
HETATM    2  C   UNL     1     -22.318  -6.855  -1.012  1.00  0.00     0.000 C 
BRANCH   2   3
HETATM    3  C   UNL     1     -21.226  -7.820  -0.576  1.00  0.00     0.000 C 
BRANCH   3   4
HETATM    4  C   UNL     1     -21.646  -8.561   0.681  1.00  0.00     0.000 C 
BRANCH   4   5
HETATM    5  C   UNL     1     -21.318 -10.039   0.552  1.00  0.00     0.000 C 
BRANCH   5   6
HETATM    6  C   UNL     1     -20.792 -10.333  -0.842  1.00  0.00     0.000 C 
BRANCH   6   7
HETATM    7  C   UNL     1     -21.657 -11.376  -1.529  1.00  0.00     0.000 C 
BRANCH   7   8
HETATM    8  C   UNL     1     -23.088 -10.872  -1.650  1.00  0.00     0.000 C 
BRANCH   8   9
HETATM    9  C   UNL     1     -24.035 -11.756  -0.850  1.00  0.00     0.000 C 
BRANCH   9  10
HETATM   10  C   UNL     1     -23.804 -13.223  -1.185  1.00  0.00    -0.000 C 
BRANCH  10  11
HETATM   11  C   UNL     1     -23.665 -14.057   0.083  1.00  0.00    -0.005 C 
HETATM   12  C   UNL     1     -23.270 -13.186   1.262  1.00  0.00     0.005 C 
ENDBRANCH  10  11
ENDBRANCH   9  10
ENDBRANCH   8   9
ENDBRANCH   7   8
ENDBRANCH   6   7
ENDBRANCH   5   6
ENDBRANCH   4   5
ENDBRANCH   3   4
ENDBRANCH   2   3
ENDBRANCH   1   2
BRANCH   1  13
HETATM   13  C   UNL     1     -21.296  -7.427  -3.236  1.00  0.00     0.000 C 
BRANCH  13  14
HETATM   14  C   UNL     1     -21.829  -7.507  -4.667  1.00  0.00     0.002 C 
BRANCH  14  15
HETATM   15  C   UNL     1     -20.789  -7.215  -5.756  1.00  0.00     0.028 C 
BRANCH  15  16
HETATM   16  C   UNL     1     -21.257  -6.166  -6.772  1.00  0.00     0.237 C 
BRANCH  16  17
HETATM   17  N   UNL     1     -20.464  -4.855  -6.660  1.00  0.00    -0.065 N 
HETATM   18  C   UNL     1     -20.084  -4.514  -5.248  1.00  0.00     0.272 C 
HETATM   19  C   UNL     1     -19.249  -4.879  -7.583  1.00  0.00     0.272 C 
BRANCH  17  20
HETATM   20  C   UNL     1     -21.419  -3.695  -7.206  1.00  0.00     0.349 C 
BRANCH  20  21
HETATM   21  C   UNL     1     -22.316  -4.046  -8.427  1.00  0.00     0.199 C 
HETATM   22  O   UNL     1     -21.714  -4.022  -9.536  1.00  0.00    -0.647 OA
HETATM   23  O   UNL     1     -23.540  -4.175  -8.142  1.00  0.00    -0.647 OA
ENDBRANCH  20  21
ENDBRANCH  17  20
ENDBRANCH  16  17
ENDBRANCH  15  16
ENDBRANCH  14  15
ENDBRANCH  13  14
ENDBRANCH   1  13
TORSDOF 17
BEGIN_RES ARG D 557
REMARK  4 active torsions:
REMARK  status: ('A' for Active; 'I' for Inactive)
REMARK    1  A    between atoms: CA   and  CB  
REMARK    2  A    between atoms: CB   and  CG  
REMARK    3  A    between atoms: CG   and  CD  
REMARK    4  A    between atoms: CD   and  NE  
REMARK       I    between atoms: NE   and  CZ  
REMARK       I    between atoms: CZ   and  NH1 
REMARK       I    between atoms: CZ   and  NH2 
ROOT
ATOM      1  CA  ARG D 557     -26.217   2.705 -17.014  1.00 35.49     0.159 C 
ENDROOT
BRANCH   1   2
ATOM      2  CB  ARG D 557     -26.789   1.319 -17.183  1.00 35.49     0.034 C 
BRANCH   2   3
ATOM      3  CG  ARG D 557     -25.837   0.202 -17.149  1.00 35.49     0.027 C 
BRANCH   3   4
ATOM      4  CD  ARG D 557     -24.747   0.420 -16.170  1.00 35.49     0.116 C 
BRANCH   4   5
ATOM      5  NE  ARG D 557     -24.883  -0.420 -15.010  1.00 35.49    -0.212 N 
ATOM      6  CZ  ARG D 557     -24.072  -1.397 -14.669  1.00 35.49     0.666 C 
ATOM      7  NH1 ARG D 557     -23.017  -1.727 -15.392  1.00 35.49    -0.235 N 
ATOM      8  NH2 ARG D 557     -24.338  -2.042 -13.571  1.00 35.49    -0.235 N 
ATOM      9  HH  ARG D 557     -22.822  -1.315 -16.117  1.00 35.49     0.174 HD
ATOM     10  HH  ARG D 557     -22.523  -2.371 -15.118  1.00 35.49     0.174 HD
ATOM     11  HH  ARG D 557     -25.021  -1.801 -13.121  1.00 35.49     0.174 HD
ATOM     12  HH  ARG D 557     -23.835  -2.675 -13.316  1.00 35.49     0.174 HD
ATOM     13  HE  ARG D 557     -25.576  -0.324 -14.527  1.00 35.49     0.178 HD
ENDBRANCH   4   5
ENDBRANCH   3   4
ENDBRANCH   2   3
ENDBRANCH   1   2
END_RES ARG D 557
BEGIN_RES GLU D 570
REMARK  3 active torsions:
REMARK  status: ('A' for Active; 'I' for Inactive)
REMARK    5  A    between atoms: CA   and  CB  
REMARK    6  A    between atoms: CB   and  CG  
REMARK    7  A    between atoms: CG   and  CD  
ROOT
ATOM     14  CA  GLU D 570     -18.033  -6.348 -13.375  1.00 32.92     0.160 C 
ENDROOT
BRANCH  14  15
ATOM     15  CB  GLU D 570     -19.500  -6.345 -13.794  1.00 32.92     0.043 C 
BRANCH  15  16
ATOM     16  CG  GLU D 570     -20.443  -5.536 -12.979  1.00 32.92     0.100 C 
BRANCH  16  17
ATOM     17  CD  GLU D 570     -21.734  -5.231 -13.702  1.00 32.92     0.185 C 
ATOM     18  OE1 GLU D 570     -22.186  -6.062 -14.512  1.00 32.92    -0.647 OA
ATOM     19  OE2 GLU D 570     -22.291  -4.140 -13.468  1.00 32.92    -0.647 OA
ENDBRANCH  16  17
ENDBRANCH  15  16
ENDBRANCH  14  15
END_RES GLU D 570
ENDMDL
