MODEL 1
REMARK VINA RESULT:      -7.2      0.000      0.000
REMARK  17 active torsions:
REMARK  status: ('A' for Active; 'I' for Inactive)
REMARK    1  A    between atoms: C_1  and  C_2 
REMARK    2  A    between atoms: C_1  and  O_24 
REMARK    3  A    between atoms: C_3  and  O_23 
REMARK    4  A    between atoms: C_4  and  O_22 
REMARK    5  A    between atoms: C_5  and  O_21 
REMARK    6  A    between atoms: C_6  and  O_8 
REMARK    7  A    between atoms: O_8  and  C_9 
REMARK    8  A    between atoms: C_9  and  C_10 
REMARK    9  A    between atoms: C_9  and  C_14 
REMARK   10  A    between atoms: C_10  and  C_11 
REMARK   11  A    between atoms: C_10  and  O_13 
REMARK   12  A    between atoms: C_11  and  O_12 
REMARK   13  A    between atoms: C_14  and  C_15 
REMARK   14  A    between atoms: C_14  and  O_20 
REMARK   15  A    between atoms: C_15  and  C_16 
REMARK   16  A    between atoms: C_15  and  O_19 
REMARK   17  A    between atoms: C_16  and  O_18 
ROOT
HETATM    1  C   UNL     1     -24.497  -3.631 -12.970  1.00  0.00     0.187 C 
ENDROOT
BRANCH   1   2
HETATM    2  O   UNL     1     -24.001  -4.534 -13.992  1.00  0.00    -0.348 OA
BRANCH   2   3
HETATM    3  C   UNL     1     -24.936  -5.456 -14.585  1.00  0.00     0.292 C 
HETATM    4  C   UNL     1     -24.081  -6.595 -15.183  1.00  0.00     0.204 C 
HETATM    5  C   UNL     1     -24.971  -7.589 -15.929  1.00  0.00     0.183 C 
HETATM    6  C   UNL     1     -25.800  -6.867 -17.005  1.00  0.00     0.180 C 
HETATM    7  C   UNL     1     -26.569  -5.683 -16.376  1.00  0.00     0.179 C 
HETATM    8  O   UNL     1     -25.696  -4.814 -15.605  1.00  0.00    -0.348 OA
BRANCH   4   9
HETATM    9  O   UNL     1     -23.117  -6.054 -16.118  1.00  0.00    -0.388 OA
HETATM   10  H   UNL     1     -22.491  -6.787 -16.281  1.00  0.00     0.210 HD
ENDBRANCH   4   9
BRANCH   5  11
HETATM   11  O   UNL     1     -24.159  -8.613 -16.510  1.00  0.00    -0.390 OA
HETATM   12  H   UNL     1     -23.394  -8.715 -15.908  1.00  0.00     0.210 HD
ENDBRANCH   5  11
BRANCH   6  13
HETATM   13  O   UNL     1     -24.951  -6.381 -18.057  1.00  0.00    -0.390 OA
HETATM   14  H   UNL     1     -24.718  -5.462 -17.839  1.00  0.00     0.210 HD
ENDBRANCH   6  13
BRANCH   7  15
HETATM   15  C   UNL     1     -27.773  -6.186 -15.559  1.00  0.00     0.198 C 
BRANCH  15  16
HETATM   16  O   UNL     1     -28.812  -5.213 -15.534  1.00  0.00    -0.398 OA
HETATM   17  H   UNL     1     -28.456  -4.409 -15.955  1.00  0.00     0.209 HD
ENDBRANCH  15  16
ENDBRANCH   7  15
ENDBRANCH   2   3
ENDBRANCH   1   2
BRANCH   1  18
HETATM   18  C   UNL     1     -23.518  -3.512 -11.758  1.00  0.00     0.173 C 
BRANCH  18  19
HETATM   19  C   UNL     1     -22.302  -4.451 -11.762  1.00  0.00     0.198 C 
BRANCH  19  20
HETATM   20  O   UNL     1     -21.260  -3.876 -12.558  1.00  0.00    -0.398 OA
HETATM   21  H   UNL     1     -20.472  -4.433 -12.407  1.00  0.00     0.209 HD
ENDBRANCH  19  20
ENDBRANCH  18  19
BRANCH  18  22
HETATM   22  O   UNL     1     -22.952  -2.171 -11.710  1.00  0.00    -0.391 OA
HETATM   23  H   UNL     1     -23.062  -1.797 -12.608  1.00  0.00     0.210 HD
ENDBRANCH  18  22
ENDBRANCH   1  18
BRANCH   1  24
HETATM   24  C   UNL     1     -24.745  -2.272 -13.702  1.00  0.00     0.189 C 
BRANCH  24  25
HETATM   25  C   UNL     1     -23.886  -2.070 -14.970  1.00  0.00     0.246 C 
BRANCH  25  26
HETATM   26  C   UNL     1     -23.900  -0.624 -15.455  1.00  0.00     0.172 C 
HETATM   27  O   UNL     1     -24.698   0.227 -15.093  1.00  0.00    -0.648 OA
BRANCH  26  28
HETATM   28  O   UNL     1     -22.865  -0.358 -16.288  1.00  0.00    -0.774 OA
HETATM   29  H   UNL     1     -22.334  -1.175 -16.430  1.00  0.00     0.167 HD
ENDBRANCH  26  28
ENDBRANCH  25  26
BRANCH  25  30
HETATM   30  O   UNL     1     -22.502  -2.370 -14.693  1.00  0.00    -0.382 OA
HETATM   31  H   UNL     1     -22.289  -3.164 -15.229  1.00  0.00     0.210 HD
ENDBRANCH  25  30
ENDBRANCH  24  25
BRANCH  24  32
HETATM   32  O   UNL     1     -26.115  -2.043 -14.058  1.00  0.00    -0.390 OA
HETATM   33  H   UNL     1     -26.346  -2.654 -14.790  1.00  0.00     0.210 HD
ENDBRANCH  24  32
ENDBRANCH   1  24
TORSDOF 17
BEGIN_RES ARG D 557
REMARK  4 active torsions:
REMARK  status: ('A' for Active; 'I' for Inactive)
REMARK    1  A    between atoms: CA   and  CB  
REMARK    2  A    between atoms: CB   and  CG  
REMARK    3  A    between atoms: CG   and  CD  
REMARK    4  A    between atoms: CD   and  NE  
REMARK       I    between atoms: NE   and  CZ  
REMARK       I    between atoms: CZ   and  NH1 
REMARK       I    between atoms: CZ   and  NH2 
ROOT
ATOM      1  CA  ARG D 557     -26.217   2.705 -17.014  1.00 35.49     0.159 C 
ENDROOT
BRANCH   1   2
ATOM      2  CB  ARG D 557     -26.789   1.319 -17.183  1.00 35.49     0.034 C 
BRANCH   2   3
ATOM      3  CG  ARG D 557     -28.238   1.224 -17.397  1.00 35.49     0.027 C 
BRANCH   3   4
ATOM      4  CD  ARG D 557     -28.885   0.273 -16.465  1.00 35.49     0.116 C 
BRANCH   4   5
ATOM      5  NE  ARG D 557     -29.333  -0.921 -17.132  1.00 35.49    -0.212 N 
ATOM      6  CZ  ARG D 557     -28.747  -2.096 -17.078  1.00 35.49     0.666 C 
ATOM      7  NH1 ARG D 557     -27.638  -2.305 -16.392  1.00 35.49    -0.235 N 
ATOM      8  NH2 ARG D 557     -29.304  -3.075 -17.729  1.00 35.49    -0.235 N 
ATOM      9  HH  ARG D 557     -27.255  -1.676 -15.955  1.00 35.49     0.174 HD
ATOM     10  HH  ARG D 557     -27.302  -3.093 -16.392  1.00 35.49     0.174 HD
ATOM     11  HH  ARG D 557     -30.024  -2.913 -18.157  1.00 35.49     0.174 HD
ATOM     12  HH  ARG D 557     -28.957  -3.849 -17.715  1.00 35.49     0.174 HD
ATOM     13  HE  ARG D 557     -30.000  -0.860 -17.655  1.00 35.49     0.178 HD
ENDBRANCH   4   5
ENDBRANCH   3   4
ENDBRANCH   2   3
ENDBRANCH   1   2
END_RES ARG D 557
BEGIN_RES GLU D 570
REMARK  3 active torsions:
REMARK  status: ('A' for Active; 'I' for Inactive)
REMARK    5  A    between atoms: CA   and  CB  
REMARK    6  A    between atoms: CB   and  CG  
REMARK    7  A    between atoms: CG   and  CD  
ROOT
ATOM     14  CA  GLU D 570     -18.033  -6.348 -13.375  1.00 32.92     0.160 C 
ENDROOT
BRANCH  14  15
ATOM     15  CB  GLU D 570     -19.500  -6.345 -13.794  1.00 32.92     0.043 C 
BRANCH  15  16
ATOM     16  CG  GLU D 570     -20.090  -7.637 -14.229  1.00 32.92     0.100 C 
BRANCH  16  17
ATOM     17  CD  GLU D 570     -20.579  -7.610 -15.659  1.00 32.92     0.185 C 
ATOM     18  OE1 GLU D 570     -20.334  -6.612 -16.363  1.00 32.92    -0.647 OA
ATOM     19  OE2 GLU D 570     -21.229  -8.590 -16.073  1.00 32.92    -0.647 OA
ENDBRANCH  16  17
ENDBRANCH  15  16
ENDBRANCH  14  15
END_RES GLU D 570
ENDMDL
MODEL 2
REMARK VINA RESULT:      -7.1      1.376      2.794
REMARK  17 active torsions:
REMARK  status: ('A' for Active; 'I' for Inactive)
REMARK    1  A    between atoms: C_1  and  C_2 
REMARK    2  A    between atoms: C_1  and  O_24 
REMARK    3  A    between atoms: C_3  and  O_23 
REMARK    4  A    between atoms: C_4  and  O_22 
REMARK    5  A    between atoms: C_5  and  O_21 
REMARK    6  A    between atoms: C_6  and  O_8 
REMARK    7  A    between atoms: O_8  and  C_9 
REMARK    8  A    between atoms: C_9  and  C_10 
REMARK    9  A    between atoms: C_9  and  C_14 
REMARK   10  A    between atoms: C_10  and  C_11 
REMARK   11  A    between atoms: C_10  and  O_13 
REMARK   12  A    between atoms: C_11  and  O_12 
REMARK   13  A    between atoms: C_14  and  C_15 
REMARK   14  A    between atoms: C_14  and  O_20 
REMARK   15  A    between atoms: C_15  and  C_16 
REMARK   16  A    between atoms: C_15  and  O_19 
REMARK   17  A    between atoms: C_16  and  O_18 
ROOT
HETATM    1  C   UNL     1     -23.768  -4.397 -13.321  1.00  0.00     0.187 C 
ENDROOT
BRANCH   1   2
HETATM    2  O   UNL     1     -24.662  -4.127 -14.432  1.00  0.00    -0.348 OA
BRANCH   2   3
HETATM    3  C   UNL     1     -25.486  -5.209 -14.909  1.00  0.00     0.292 C 
HETATM    4  C   UNL     1     -24.508  -6.326 -15.332  1.00  0.00     0.204 C 
HETATM    5  C   UNL     1     -25.275  -7.495 -15.950  1.00  0.00     0.183 C 
HETATM    6  C   UNL     1     -26.138  -7.010 -17.128  1.00  0.00     0.180 C 
HETATM    7  C   UNL     1     -27.035  -5.835 -16.679  1.00  0.00     0.179 C 
HETATM    8  O   UNL     1     -26.274  -4.788 -16.020  1.00  0.00    -0.348 OA
BRANCH   4   9
HETATM    9  O   UNL     1     -23.573  -5.822 -16.316  1.00  0.00    -0.388 OA
HETATM   10  H   UNL     1     -22.707  -5.828 -15.862  1.00  0.00     0.210 HD
ENDBRANCH   4   9
BRANCH   5  11
HETATM   11  O   UNL     1     -24.351  -8.502 -16.374  1.00  0.00    -0.390 OA
HETATM   12  H   UNL     1     -23.793  -8.691 -15.592  1.00  0.00     0.210 HD
ENDBRANCH   5  11
BRANCH   6  13
HETATM   13  O   UNL     1     -25.309  -6.587 -18.222  1.00  0.00    -0.390 OA
HETATM   14  H   UNL     1     -25.578  -5.682 -18.457  1.00  0.00     0.210 HD
ENDBRANCH   6  13
BRANCH   7  15
HETATM   15  C   UNL     1     -28.209  -6.342 -15.821  1.00  0.00     0.198 C 
BRANCH  15  16
HETATM   16  O   UNL     1     -29.352  -5.508 -15.981  1.00  0.00    -0.398 OA
HETATM   17  H   UNL     1     -30.099  -6.093 -16.207  1.00  0.00     0.209 HD
ENDBRANCH  15  16
ENDBRANCH   7  15
ENDBRANCH   2   3
ENDBRANCH   1   2
BRANCH   1  18
HETATM   18  C   UNL     1     -22.271  -4.139 -13.688  1.00  0.00     0.173 C 
BRANCH  18  19
HETATM   19  C   UNL     1     -22.003  -3.465 -15.042  1.00  0.00     0.198 C 
BRANCH  19  20
HETATM   20  O   UNL     1     -22.818  -2.294 -15.161  1.00  0.00    -0.398 OA
HETATM   21  H   UNL     1     -22.236  -1.601 -15.529  1.00  0.00     0.209 HD
ENDBRANCH  19  20
ENDBRANCH  18  19
BRANCH  18  22
HETATM   22  O   UNL     1     -21.667  -3.250 -12.704  1.00  0.00    -0.391 OA
HETATM   23  H   UNL     1     -22.271  -2.484 -12.624  1.00  0.00     0.210 HD
ENDBRANCH  18  22
ENDBRANCH   1  18
BRANCH   1  24
HETATM   24  C   UNL     1     -24.282  -3.501 -12.147  1.00  0.00     0.189 C 
BRANCH  24  25
HETATM   25  C   UNL     1     -23.786  -3.940 -10.752  1.00  0.00     0.246 C 
BRANCH  25  26
HETATM   26  C   UNL     1     -24.708  -3.467  -9.633  1.00  0.00     0.172 C 
HETATM   27  O   UNL     1     -25.826  -3.002  -9.798  1.00  0.00    -0.648 OA
BRANCH  26  28
HETATM   28  O   UNL     1     -24.177  -3.692  -8.407  1.00  0.00    -0.774 OA
HETATM   29  H   UNL     1     -23.495  -4.401  -8.465  1.00  0.00     0.167 HD
ENDBRANCH  26  28
ENDBRANCH  25  26
BRANCH  25  30
HETATM   30  O   UNL     1     -23.770  -5.380 -10.654  1.00  0.00    -0.382 OA
HETATM   31  H   UNL     1     -23.056  -5.681 -11.256  1.00  0.00     0.210 HD
ENDBRANCH  25  30
ENDBRANCH  24  25
BRANCH  24  32
HETATM   32  O   UNL     1     -23.980  -2.108 -12.302  1.00  0.00    -0.390 OA
HETATM   33  H   UNL     1     -24.105  -1.671 -11.433  1.00  0.00     0.210 HD
ENDBRANCH  24  32
ENDBRANCH   1  24
TORSDOF 17
BEGIN_RES ARG D 557
REMARK  4 active torsions:
REMARK  status: ('A' for Active; 'I' for Inactive)
REMARK    1  A    between atoms: CA   and  CB  
REMARK    2  A    between atoms: CB   and  CG  
REMARK    3  A    between atoms: CG   and  CD  
REMARK    4  A    between atoms: CD   and  NE  
REMARK       I    between atoms: NE   and  CZ  
REMARK       I    between atoms: CZ   and  NH1 
REMARK       I    between atoms: CZ   and  NH2 
ROOT
ATOM      1  CA  ARG D 557     -26.217   2.705 -17.014  1.00 35.49     0.159 C 
ENDROOT
BRANCH   1   2
ATOM      2  CB  ARG D 557     -26.789   1.319 -17.183  1.00 35.49     0.034 C 
BRANCH   2   3
ATOM      3  CG  ARG D 557     -28.232   1.226 -17.434  1.00 35.49     0.027 C 
BRANCH   3   4
ATOM      4  CD  ARG D 557     -28.909   0.299 -16.498  1.00 35.49     0.116 C 
BRANCH   4   5
ATOM      5  NE  ARG D 557     -29.290  -0.933 -17.136  1.00 35.49    -0.212 N 
ATOM      6  CZ  ARG D 557     -28.655  -2.080 -17.034  1.00 35.49     0.666 C 
ATOM      7  NH1 ARG D 557     -27.554  -2.219 -16.319  1.00 35.49    -0.235 N 
ATOM      8  NH2 ARG D 557     -29.156  -3.102 -17.665  1.00 35.49    -0.235 N 
ATOM      9  HH  ARG D 557     -27.208  -1.560 -15.894  1.00 35.49     0.174 HD
ATOM     10  HH  ARG D 557     -27.184  -2.991 -16.287  1.00 35.49     0.174 HD
ATOM     11  HH  ARG D 557     -29.872  -2.984 -18.113  1.00 35.49     0.174 HD
ATOM     12  HH  ARG D 557     -28.776  -3.858 -17.620  1.00 35.49     0.174 HD
ATOM     13  HE  ARG D 557     -29.948  -0.918 -17.675  1.00 35.49     0.178 HD
ENDBRANCH   4   5
ENDBRANCH   3   4
ENDBRANCH   2   3
ENDBRANCH   1   2
END_RES ARG D 557
BEGIN_RES GLU D 570
REMARK  3 active torsions:
REMARK  status: ('A' for Active; 'I' for Inactive)
REMARK    5  A    between atoms: CA   and  CB  
REMARK    6  A    between atoms: CB   and  CG  
REMARK    7  A    between atoms: CG   and  CD  
ROOT
ATOM     14  CA  GLU D 570     -18.033  -6.348 -13.375  1.00 32.92     0.160 C 
ENDROOT
BRANCH  14  15
ATOM     15  CB  GLU D 570     -19.500  -6.345 -13.794  1.00 32.92     0.043 C 
BRANCH  15  16
ATOM     16  CG  GLU D 570     -20.092  -7.638 -14.224  1.00 32.92     0.100 C 
BRANCH  16  17
ATOM     17  CD  GLU D 570     -20.751  -7.562 -15.582  1.00 32.92     0.185 C 
ATOM     18  OE1 GLU D 570     -21.338  -8.567 -16.027  1.00 32.92    -0.647 OA
ATOM     19  OE2 GLU D 570     -20.666  -6.491 -16.214  1.00 32.92    -0.647 OA
ENDBRANCH  16  17
ENDBRANCH  15  16
ENDBRANCH  14  15
END_RES GLU D 570
ENDMDL
MODEL 3
REMARK VINA RESULT:      -6.9      1.399      3.545
REMARK  17 active torsions:
REMARK  status: ('A' for Active; 'I' for Inactive)
REMARK    1  A    between atoms: C_1  and  C_2 
REMARK    2  A    between atoms: C_1  and  O_24 
REMARK    3  A    between atoms: C_3  and  O_23 
REMARK    4  A    between atoms: C_4  and  O_22 
REMARK    5  A    between atoms: C_5  and  O_21 
REMARK    6  A    between atoms: C_6  and  O_8 
REMARK    7  A    between atoms: O_8  and  C_9 
REMARK    8  A    between atoms: C_9  and  C_10 
REMARK    9  A    between atoms: C_9  and  C_14 
REMARK   10  A    between atoms: C_10  and  C_11 
REMARK   11  A    between atoms: C_10  and  O_13 
REMARK   12  A    between atoms: C_11  and  O_12 
REMARK   13  A    between atoms: C_14  and  C_15 
REMARK   14  A    between atoms: C_14  and  O_20 
REMARK   15  A    between atoms: C_15  and  C_16 
REMARK   16  A    between atoms: C_15  and  O_19 
REMARK   17  A    between atoms: C_16  and  O_18 
ROOT
HETATM    1  C   UNL     1     -24.272  -3.125 -14.054  1.00  0.00     0.187 C 
ENDROOT
BRANCH   1   2
HETATM    2  O   UNL     1     -25.567  -3.662 -14.429  1.00  0.00    -0.348 OA
BRANCH   2   3
HETATM    3  C   UNL     1     -25.594  -4.755 -15.370  1.00  0.00     0.292 C 
HETATM    4  C   UNL     1     -27.024  -4.773 -15.951  1.00  0.00     0.204 C 
HETATM    5  C   UNL     1     -27.197  -5.962 -16.896  1.00  0.00     0.183 C 
HETATM    6  C   UNL     1     -26.852  -7.277 -16.173  1.00  0.00     0.180 C 
HETATM    7  C   UNL     1     -25.450  -7.179 -15.534  1.00  0.00     0.179 C 
HETATM    8  O   UNL     1     -25.305  -5.988 -14.715  1.00  0.00    -0.348 OA
BRANCH   4   9
HETATM    9  O   UNL     1     -27.994  -4.894 -14.883  1.00  0.00    -0.388 OA
HETATM   10  H   UNL     1     -28.342  -3.988 -14.759  1.00  0.00     0.210 HD
ENDBRANCH   4   9
BRANCH   5  11
HETATM   11  O   UNL     1     -28.537  -5.987 -17.392  1.00  0.00    -0.390 OA
HETATM   12  H   UNL     1     -28.500  -6.503 -18.223  1.00  0.00     0.210 HD
ENDBRANCH   5  11
BRANCH   6  13
HETATM   13  O   UNL     1     -27.824  -7.564 -15.155  1.00  0.00    -0.390 OA
HETATM   14  H   UNL     1     -27.834  -6.807 -14.543  1.00  0.00     0.210 HD
ENDBRANCH   6  13
BRANCH   7  15
HETATM   15  C   UNL     1     -24.351  -7.296 -16.607  1.00  0.00     0.198 C 
BRANCH  15  16
HETATM   16  O   UNL     1     -23.388  -8.280 -16.243  1.00  0.00    -0.398 OA
HETATM   17  H   UNL     1     -23.531  -8.479 -15.299  1.00  0.00     0.209 HD
ENDBRANCH  15  16
ENDBRANCH   7  15
ENDBRANCH   2   3
ENDBRANCH   1   2
BRANCH   1  18
HETATM   18  C   UNL     1     -24.172  -1.586 -14.307  1.00  0.00     0.173 C 
BRANCH  18  19
HETATM   19  C   UNL     1     -23.149  -1.128 -15.357  1.00  0.00     0.198 C 
BRANCH  19  20
HETATM   20  O   UNL     1     -22.326  -2.237 -15.736  1.00  0.00    -0.398 OA
HETATM   21  H   UNL     1     -21.710  -1.894 -16.412  1.00  0.00     0.209 HD
ENDBRANCH  19  20
ENDBRANCH  18  19
BRANCH  18  22
HETATM   22  O   UNL     1     -25.451  -1.081 -14.790  1.00  0.00    -0.391 OA
HETATM   23  H   UNL     1     -26.122  -1.745 -14.528  1.00  0.00     0.210 HD
ENDBRANCH  18  22
ENDBRANCH   1  18
BRANCH   1  24
HETATM   24  C   UNL     1     -24.078  -3.521 -12.554  1.00  0.00     0.189 C 
BRANCH  24  25
HETATM   25  C   UNL     1     -22.732  -3.062 -11.949  1.00  0.00     0.246 C 
BRANCH  25  26
HETATM   26  C   UNL     1     -22.401  -3.793 -10.652  1.00  0.00     0.172 C 
HETATM   27  O   UNL     1     -21.447  -4.540 -10.495  1.00  0.00    -0.648 OA
BRANCH  26  28
HETATM   28  O   UNL     1     -23.249  -3.460  -9.650  1.00  0.00    -0.774 OA
HETATM   29  H   UNL     1     -24.098  -3.132 -10.027  1.00  0.00     0.167 HD
ENDBRANCH  26  28
ENDBRANCH  25  26
BRANCH  25  30
HETATM   30  O   UNL     1     -21.646  -3.365 -12.849  1.00  0.00    -0.382 OA
HETATM   31  H   UNL     1     -20.842  -3.422 -12.288  1.00  0.00     0.210 HD
ENDBRANCH  25  30
ENDBRANCH  24  25
BRANCH  24  32
HETATM   32  O   UNL     1     -25.126  -3.065 -11.690  1.00  0.00    -0.390 OA
HETATM   33  H   UNL     1     -25.561  -2.296 -12.116  1.00  0.00     0.210 HD
ENDBRANCH  24  32
ENDBRANCH   1  24
TORSDOF 17
BEGIN_RES ARG D 557
REMARK  4 active torsions:
REMARK  status: ('A' for Active; 'I' for Inactive)
REMARK    1  A    between atoms: CA   and  CB  
REMARK    2  A    between atoms: CB   and  CG  
REMARK    3  A    between atoms: CG   and  CD  
REMARK    4  A    between atoms: CD   and  NE  
REMARK       I    between atoms: NE   and  CZ  
REMARK       I    between atoms: CZ   and  NH1 
REMARK       I    between atoms: CZ   and  NH2 
ROOT
ATOM      1  CA  ARG D 557     -26.217   2.705 -17.014  1.00 35.49     0.159 C 
ENDROOT
BRANCH   1   2
ATOM      2  CB  ARG D 557     -26.789   1.319 -17.183  1.00 35.49     0.034 C 
BRANCH   2   3
ATOM      3  CG  ARG D 557     -28.200   1.230 -17.579  1.00 35.49     0.027 C 
BRANCH   3   4
ATOM      4  CD  ARG D 557     -29.005   0.437 -16.623  1.00 35.49     0.116 C 
BRANCH   4   5
ATOM      5  NE  ARG D 557     -29.430  -0.819 -17.182  1.00 35.49    -0.212 N 
ATOM      6  CZ  ARG D 557     -28.796  -1.965 -17.067  1.00 35.49     0.666 C 
ATOM      7  NH1 ARG D 557     -27.655  -2.081 -16.413  1.00 35.49    -0.235 N 
ATOM      8  NH2 ARG D 557     -29.338  -3.009 -17.622  1.00 35.49    -0.235 N 
ATOM      9  HH  ARG D 557     -27.281  -1.407 -16.038  1.00 35.49     0.174 HD
ATOM     10  HH  ARG D 557     -27.289  -2.854 -16.368  1.00 35.49     0.174 HD
ATOM     11  HH  ARG D 557     -30.079  -2.906 -18.031  1.00 35.49     0.174 HD
ATOM     12  HH  ARG D 557     -28.961  -3.766 -17.565  1.00 35.49     0.174 HD
ATOM     13  HE  ARG D 557     -30.118  -0.822 -17.681  1.00 35.49     0.178 HD
ENDBRANCH   4   5
ENDBRANCH   3   4
ENDBRANCH   2   3
ENDBRANCH   1   2
END_RES ARG D 557
BEGIN_RES GLU D 570
REMARK  3 active torsions:
REMARK  status: ('A' for Active; 'I' for Inactive)
REMARK    5  A    between atoms: CA   and  CB  
REMARK    6  A    between atoms: CB   and  CG  
REMARK    7  A    between atoms: CG   and  CD  
ROOT
ATOM     14  CA  GLU D 570     -18.033  -6.348 -13.375  1.00 32.92     0.160 C 
ENDROOT
BRANCH  14  15
ATOM     15  CB  GLU D 570     -19.500  -6.345 -13.794  1.00 32.92     0.043 C 
BRANCH  15  16
ATOM     16  CG  GLU D 570     -19.812  -5.950 -15.192  1.00 32.92     0.100 C 
BRANCH  16  17
ATOM     17  CD  GLU D 570     -21.264  -5.582 -15.391  1.00 32.92     0.185 C 
ATOM     18  OE1 GLU D 570     -22.092  -5.889 -14.511  1.00 32.92    -0.647 OA
ATOM     19  OE2 GLU D 570     -21.579  -4.996 -16.445  1.00 32.92    -0.647 OA
ENDBRANCH  16  17
ENDBRANCH  15  16
ENDBRANCH  14  15
END_RES GLU D 570
ENDMDL
MODEL 4
REMARK VINA RESULT:      -6.0      1.724      5.096
REMARK  17 active torsions:
REMARK  status: ('A' for Active; 'I' for Inactive)
REMARK    1  A    between atoms: C_1  and  C_2 
REMARK    2  A    between atoms: C_1  and  O_24 
REMARK    3  A    between atoms: C_3  and  O_23 
REMARK    4  A    between atoms: C_4  and  O_22 
REMARK    5  A    between atoms: C_5  and  O_21 
REMARK    6  A    between atoms: C_6  and  O_8 
REMARK    7  A    between atoms: O_8  and  C_9 
REMARK    8  A    between atoms: C_9  and  C_10 
REMARK    9  A    between atoms: C_9  and  C_14 
REMARK   10  A    between atoms: C_10  and  C_11 
REMARK   11  A    between atoms: C_10  and  O_13 
REMARK   12  A    between atoms: C_11  and  O_12 
REMARK   13  A    between atoms: C_14  and  C_15 
REMARK   14  A    between atoms: C_14  and  O_20 
REMARK   15  A    between atoms: C_15  and  C_16 
REMARK   16  A    between atoms: C_15  and  O_19 
REMARK   17  A    between atoms: C_16  and  O_18 
ROOT
HETATM    1  C   UNL     1     -23.498  -5.014 -14.163  1.00  0.00     0.187 C 
ENDROOT
BRANCH   1   2
HETATM    2  O   UNL     1     -24.039  -4.708 -12.852  1.00  0.00    -0.348 OA
BRANCH   2   3
HETATM    3  C   UNL     1     -23.154  -4.812 -11.718  1.00  0.00     0.292 C 
HETATM    4  C   UNL     1     -24.070  -4.896 -10.478  1.00  0.00     0.204 C 
HETATM    5  C   UNL     1     -23.229  -4.913  -9.201  1.00  0.00     0.183 C 
HETATM    6  C   UNL     1     -22.304  -3.684  -9.150  1.00  0.00     0.180 C 
HETATM    7  C   UNL     1     -21.473  -3.593 -10.449  1.00  0.00     0.179 C 
HETATM    8  O   UNL     1     -22.306  -3.670 -11.637  1.00  0.00    -0.348 OA
BRANCH   4   9
HETATM    9  O   UNL     1     -24.950  -3.749 -10.431  1.00  0.00    -0.388 OA
HETATM   10  H   UNL     1     -24.703  -3.278  -9.610  1.00  0.00     0.210 HD
ENDBRANCH   4   9
BRANCH   5  11
HETATM   11  O   UNL     1     -24.093  -4.949  -8.062  1.00  0.00    -0.390 OA
HETATM   12  H   UNL     1     -24.314  -5.894  -7.929  1.00  0.00     0.210 HD
ENDBRANCH   5  11
BRANCH   6  13
HETATM   13  O   UNL     1     -23.070  -2.480  -8.987  1.00  0.00    -0.390 OA
HETATM   14  H   UNL     1     -23.145  -2.064  -9.863  1.00  0.00     0.210 HD
ENDBRANCH   6  13
BRANCH   7  15
HETATM   15  C   UNL     1     -20.344  -4.641 -10.450  1.00  0.00     0.198 C 
BRANCH  15  16
HETATM   16  O   UNL     1     -19.798  -4.801  -9.146  1.00  0.00    -0.398 OA
HETATM   17  H   UNL     1     -20.488  -5.220  -8.600  1.00  0.00     0.209 HD
ENDBRANCH  15  16
ENDBRANCH   7  15
ENDBRANCH   2   3
ENDBRANCH   1   2
BRANCH   1  18
HETATM   18  C   UNL     1     -24.355  -6.073 -14.927  1.00  0.00     0.173 C 
BRANCH  18  19
HETATM   19  C   UNL     1     -25.777  -5.647 -15.325  1.00  0.00     0.198 C 
BRANCH  19  20
HETATM   20  O   UNL     1     -25.956  -5.843 -16.732  1.00  0.00    -0.398 OA
HETATM   21  H   UNL     1     -25.525  -6.695 -16.939  1.00  0.00     0.209 HD
ENDBRANCH  19  20
ENDBRANCH  18  19
BRANCH  18  22
HETATM   22  O   UNL     1     -23.706  -6.421 -16.184  1.00  0.00    -0.391 OA
HETATM   23  H   UNL     1     -22.765  -6.168 -16.083  1.00  0.00     0.210 HD
ENDBRANCH  18  22
ENDBRANCH   1  18
BRANCH   1  24
HETATM   24  C   UNL     1     -23.404  -3.640 -14.904  1.00  0.00     0.189 C 
BRANCH  24  25
HETATM   25  C   UNL     1     -24.041  -2.462 -14.134  1.00  0.00     0.246 C 
BRANCH  25  26
HETATM   26  C   UNL     1     -23.971  -1.153 -14.915  1.00  0.00     0.172 C 
HETATM   27  O   UNL     1     -23.043  -0.819 -15.636  1.00  0.00    -0.648 OA
BRANCH  26  28
HETATM   28  O   UNL     1     -25.103  -0.421 -14.783  1.00  0.00    -0.774 OA
HETATM   29  H   UNL     1     -24.986   0.246 -14.067  1.00  0.00     0.167 HD
ENDBRANCH  26  28
ENDBRANCH  25  26
BRANCH  25  30
HETATM   30  O   UNL     1     -25.447  -2.704 -13.916  1.00  0.00    -0.382 OA
HETATM   31  H   UNL     1     -25.659  -3.520 -14.419  1.00  0.00     0.210 HD
ENDBRANCH  25  30
ENDBRANCH  24  25
BRANCH  24  32
HETATM   32  O   UNL     1     -22.070  -3.260 -15.263  1.00  0.00    -0.390 OA
HETATM   33  H   UNL     1     -22.014  -3.231 -16.241  1.00  0.00     0.210 HD
ENDBRANCH  24  32
ENDBRANCH   1  24
TORSDOF 17
BEGIN_RES ARG D 557
REMARK  4 active torsions:
REMARK  status: ('A' for Active; 'I' for Inactive)
REMARK    1  A    between atoms: CA   and  CB  
REMARK    2  A    between atoms: CB   and  CG  
REMARK    3  A    between atoms: CG   and  CD  
REMARK    4  A    between atoms: CD   and  NE  
REMARK       I    between atoms: NE   and  CZ  
REMARK       I    between atoms: CZ   and  NH1 
REMARK       I    between atoms: CZ   and  NH2 
ROOT
ATOM      1  CA  ARG D 557     -26.217   2.705 -17.014  1.00 35.49     0.159 C 
ENDROOT
BRANCH   1   2
ATOM      2  CB  ARG D 557     -26.789   1.319 -17.183  1.00 35.49     0.034 C 
BRANCH   2   3
ATOM      3  CG  ARG D 557     -28.233   1.226 -17.432  1.00 35.49     0.027 C 
BRANCH   3   4
ATOM      4  CD  ARG D 557     -28.907   0.293 -16.500  1.00 35.49     0.116 C 
BRANCH   4   5
ATOM      5  NE  ARG D 557     -29.193  -0.976 -17.117  1.00 35.49    -0.212 N 
ATOM      6  CZ  ARG D 557     -28.499  -2.081 -16.959  1.00 35.49     0.666 C 
ATOM      7  NH1 ARG D 557     -27.419  -2.137 -16.202  1.00 35.49    -0.235 N 
ATOM      8  NH2 ARG D 557     -28.916  -3.146 -17.579  1.00 35.49    -0.235 N 
ATOM      9  HH  ARG D 557     -27.127  -1.449 -15.783  1.00 35.49     0.174 HD
ATOM     10  HH  ARG D 557     -27.008  -2.886 -16.134  1.00 35.49     0.174 HD
ATOM     11  HH  ARG D 557     -29.621  -3.082 -18.055  1.00 35.49     0.174 HD
ATOM     12  HH  ARG D 557     -28.497  -3.878 -17.498  1.00 35.49     0.174 HD
ATOM     13  HE  ARG D 557     -29.830  -1.012 -17.679  1.00 35.49     0.178 HD
ENDBRANCH   4   5
ENDBRANCH   3   4
ENDBRANCH   2   3
ENDBRANCH   1   2
END_RES ARG D 557
BEGIN_RES GLU D 570
REMARK  3 active torsions:
REMARK  status: ('A' for Active; 'I' for Inactive)
REMARK    5  A    between atoms: CA   and  CB  
REMARK    6  A    between atoms: CB   and  CG  
REMARK    7  A    between atoms: CG   and  CD  
ROOT
ATOM     14  CA  GLU D 570     -18.033  -6.348 -13.375  1.00 32.92     0.160 C 
ENDROOT
BRANCH  14  15
ATOM     15  CB  GLU D 570     -19.500  -6.345 -13.794  1.00 32.92     0.043 C 
BRANCH  15  16
ATOM     16  CG  GLU D 570     -19.993  -7.513 -14.568  1.00 32.92     0.100 C 
BRANCH  16  17
ATOM     17  CD  GLU D 570     -20.707  -7.119 -15.840  1.00 32.92     0.185 C 
ATOM     18  OE1 GLU D 570     -20.721  -5.920 -16.179  1.00 32.92    -0.647 OA
ATOM     19  OE2 GLU D 570     -21.273  -8.016 -16.495  1.00 32.92    -0.647 OA
ENDBRANCH  16  17
ENDBRANCH  15  16
ENDBRANCH  14  15
END_RES GLU D 570
ENDMDL
MODEL 5
REMARK VINA RESULT:      -5.3      8.860     11.595
REMARK  17 active torsions:
REMARK  status: ('A' for Active; 'I' for Inactive)
REMARK    1  A    between atoms: C_1  and  C_2 
REMARK    2  A    between atoms: C_1  and  O_24 
REMARK    3  A    between atoms: C_3  and  O_23 
REMARK    4  A    between atoms: C_4  and  O_22 
REMARK    5  A    between atoms: C_5  and  O_21 
REMARK    6  A    between atoms: C_6  and  O_8 
REMARK    7  A    between atoms: O_8  and  C_9 
REMARK    8  A    between atoms: C_9  and  C_10 
REMARK    9  A    between atoms: C_9  and  C_14 
REMARK   10  A    between atoms: C_10  and  C_11 
REMARK   11  A    between atoms: C_10  and  O_13 
REMARK   12  A    between atoms: C_11  and  O_12 
REMARK   13  A    between atoms: C_14  and  C_15 
REMARK   14  A    between atoms: C_14  and  O_20 
REMARK   15  A    between atoms: C_15  and  C_16 
REMARK   16  A    between atoms: C_15  and  O_19 
REMARK   17  A    between atoms: C_16  and  O_18 
ROOT
HETATM    1  C   UNL     1     -21.355  -7.330  -3.920  1.00  0.00     0.187 C 
ENDROOT
BRANCH   1   2
HETATM    2  O   UNL     1     -21.878  -8.598  -4.392  1.00  0.00    -0.348 OA
BRANCH   2   3
HETATM    3  C   UNL     1     -20.932  -9.636  -4.719  1.00  0.00     0.292 C 
HETATM    4  C   UNL     1     -21.450 -10.911  -4.020  1.00  0.00     0.204 C 
HETATM    5  C   UNL     1     -20.464 -12.062  -4.220  1.00  0.00     0.183 C 
HETATM    6  C   UNL     1     -19.063 -11.662  -3.723  1.00  0.00     0.180 C 
HETATM    7  C   UNL     1     -18.625 -10.335  -4.382  1.00  0.00     0.179 C 
HETATM    8  O   UNL     1     -19.632  -9.298  -4.242  1.00  0.00    -0.348 OA
BRANCH   4   9
HETATM    9  O   UNL     1     -21.596 -10.676  -2.600  1.00  0.00    -0.388 OA
HETATM   10  H   UNL     1     -21.376  -9.730  -2.480  1.00  0.00     0.210 HD
ENDBRANCH   4   9
BRANCH   5  11
HETATM   11  O   UNL     1     -20.938 -13.222  -3.532  1.00  0.00    -0.390 OA
HETATM   12  H   UNL     1     -20.337 -13.948  -3.796  1.00  0.00     0.210 HD
ENDBRANCH   5  11
BRANCH   6  13
HETATM   13  O   UNL     1     -19.058 -11.511  -2.294  1.00  0.00    -0.390 OA
HETATM   14  H   UNL     1     -18.696 -10.629  -2.098  1.00  0.00     0.210 HD
ENDBRANCH   6  13
BRANCH   7  15
HETATM   15  C   UNL     1     -18.213 -10.564  -5.848  1.00  0.00     0.198 C 
BRANCH  15  16
HETATM   16  O   UNL     1     -17.938  -9.328  -6.498  1.00  0.00    -0.398 OA
HETATM   17  H   UNL     1     -18.483  -8.650  -6.058  1.00  0.00     0.209 HD
ENDBRANCH  15  16
ENDBRANCH   7  15
ENDBRANCH   2   3
ENDBRANCH   1   2
BRANCH   1  18
HETATM   18  C   UNL     1     -21.594  -6.172  -4.942  1.00  0.00     0.173 C 
BRANCH  18  19
HETATM   19  C   UNL     1     -21.005  -6.365  -6.348  1.00  0.00     0.198 C 
BRANCH  19  20
HETATM   20  O   UNL     1     -19.776  -7.094  -6.253  1.00  0.00    -0.398 OA
HETATM   21  H   UNL     1     -19.429  -6.915  -5.358  1.00  0.00     0.209 HD
ENDBRANCH  19  20
ENDBRANCH  18  19
BRANCH  18  22
HETATM   22  O   UNL     1     -23.023  -5.991  -5.159  1.00  0.00    -0.391 OA
HETATM   23  H   UNL     1     -23.387  -6.885  -5.327  1.00  0.00     0.210 HD
ENDBRANCH  18  22
ENDBRANCH   1  18
BRANCH   1  24
HETATM   24  C   UNL     1     -22.043  -7.087  -2.537  1.00  0.00     0.189 C 
BRANCH  24  25
HETATM   25  C   UNL     1     -21.191  -7.519  -1.323  1.00  0.00     0.246 C 
BRANCH  25  26
HETATM   26  C   UNL     1     -22.021  -8.220  -0.252  1.00  0.00     0.172 C 
HETATM   27  O   UNL     1     -21.716  -9.270   0.294  1.00  0.00    -0.648 OA
BRANCH  26  28
HETATM   28  O   UNL     1     -23.115  -7.500   0.094  1.00  0.00    -0.774 OA
HETATM   29  H   UNL     1     -23.812  -7.603  -0.593  1.00  0.00     0.167 HD
ENDBRANCH  26  28
ENDBRANCH  25  26
BRANCH  25  30
HETATM   30  O   UNL     1     -20.193  -8.481  -1.725  1.00  0.00    -0.382 OA
HETATM   31  H   UNL     1     -19.912  -8.935  -0.901  1.00  0.00     0.210 HD
ENDBRANCH  25  30
ENDBRANCH  24  25
BRANCH  24  32
HETATM   32  O   UNL     1     -22.458  -5.732  -2.321  1.00  0.00    -0.390 OA
HETATM   33  H   UNL     1     -23.429  -5.730  -2.182  1.00  0.00     0.210 HD
ENDBRANCH  24  32
ENDBRANCH   1  24
TORSDOF 17
BEGIN_RES ARG D 557
REMARK  4 active torsions:
REMARK  status: ('A' for Active; 'I' for Inactive)
REMARK    1  A    between atoms: CA   and  CB  
REMARK    2  A    between atoms: CB   and  CG  
REMARK    3  A    between atoms: CG   and  CD  
REMARK    4  A    between atoms: CD   and  NE  
REMARK       I    between atoms: NE   and  CZ  
REMARK       I    between atoms: CZ   and  NH1 
REMARK       I    between atoms: CZ   and  NH2 
ROOT
ATOM      1  CA  ARG D 557     -26.217   2.705 -17.014  1.00 35.49     0.159 C 
ENDROOT
BRANCH   1   2
ATOM      2  CB  ARG D 557     -26.789   1.319 -17.183  1.00 35.49     0.034 C 
BRANCH   2   3
ATOM      3  CG  ARG D 557     -25.835   0.203 -17.159  1.00 35.49     0.027 C 
BRANCH   3   4
ATOM      4  CD  ARG D 557     -24.748   0.411 -16.176  1.00 35.49     0.116 C 
BRANCH   4   5
ATOM      5  NE  ARG D 557     -24.894  -0.432 -15.019  1.00 35.49    -0.212 N 
ATOM      6  CZ  ARG D 557     -24.080  -1.404 -14.670  1.00 35.49     0.666 C 
ATOM      7  NH1 ARG D 557     -23.014  -1.726 -15.379  1.00 35.49    -0.235 N 
ATOM      8  NH2 ARG D 557     -24.356  -2.053 -13.576  1.00 35.49    -0.235 N 
ATOM      9  HH  ARG D 557     -22.813  -1.311 -16.101  1.00 35.49     0.174 HD
ATOM     10  HH  ARG D 557     -22.519  -2.367 -15.100  1.00 35.49     0.174 HD
ATOM     11  HH  ARG D 557     -25.047  -1.818 -13.134  1.00 35.49     0.174 HD
ATOM     12  HH  ARG D 557     -23.852  -2.684 -13.316  1.00 35.49     0.174 HD
ATOM     13  HE  ARG D 557     -25.594  -0.342 -14.545  1.00 35.49     0.178 HD
ENDBRANCH   4   5
ENDBRANCH   3   4
ENDBRANCH   2   3
ENDBRANCH   1   2
END_RES ARG D 557
BEGIN_RES GLU D 570
REMARK  3 active torsions:
REMARK  status: ('A' for Active; 'I' for Inactive)
REMARK    5  A    between atoms: CA   and  CB  
REMARK    6  A    between atoms: CB   and  CG  
REMARK    7  A    between atoms: CG   and  CD  
ROOT
ATOM     14  CA  GLU D 570     -18.033  -6.348 -13.375  1.00 32.92     0.160 C 
ENDROOT
BRANCH  14  15
ATOM     15  CB  GLU D 570     -19.500  -6.345 -13.794  1.00 32.92     0.043 C 
BRANCH  15  16
ATOM     16  CG  GLU D 570     -20.442  -5.533 -12.982  1.00 32.92     0.100 C 
BRANCH  16  17
ATOM     17  CD  GLU D 570     -21.737  -5.236 -13.702  1.00 32.92     0.185 C 
ATOM     18  OE1 GLU D 570     -22.186  -6.072 -14.509  1.00 32.92    -0.647 OA
ATOM     19  OE2 GLU D 570     -22.299  -4.148 -13.469  1.00 32.92    -0.647 OA
ENDBRANCH  16  17
ENDBRANCH  15  16
ENDBRANCH  14  15
END_RES GLU D 570
ENDMDL
MODEL 6
REMARK VINA RESULT:      -5.0      9.374     11.919
REMARK  17 active torsions:
REMARK  status: ('A' for Active; 'I' for Inactive)
REMARK    1  A    between atoms: C_1  and  C_2 
REMARK    2  A    between atoms: C_1  and  O_24 
REMARK    3  A    between atoms: C_3  and  O_23 
REMARK    4  A    between atoms: C_4  and  O_22 
REMARK    5  A    between atoms: C_5  and  O_21 
REMARK    6  A    between atoms: C_6  and  O_8 
REMARK    7  A    between atoms: O_8  and  C_9 
REMARK    8  A    between atoms: C_9  and  C_10 
REMARK    9  A    between atoms: C_9  and  C_14 
REMARK   10  A    between atoms: C_10  and  C_11 
REMARK   11  A    between atoms: C_10  and  O_13 
REMARK   12  A    between atoms: C_11  and  O_12 
REMARK   13  A    between atoms: C_14  and  C_15 
REMARK   14  A    between atoms: C_14  and  O_20 
REMARK   15  A    between atoms: C_15  and  C_16 
REMARK   16  A    between atoms: C_15  and  O_19 
REMARK   17  A    between atoms: C_16  and  O_18 
ROOT
HETATM    1  C   UNL     1     -21.192  -7.345  -3.167  1.00  0.00     0.187 C 
ENDROOT
BRANCH   1   2
HETATM    2  O   UNL     1     -21.563  -8.663  -3.649  1.00  0.00    -0.348 OA
BRANCH   2   3
HETATM    3  C   UNL     1     -20.694  -9.766  -3.325  1.00  0.00     0.292 C 
HETATM    4  C   UNL     1     -20.127 -10.262  -4.673  1.00  0.00     0.204 C 
HETATM    5  C   UNL     1     -19.259 -11.502  -4.457  1.00  0.00     0.183 C 
HETATM    6  C   UNL     1     -20.059 -12.598  -3.731  1.00  0.00     0.180 C 
HETATM    7  C   UNL     1     -20.680 -12.031  -2.435  1.00  0.00     0.179 C 
HETATM    8  O   UNL     1     -21.421 -10.805  -2.676  1.00  0.00    -0.348 OA
BRANCH   4   9
HETATM    9  O   UNL     1     -21.208 -10.611  -5.569  1.00  0.00    -0.388 OA
HETATM   10  H   UNL     1     -20.766 -10.917  -6.386  1.00  0.00     0.210 HD
ENDBRANCH   4   9
BRANCH   5  11
HETATM   11  O   UNL     1     -18.777 -11.972  -5.719  1.00  0.00    -0.390 OA
HETATM   12  H   UNL     1     -18.351 -11.199  -6.142  1.00  0.00     0.210 HD
ENDBRANCH   5  11
BRANCH   6  13
HETATM   13  O   UNL     1     -21.102 -13.108  -4.577  1.00  0.00    -0.390 OA
HETATM   14  H   UNL     1     -21.866 -12.512  -4.486  1.00  0.00     0.210 HD
ENDBRANCH   6  13
BRANCH   7  15
HETATM   15  C   UNL     1     -19.607 -11.868  -1.342  1.00  0.00     0.198 C 
BRANCH  15  16
HETATM   16  O   UNL     1     -20.150 -11.235  -0.188  1.00  0.00    -0.398 OA
HETATM   17  H   UNL     1     -19.656 -10.403  -0.064  1.00  0.00     0.209 HD
ENDBRANCH  15  16
ENDBRANCH   7  15
ENDBRANCH   2   3
ENDBRANCH   1   2
BRANCH   1  18
HETATM   18  C   UNL     1     -21.206  -6.272  -4.303  1.00  0.00     0.173 C 
BRANCH  18  19
HETATM   19  C   UNL     1     -20.399  -6.602  -5.568  1.00  0.00     0.198 C 
BRANCH  19  20
HETATM   20  O   UNL     1     -21.127  -7.543  -6.365  1.00  0.00    -0.398 OA
HETATM   21  H   UNL     1     -21.968  -7.103  -6.595  1.00  0.00     0.209 HD
ENDBRANCH  19  20
ENDBRANCH  18  19
BRANCH  18  22
HETATM   22  O   UNL     1     -22.570  -6.070  -4.775  1.00  0.00    -0.391 OA
HETATM   23  H   UNL     1     -22.731  -6.764  -5.447  1.00  0.00     0.210 HD
ENDBRANCH  18  22
ENDBRANCH   1  18
BRANCH   1  24
HETATM   24  C   UNL     1     -22.191  -7.031  -2.006  1.00  0.00     0.189 C 
BRANCH  24  25
HETATM   25  C   UNL     1     -21.747  -7.568  -0.627  1.00  0.00     0.246 C 
BRANCH  25  26
HETATM   26  C   UNL     1     -22.797  -8.473   0.009  1.00  0.00     0.172 C 
HETATM   27  O   UNL     1     -22.731  -9.692   0.060  1.00  0.00    -0.648 OA
BRANCH  26  28
HETATM   28  O   UNL     1     -23.794  -7.763   0.591  1.00  0.00    -0.774 OA
HETATM   29  H   UNL     1     -23.820  -6.855   0.212  1.00  0.00     0.167 HD
ENDBRANCH  26  28
ENDBRANCH  25  26
BRANCH  25  30
HETATM   30  O   UNL     1     -20.566  -8.386  -0.762  1.00  0.00    -0.382 OA
HETATM   31  H   UNL     1     -20.184  -8.161  -1.638  1.00  0.00     0.210 HD
ENDBRANCH  25  30
ENDBRANCH  24  25
BRANCH  24  32
HETATM   32  O   UNL     1     -22.495  -5.638  -1.858  1.00  0.00    -0.390 OA
HETATM   33  H   UNL     1     -23.221  -5.417  -2.478  1.00  0.00     0.210 HD
ENDBRANCH  24  32
ENDBRANCH   1  24
TORSDOF 17
BEGIN_RES ARG D 557
REMARK  4 active torsions:
REMARK  status: ('A' for Active; 'I' for Inactive)
REMARK    1  A    between atoms: CA   and  CB  
REMARK    2  A    between atoms: CB   and  CG  
REMARK    3  A    between atoms: CG   and  CD  
REMARK    4  A    between atoms: CD   and  NE  
REMARK       I    between atoms: NE   and  CZ  
REMARK       I    between atoms: CZ   and  NH1 
REMARK       I    between atoms: CZ   and  NH2 
ROOT
ATOM      1  CA  ARG D 557     -26.217   2.705 -17.014  1.00 35.49     0.159 C 
ENDROOT
BRANCH   1   2
ATOM      2  CB  ARG D 557     -26.789   1.319 -17.183  1.00 35.49     0.034 C 
BRANCH   2   3
ATOM      3  CG  ARG D 557     -25.864   0.195 -16.993  1.00 35.49     0.027 C 
BRANCH   3   4
ATOM      4  CD  ARG D 557     -26.286  -0.704 -15.894  1.00 35.49     0.116 C 
BRANCH   4   5
ATOM      5  NE  ARG D 557     -25.233  -0.922 -14.938  1.00 35.49    -0.212 N 
ATOM      6  CZ  ARG D 557     -24.947  -2.066 -14.358  1.00 35.49     0.666 C 
ATOM      7  NH1 ARG D 557     -25.632  -3.171 -14.593  1.00 35.49    -0.235 N 
ATOM      8  NH2 ARG D 557     -23.943  -2.086 -13.531  1.00 35.49    -0.235 N 
ATOM      9  HH  ARG D 557     -26.295  -3.181 -15.135  1.00 35.49     0.174 HD
ATOM     10  HH  ARG D 557     -25.398  -3.888 -14.187  1.00 35.49     0.174 HD
ATOM     11  HH  ARG D 557     -23.514  -1.359 -13.405  1.00 35.49     0.174 HD
ATOM     12  HH  ARG D 557     -23.726  -2.807 -13.141  1.00 35.49     0.174 HD
ATOM     13  HE  ARG D 557     -24.787  -0.248 -14.674  1.00 35.49     0.178 HD
ENDBRANCH   4   5
ENDBRANCH   3   4
ENDBRANCH   2   3
ENDBRANCH   1   2
END_RES ARG D 557
BEGIN_RES GLU D 570
REMARK  3 active torsions:
REMARK  status: ('A' for Active; 'I' for Inactive)
REMARK    5  A    between atoms: CA   and  CB  
REMARK    6  A    between atoms: CB   and  CG  
REMARK    7  A    between atoms: CG   and  CD  
ROOT
ATOM     14  CA  GLU D 570     -18.033  -6.348 -13.375  1.00 32.92     0.160 C 
ENDROOT
BRANCH  14  15
ATOM     15  CB  GLU D 570     -19.500  -6.345 -13.794  1.00 32.92     0.043 C 
BRANCH  15  16
ATOM     16  CG  GLU D 570     -20.448  -5.560 -12.962  1.00 32.92     0.100 C 
BRANCH  16  17
ATOM     17  CD  GLU D 570     -21.681  -5.128 -13.721  1.00 32.92     0.185 C 
ATOM     18  OE1 GLU D 570     -21.619  -5.015 -14.961  1.00 32.92    -0.647 OA
ATOM     19  OE2 GLU D 570     -22.714  -4.884 -13.068  1.00 32.92    -0.647 OA
ENDBRANCH  16  17
ENDBRANCH  15  16
ENDBRANCH  14  15
END_RES GLU D 570
ENDMDL
MODEL 7
REMARK VINA RESULT:      -5.0      8.758     11.527
REMARK  17 active torsions:
REMARK  status: ('A' for Active; 'I' for Inactive)
REMARK    1  A    between atoms: C_1  and  C_2 
REMARK    2  A    between atoms: C_1  and  O_24 
REMARK    3  A    between atoms: C_3  and  O_23 
REMARK    4  A    between atoms: C_4  and  O_22 
REMARK    5  A    between atoms: C_5  and  O_21 
REMARK    6  A    between atoms: C_6  and  O_8 
REMARK    7  A    between atoms: O_8  and  C_9 
REMARK    8  A    between atoms: C_9  and  C_10 
REMARK    9  A    between atoms: C_9  and  C_14 
REMARK   10  A    between atoms: C_10  and  C_11 
REMARK   11  A    between atoms: C_10  and  O_13 
REMARK   12  A    between atoms: C_11  and  O_12 
REMARK   13  A    between atoms: C_14  and  C_15 
REMARK   14  A    between atoms: C_14  and  O_20 
REMARK   15  A    between atoms: C_15  and  C_16 
REMARK   16  A    between atoms: C_15  and  O_19 
REMARK   17  A    between atoms: C_16  and  O_18 
ROOT
HETATM    1  C   UNL     1     -21.139  -7.173  -3.779  1.00  0.00     0.187 C 
ENDROOT
BRANCH   1   2
HETATM    2  O   UNL     1     -21.493  -8.411  -4.447  1.00  0.00    -0.348 OA
BRANCH   2   3
HETATM    3  C   UNL     1     -20.427  -9.315  -4.796  1.00  0.00     0.292 C 
HETATM    4  C   UNL     1     -20.862 -10.700  -4.270  1.00  0.00     0.204 C 
HETATM    5  C   UNL     1     -19.753 -11.727  -4.502  1.00  0.00     0.183 C 
HETATM    6  C   UNL     1     -18.439 -11.253  -3.856  1.00  0.00     0.180 C 
HETATM    7  C   UNL     1     -18.091  -9.829  -4.345  1.00  0.00     0.179 C 
HETATM    8  O   UNL     1     -19.204  -8.910  -4.185  1.00  0.00    -0.348 OA
BRANCH   4   9
HETATM    9  O   UNL     1     -21.131 -10.630  -2.850  1.00  0.00    -0.388 OA
HETATM   10  H   UNL     1     -22.063 -10.341  -2.787  1.00  0.00     0.210 HD
ENDBRANCH   4   9
BRANCH   5  11
HETATM   11  O   UNL     1     -20.156 -12.992  -3.972  1.00  0.00    -0.390 OA
HETATM   12  H   UNL     1     -20.436 -12.814  -3.050  1.00  0.00     0.210 HD
ENDBRANCH   5  11
BRANCH   6  13
HETATM   13  O   UNL     1     -18.549 -11.253  -2.424  1.00  0.00    -0.390 OA
HETATM   14  H   UNL     1     -18.000 -11.985  -2.091  1.00  0.00     0.210 HD
ENDBRANCH   6  13
BRANCH   7  15
HETATM   15  C   UNL     1     -17.555  -9.863  -5.788  1.00  0.00     0.198 C 
BRANCH  15  16
HETATM   16  O   UNL     1     -16.137  -9.740  -5.806  1.00  0.00    -0.398 OA
HETATM   17  H   UNL     1     -15.780 -10.518  -5.338  1.00  0.00     0.209 HD
ENDBRANCH  15  16
ENDBRANCH   7  15
ENDBRANCH   2   3
ENDBRANCH   1   2
BRANCH   1  18
HETATM   18  C   UNL     1     -21.368  -5.921  -4.686  1.00  0.00     0.173 C 
BRANCH  18  19
HETATM   19  C   UNL     1     -20.461  -5.792  -5.919  1.00  0.00     0.198 C 
BRANCH  19  20
HETATM   20  O   UNL     1     -20.948  -6.647  -6.960  1.00  0.00    -0.398 OA
HETATM   21  H   UNL     1     -20.219  -6.721  -7.606  1.00  0.00     0.209 HD
ENDBRANCH  19  20
ENDBRANCH  18  19
BRANCH  18  22
HETATM   22  O   UNL     1     -22.723  -5.941  -5.221  1.00  0.00    -0.391 OA
HETATM   23  H   UNL     1     -22.727  -5.316  -5.975  1.00  0.00     0.210 HD
ENDBRANCH  18  22
ENDBRANCH   1  18
BRANCH   1  24
HETATM   24  C   UNL     1     -21.989  -7.152  -2.466  1.00  0.00     0.189 C 
BRANCH  24  25
HETATM   25  C   UNL     1     -21.225  -7.628  -1.211  1.00  0.00     0.246 C 
BRANCH  25  26
HETATM   26  C   UNL     1     -22.095  -8.480  -0.292  1.00  0.00     0.172 C 
HETATM   27  O   UNL     1     -21.864  -9.641   0.011  1.00  0.00    -0.648 OA
BRANCH  26  28
HETATM   28  O   UNL     1     -23.129  -7.775   0.226  1.00  0.00    -0.774 OA
HETATM   29  H   UNL     1     -23.439  -8.202   1.058  1.00  0.00     0.167 HD
ENDBRANCH  26  28
ENDBRANCH  25  26
BRANCH  25  30
HETATM   30  O   UNL     1     -20.118  -8.474  -1.586  1.00  0.00    -0.382 OA
HETATM   31  H   UNL     1     -19.521  -7.910  -2.123  1.00  0.00     0.210 HD
ENDBRANCH  25  30
ENDBRANCH  24  25
BRANCH  24  32
HETATM   32  O   UNL     1     -22.571  -5.876  -2.169  1.00  0.00    -0.390 OA
HETATM   33  H   UNL     1     -21.933  -5.180  -2.435  1.00  0.00     0.210 HD
ENDBRANCH  24  32
ENDBRANCH   1  24
TORSDOF 17
BEGIN_RES ARG D 557
REMARK  4 active torsions:
REMARK  status: ('A' for Active; 'I' for Inactive)
REMARK    1  A    between atoms: CA   and  CB  
REMARK    2  A    between atoms: CB   and  CG  
REMARK    3  A    between atoms: CG   and  CD  
REMARK    4  A    between atoms: CD   and  NE  
REMARK       I    between atoms: NE   and  CZ  
REMARK       I    between atoms: CZ   and  NH1 
REMARK       I    between atoms: CZ   and  NH2 
ROOT
ATOM      1  CA  ARG D 557     -26.217   2.705 -17.014  1.00 35.49     0.159 C 
ENDROOT
BRANCH   1   2
ATOM      2  CB  ARG D 557     -26.789   1.319 -17.183  1.00 35.49     0.034 C 
BRANCH   2   3
ATOM      3  CG  ARG D 557     -28.159   1.106 -16.701  1.00 35.49     0.027 C 
BRANCH   3   4
ATOM      4  CD  ARG D 557     -28.790  -0.090 -17.303  1.00 35.49     0.116 C 
BRANCH   4   5
ATOM      5  NE  ARG D 557     -28.175  -1.312 -16.853  1.00 35.49    -0.212 N 
ATOM      6  CZ  ARG D 557     -28.654  -2.523 -17.030  1.00 35.49     0.666 C 
ATOM      7  NH1 ARG D 557     -29.797  -2.750 -17.649  1.00 35.49    -0.235 N 
ATOM      8  NH2 ARG D 557     -27.951  -3.518 -16.574  1.00 35.49    -0.235 N 
ATOM      9  HH  ARG D 557     -30.275  -2.110 -17.959  1.00 35.49     0.174 HD
ATOM     10  HH  ARG D 557     -30.058  -3.562 -17.737  1.00 35.49     0.174 HD
ATOM     11  HH  ARG D 557     -27.212  -3.342 -16.185  1.00 35.49     0.174 HD
ATOM     12  HH  ARG D 557     -28.225  -4.315 -16.672  1.00 35.49     0.174 HD
ATOM     13  HE  ARG D 557     -27.470  -1.254 -16.381  1.00 35.49     0.178 HD
ENDBRANCH   4   5
ENDBRANCH   3   4
ENDBRANCH   2   3
ENDBRANCH   1   2
END_RES ARG D 557
BEGIN_RES GLU D 570
REMARK  3 active torsions:
REMARK  status: ('A' for Active; 'I' for Inactive)
REMARK    5  A    between atoms: CA   and  CB  
REMARK    6  A    between atoms: CB   and  CG  
REMARK    7  A    between atoms: CG   and  CD  
ROOT
ATOM     14  CA  GLU D 570     -18.033  -6.348 -13.375  1.00 32.92     0.160 C 
ENDROOT
BRANCH  14  15
ATOM     15  CB  GLU D 570     -19.500  -6.345 -13.794  1.00 32.92     0.043 C 
BRANCH  15  16
ATOM     16  CG  GLU D 570     -20.449  -5.567 -12.957  1.00 32.92     0.100 C 
BRANCH  16  17
ATOM     17  CD  GLU D 570     -21.701  -5.167 -13.703  1.00 32.92     0.185 C 
ATOM     18  OE1 GLU D 570     -22.764  -5.022 -13.068  1.00 32.92    -0.647 OA
ATOM     19  OE2 GLU D 570     -21.622  -5.013 -14.937  1.00 32.92    -0.647 OA
ENDBRANCH  16  17
ENDBRANCH  15  16
ENDBRANCH  14  15
END_RES GLU D 570
ENDMDL
MODEL 8
REMARK VINA RESULT:      -4.9      9.125     11.678
REMARK  17 active torsions:
REMARK  status: ('A' for Active; 'I' for Inactive)
REMARK    1  A    between atoms: C_1  and  C_2 
REMARK    2  A    between atoms: C_1  and  O_24 
REMARK    3  A    between atoms: C_3  and  O_23 
REMARK    4  A    between atoms: C_4  and  O_22 
REMARK    5  A    between atoms: C_5  and  O_21 
REMARK    6  A    between atoms: C_6  and  O_8 
REMARK    7  A    between atoms: O_8  and  C_9 
REMARK    8  A    between atoms: C_9  and  C_10 
REMARK    9  A    between atoms: C_9  and  C_14 
REMARK   10  A    between atoms: C_10  and  C_11 
REMARK   11  A    between atoms: C_10  and  O_13 
REMARK   12  A    between atoms: C_11  and  O_12 
REMARK   13  A    between atoms: C_14  and  C_15 
REMARK   14  A    between atoms: C_14  and  O_20 
REMARK   15  A    between atoms: C_15  and  C_16 
REMARK   16  A    between atoms: C_15  and  O_19 
REMARK   17  A    between atoms: C_16  and  O_18 
ROOT
HETATM    1  C   UNL     1     -19.585  -8.583  -4.270  1.00  0.00     0.187 C 
ENDROOT
BRANCH   1   2
HETATM    2  O   UNL     1     -20.335  -9.603  -3.560  1.00  0.00    -0.348 OA
BRANCH   2   3
HETATM    3  C   UNL     1     -20.681  -9.346  -2.184  1.00  0.00     0.292 C 
HETATM    4  C   UNL     1     -20.201 -10.583  -1.393  1.00  0.00     0.204 C 
HETATM    5  C   UNL     1     -20.607 -10.461   0.076  1.00  0.00     0.183 C 
HETATM    6  C   UNL     1     -22.127 -10.254   0.198  1.00  0.00     0.180 C 
HETATM    7  C   UNL     1     -22.572  -9.062  -0.679  1.00  0.00     0.179 C 
HETATM    8  O   UNL     1     -22.089  -9.179  -2.044  1.00  0.00    -0.348 OA
BRANCH   4   9
HETATM    9  O   UNL     1     -20.801 -11.783  -1.935  1.00  0.00    -0.388 OA
HETATM   10  H   UNL     1     -21.045 -11.547  -2.853  1.00  0.00     0.210 HD
ENDBRANCH   4   9
BRANCH   5  11
HETATM   11  O   UNL     1     -20.192 -11.632   0.784  1.00  0.00    -0.390 OA
HETATM   12  H   UNL     1     -20.555 -11.535   1.688  1.00  0.00     0.210 HD
ENDBRANCH   5  11
BRANCH   6  13
HETATM   13  O   UNL     1     -22.833 -11.437  -0.208  1.00  0.00    -0.390 OA
HETATM   14  H   UNL     1     -23.559 -11.573   0.426  1.00  0.00     0.210 HD
ENDBRANCH   6  13
BRANCH   7  15
HETATM   15  C   UNL     1     -22.177  -7.726  -0.025  1.00  0.00     0.198 C 
BRANCH  15  16
HETATM   16  O   UNL     1     -22.608  -6.625  -0.818  1.00  0.00    -0.398 OA
HETATM   17  H   UNL     1     -23.531  -6.438  -0.565  1.00  0.00     0.209 HD
ENDBRANCH  15  16
ENDBRANCH   7  15
ENDBRANCH   2   3
ENDBRANCH   1   2
BRANCH   1  18
HETATM   18  C   UNL     1     -18.501  -9.193  -5.215  1.00  0.00     0.173 C 
BRANCH  18  19
HETATM   19  C   UNL     1     -17.325  -9.912  -4.537  1.00  0.00     0.198 C 
BRANCH  19  20
HETATM   20  O   UNL     1     -17.233  -9.491  -3.171  1.00  0.00    -0.398 OA
HETATM   21  H   UNL     1     -18.043  -8.974  -2.998  1.00  0.00     0.209 HD
ENDBRANCH  19  20
ENDBRANCH  18  19
BRANCH  18  22
HETATM   22  O   UNL     1     -19.107 -10.202  -6.075  1.00  0.00    -0.391 OA
HETATM   23  H   UNL     1     -19.804  -9.742  -6.584  1.00  0.00     0.210 HD
ENDBRANCH  18  22
ENDBRANCH   1  18
BRANCH   1  24
HETATM   24  C   UNL     1     -20.657  -7.731  -5.025  1.00  0.00     0.189 C 
BRANCH  24  25
HETATM   25  C   UNL     1     -20.973  -6.375  -4.355  1.00  0.00     0.246 C 
BRANCH  25  26
HETATM   26  C   UNL     1     -21.122  -5.247  -5.371  1.00  0.00     0.172 C 
HETATM   27  O   UNL     1     -20.243  -4.453  -5.669  1.00  0.00    -0.648 OA
BRANCH  26  28
HETATM   28  O   UNL     1     -22.334  -5.267  -5.977  1.00  0.00    -0.774 OA
HETATM   29  H   UNL     1     -22.933  -4.616  -5.545  1.00  0.00     0.167 HD
ENDBRANCH  26  28
ENDBRANCH  25  26
BRANCH  25  30
HETATM   30  O   UNL     1     -22.237  -6.438  -3.662  1.00  0.00    -0.382 OA
HETATM   31  H   UNL     1     -22.026  -6.733  -2.749  1.00  0.00     0.210 HD
ENDBRANCH  25  30
ENDBRANCH  24  25
BRANCH  24  32
HETATM   32  O   UNL     1     -20.339  -7.478  -6.399  1.00  0.00    -0.390 OA
HETATM   33  H   UNL     1     -20.343  -8.335  -6.876  1.00  0.00     0.210 HD
ENDBRANCH  24  32
ENDBRANCH   1  24
TORSDOF 17
BEGIN_RES ARG D 557
REMARK  4 active torsions:
REMARK  status: ('A' for Active; 'I' for Inactive)
REMARK    1  A    between atoms: CA   and  CB  
REMARK    2  A    between atoms: CB   and  CG  
REMARK    3  A    between atoms: CG   and  CD  
REMARK    4  A    between atoms: CD   and  NE  
REMARK       I    between atoms: NE   and  CZ  
REMARK       I    between atoms: CZ   and  NH1 
REMARK       I    between atoms: CZ   and  NH2 
ROOT
ATOM      1  CA  ARG D 557     -26.217   2.705 -17.014  1.00 35.49     0.159 C 
ENDROOT
BRANCH   1   2
ATOM      2  CB  ARG D 557     -26.789   1.319 -17.183  1.00 35.49     0.034 C 
BRANCH   2   3
ATOM      3  CG  ARG D 557     -28.232   1.226 -17.436  1.00 35.49     0.027 C 
BRANCH   3   4
ATOM      4  CD  ARG D 557     -28.911   0.301 -16.500  1.00 35.49     0.116 C 
BRANCH   4   5
ATOM      5  NE  ARG D 557     -29.293  -0.932 -17.137  1.00 35.49    -0.212 N 
ATOM      6  CZ  ARG D 557     -28.660  -2.079 -17.032  1.00 35.49     0.666 C 
ATOM      7  NH1 ARG D 557     -27.560  -2.219 -16.315  1.00 35.49    -0.235 N 
ATOM      8  NH2 ARG D 557     -29.161  -3.101 -17.663  1.00 35.49    -0.235 N 
ATOM      9  HH  ARG D 557     -27.214  -1.560 -15.890  1.00 35.49     0.174 HD
ATOM     10  HH  ARG D 557     -27.192  -2.992 -16.282  1.00 35.49     0.174 HD
ATOM     11  HH  ARG D 557     -29.877  -2.982 -18.112  1.00 35.49     0.174 HD
ATOM     12  HH  ARG D 557     -28.783  -3.858 -17.616  1.00 35.49     0.174 HD
ATOM     13  HE  ARG D 557     -29.950  -0.915 -17.677  1.00 35.49     0.178 HD
ENDBRANCH   4   5
ENDBRANCH   3   4
ENDBRANCH   2   3
ENDBRANCH   1   2
END_RES ARG D 557
BEGIN_RES GLU D 570
REMARK  3 active torsions:
REMARK  status: ('A' for Active; 'I' for Inactive)
REMARK    5  A    between atoms: CA   and  CB  
REMARK    6  A    between atoms: CB   and  CG  
REMARK    7  A    between atoms: CG   and  CD  
ROOT
ATOM     14  CA  GLU D 570     -18.033  -6.348 -13.375  1.00 32.92     0.160 C 
ENDROOT
BRANCH  14  15
ATOM     15  CB  GLU D 570     -19.500  -6.345 -13.794  1.00 32.92     0.043 C 
BRANCH  15  16
ATOM     16  CG  GLU D 570     -20.440  -5.520 -12.991  1.00 32.92     0.100 C 
BRANCH  16  17
ATOM     17  CD  GLU D 570     -21.746  -5.256 -13.702  1.00 32.92     0.185 C 
ATOM     18  OE1 GLU D 570     -22.117  -6.038 -14.598  1.00 32.92    -0.647 OA
ATOM     19  OE2 GLU D 570     -22.398  -4.246 -13.370  1.00 32.92    -0.647 OA
ENDBRANCH  16  17
ENDBRANCH  15  16
ENDBRANCH  14  15
END_RES GLU D 570
ENDMDL
MODEL 9
REMARK VINA RESULT:      -4.9      1.650      4.875
REMARK  17 active torsions:
REMARK  status: ('A' for Active; 'I' for Inactive)
REMARK    1  A    between atoms: C_1  and  C_2 
REMARK    2  A    between atoms: C_1  and  O_24 
REMARK    3  A    between atoms: C_3  and  O_23 
REMARK    4  A    between atoms: C_4  and  O_22 
REMARK    5  A    between atoms: C_5  and  O_21 
REMARK    6  A    between atoms: C_6  and  O_8 
REMARK    7  A    between atoms: O_8  and  C_9 
REMARK    8  A    between atoms: C_9  and  C_10 
REMARK    9  A    between atoms: C_9  and  C_14 
REMARK   10  A    between atoms: C_10  and  C_11 
REMARK   11  A    between atoms: C_10  and  O_13 
REMARK   12  A    between atoms: C_11  and  O_12 
REMARK   13  A    between atoms: C_14  and  C_15 
REMARK   14  A    between atoms: C_14  and  O_20 
REMARK   15  A    between atoms: C_15  and  C_16 
REMARK   16  A    between atoms: C_15  and  O_19 
REMARK   17  A    between atoms: C_16  and  O_18 
ROOT
HETATM    1  C   UNL     1     -23.771  -4.126 -13.715  1.00  0.00     0.187 C 
ENDROOT
BRANCH   1   2
HETATM    2  O   UNL     1     -24.310  -3.380 -12.593  1.00  0.00    -0.348 OA
BRANCH   2   3
HETATM    3  C   UNL     1     -23.510  -3.298 -11.396  1.00  0.00     0.292 C 
HETATM    4  C   UNL     1     -22.124  -2.792 -11.851  1.00  0.00     0.204 C 
HETATM    5  C   UNL     1     -21.158  -2.759 -10.666  1.00  0.00     0.183 C 
HETATM    6  C   UNL     1     -21.076  -4.144 -10.001  1.00  0.00     0.180 C 
HETATM    7  C   UNL     1     -22.493  -4.646  -9.644  1.00  0.00     0.179 C 
HETATM    8  O   UNL     1     -23.398  -4.577 -10.778  1.00  0.00    -0.348 OA
BRANCH   4   9
HETATM    9  O   UNL     1     -21.580  -3.676 -12.860  1.00  0.00    -0.388 OA
HETATM   10  H   UNL     1     -21.615  -4.566 -12.457  1.00  0.00     0.210 HD
ENDBRANCH   4   9
BRANCH   5  11
HETATM   11  O   UNL     1     -19.870  -2.329 -11.113  1.00  0.00    -0.390 OA
HETATM   12  H   UNL     1     -20.036  -1.793 -11.916  1.00  0.00     0.210 HD
ENDBRANCH   5  11
BRANCH   6  13
HETATM   13  O   UNL     1     -20.440  -5.089 -10.876  1.00  0.00    -0.390 OA
HETATM   14  H   UNL     1     -20.793  -4.938 -11.770  1.00  0.00     0.210 HD
ENDBRANCH   6  13
BRANCH   7  15
HETATM   15  C   UNL     1     -23.038  -3.908  -8.407  1.00  0.00     0.198 C 
BRANCH  15  16
HETATM   16  O   UNL     1     -21.995  -3.636  -7.477  1.00  0.00    -0.398 OA
HETATM   17  H   UNL     1     -21.518  -4.474  -7.335  1.00  0.00     0.209 HD
ENDBRANCH  15  16
ENDBRANCH   7  15
ENDBRANCH   2   3
ENDBRANCH   1   2
BRANCH   1  18
HETATM   18  C   UNL     1     -24.613  -5.402 -14.038  1.00  0.00     0.173 C 
BRANCH  18  19
HETATM   19  C   UNL     1     -25.244  -5.472 -15.438  1.00  0.00     0.198 C 
BRANCH  19  20
HETATM   20  O   UNL     1     -25.920  -6.725 -15.593  1.00  0.00    -0.398 OA
HETATM   21  H   UNL     1     -25.295  -7.308 -16.066  1.00  0.00     0.209 HD
ENDBRANCH  19  20
ENDBRANCH  18  19
BRANCH  18  22
HETATM   22  O   UNL     1     -23.769  -6.586 -13.952  1.00  0.00    -0.391 OA
HETATM   23  H   UNL     1     -24.358  -7.352 -14.111  1.00  0.00     0.210 HD
ENDBRANCH  18  22
ENDBRANCH   1  18
BRANCH   1  24
HETATM   24  C   UNL     1     -23.711  -3.107 -14.900  1.00  0.00     0.189 C 
BRANCH  24  25
HETATM   25  C   UNL     1     -24.233  -1.696 -14.548  1.00  0.00     0.246 C 
BRANCH  25  26
HETATM   26  C   UNL     1     -23.680  -0.624 -15.480  1.00  0.00     0.172 C 
HETATM   27  O   UNL     1     -24.087   0.527 -15.542  1.00  0.00    -0.648 OA
BRANCH  26  28
HETATM   28  O   UNL     1     -22.616  -1.069 -16.192  1.00  0.00    -0.774 OA
HETATM   29  H   UNL     1     -22.061  -1.655 -15.629  1.00  0.00     0.167 HD
ENDBRANCH  26  28
ENDBRANCH  25  26
BRANCH  25  30
HETATM   30  O   UNL     1     -25.666  -1.637 -14.702  1.00  0.00    -0.382 OA
HETATM   31  H   UNL     1     -25.907  -2.408 -15.261  1.00  0.00     0.210 HD
ENDBRANCH  25  30
ENDBRANCH  24  25
BRANCH  24  32
HETATM   32  O   UNL     1     -22.407  -2.961 -15.478  1.00  0.00    -0.390 OA
HETATM   33  H   UNL     1     -21.929  -2.264 -14.980  1.00  0.00     0.210 HD
ENDBRANCH  24  32
ENDBRANCH   1  24
TORSDOF 17
BEGIN_RES ARG D 557
REMARK  4 active torsions:
REMARK  status: ('A' for Active; 'I' for Inactive)
REMARK    1  A    between atoms: CA   and  CB  
REMARK    2  A    between atoms: CB   and  CG  
REMARK    3  A    between atoms: CG   and  CD  
REMARK    4  A    between atoms: CD   and  NE  
REMARK       I    between atoms: NE   and  CZ  
REMARK       I    between atoms: CZ   and  NH1 
REMARK       I    between atoms: CZ   and  NH2 
ROOT
ATOM      1  CA  ARG D 557     -26.217   2.705 -17.014  1.00 35.49     0.159 C 
ENDROOT
BRANCH   1   2
ATOM      2  CB  ARG D 557     -26.789   1.319 -17.183  1.00 35.49     0.034 C 
BRANCH   2   3
ATOM      3  CG  ARG D 557     -28.229   1.227 -17.450  1.00 35.49     0.027 C 
BRANCH   3   4
ATOM      4  CD  ARG D 557     -28.921   0.316 -16.510  1.00 35.49     0.116 C 
BRANCH   4   5
ATOM      5  NE  ARG D 557     -28.176  -0.894 -16.280  1.00 35.49    -0.212 N 
ATOM      6  CZ  ARG D 557     -28.467  -2.079 -16.766  1.00 35.49     0.666 C 
ATOM      7  NH1 ARG D 557     -29.521  -2.292 -17.533  1.00 35.49    -0.235 N 
ATOM      8  NH2 ARG D 557     -27.667  -3.063 -16.471  1.00 35.49    -0.235 N 
ATOM      9  HH  ARG D 557     -30.060  -1.659 -17.741  1.00 35.49     0.174 HD
ATOM     10  HH  ARG D 557     -29.659  -3.086 -17.823  1.00 35.49     0.174 HD
ATOM     11  HH  ARG D 557     -26.990  -2.894 -15.980  1.00 35.49     0.174 HD
ATOM     12  HH  ARG D 557     -27.820  -3.841 -16.770  1.00 35.49     0.174 HD
ATOM     13  HE  ARG D 557     -27.521  -0.863 -15.738  1.00 35.49     0.178 HD
ENDBRANCH   4   5
ENDBRANCH   3   4
ENDBRANCH   2   3
ENDBRANCH   1   2
END_RES ARG D 557
BEGIN_RES GLU D 570
REMARK  3 active torsions:
REMARK  status: ('A' for Active; 'I' for Inactive)
REMARK    5  A    between atoms: CA   and  CB  
REMARK    6  A    between atoms: CB   and  CG  
REMARK    7  A    between atoms: CG   and  CD  
ROOT
ATOM     14  CA  GLU D 570     -18.033  -6.348 -13.375  1.00 32.92     0.160 C 
ENDROOT
BRANCH  14  15
ATOM     15  CB  GLU D 570     -19.500  -6.345 -13.794  1.00 32.92     0.043 C 
BRANCH  15  16
ATOM     16  CG  GLU D 570     -20.127  -7.657 -14.099  1.00 32.92     0.100 C 
BRANCH  16  17
ATOM     17  CD  GLU D 570     -20.808  -7.685 -15.448  1.00 32.92     0.185 C 
ATOM     18  OE1 GLU D 570     -20.635  -8.669 -16.193  1.00 32.92    -0.647 OA
ATOM     19  OE2 GLU D 570     -21.508  -6.704 -15.770  1.00 32.92    -0.647 OA
ENDBRANCH  16  17
ENDBRANCH  15  16
ENDBRANCH  14  15
END_RES GLU D 570
ENDMDL
