MODEL 1
REMARK VINA RESULT:      -8.0      0.000      0.000
REMARK  23 active torsions:
REMARK  status: ('A' for Active; 'I' for Inactive)
REMARK    1  A    between atoms: C_2  and  C_3 
REMARK    2  A    between atoms: C_3  and  C_4 
REMARK    3  A    between atoms: C_4  and  C_5 
REMARK    4  A    between atoms: C_5  and  C_6 
REMARK    5  A    between atoms: C_6  and  C_7 
REMARK    6  A    between atoms: C_7  and  C_8 
REMARK    7  A    between atoms: C_8  and  C_9 
REMARK    8  A    between atoms: C_9  and  C_10 
REMARK    9  A    between atoms: C_10  and  C_11 
REMARK   10  A    between atoms: C_11  and  C_12 
REMARK   11  A    between atoms: C_12  and  C_13 
REMARK   12  A    between atoms: C_13  and  C_14 
REMARK   13  A    between atoms: C_14  and  C_15 
REMARK   14  A    between atoms: C_15  and  C_16 
REMARK   15  A    between atoms: C_16  and  C_17 
REMARK   16  A    between atoms: C_17  and  C_18 
REMARK       I    between atoms: C_18  and  N_20 
REMARK   17  A    between atoms: N_20  and  CA_21 
REMARK   18  A    between atoms: CA_21  and  CB_22 
REMARK   19  A    between atoms: CA_21  and  C_27 
REMARK   20  A    between atoms: CB_22  and  CG_23 
REMARK   21  A    between atoms: CG_23  and  CD_24 
REMARK   22  A    between atoms: CD_24  and  OE2_26 
REMARK   23  A    between atoms: C_27  and  OXT_29 
ROOT
HETATM    1  C   UNK A   0     -20.843  -4.209 -10.295  1.00  0.00     0.009 C 
ENDROOT
BRANCH   1   2
HETATM    2  C   UNK A   0     -22.142  -4.736  -9.700  1.00  0.00     0.000 C 
BRANCH   2   3
HETATM    3  C   UNK A   0     -22.601  -3.824  -8.567  1.00  0.00     0.000 C 
BRANCH   3   4
HETATM    4  C   UNK A   0     -22.155  -4.390  -7.231  1.00  0.00     0.000 C 
BRANCH   4   5
HETATM    5  C   UNK A   0     -20.836  -3.769  -6.804  1.00  0.00     0.000 C 
BRANCH   5   6
HETATM    6  C   UNK A   0     -19.905  -4.850  -6.282  1.00  0.00     0.000 C 
BRANCH   6   7
HETATM    7  C   UNK A   0     -20.468  -6.221  -6.605  1.00  0.00     0.000 C 
BRANCH   7   8
HETATM    8  C   UNK A   0     -20.145  -7.190  -5.483  1.00  0.00     0.000 C 
BRANCH   8   9
HETATM    9  C   UNK A   0     -21.429  -7.748  -4.896  1.00  0.00     0.000 C 
BRANCH   9  10
HETATM   10  C   UNK A   0     -22.225  -6.635  -4.239  1.00  0.00     0.000 C 
BRANCH  10  11
HETATM   11  C   UNK A   0     -21.486  -6.123  -3.015  1.00  0.00     0.000 C 
BRANCH  11  12
HETATM   12  C   UNK A   0     -21.346  -7.235  -1.989  1.00  0.00     0.000 C 
BRANCH  12  13
HETATM   13  C   UNK A   0     -22.339  -7.029  -0.856  1.00  0.00     0.000 C 
BRANCH  13  14
HETATM   14  C   UNK A   0     -22.039  -7.987   0.288  1.00  0.00    -0.000 C 
BRANCH  14  15
HETATM   15  C   UNK A   0     -21.385  -9.260  -0.233  1.00  0.00    -0.005 C 
HETATM   16  C   UNK A   0     -20.920 -10.131   0.918  1.00  0.00     0.005 C 
ENDBRANCH  14  15
ENDBRANCH  13  14
ENDBRANCH  12  13
ENDBRANCH  11  12
ENDBRANCH  10  11
ENDBRANCH   9  10
ENDBRANCH   8   9
ENDBRANCH   7   8
ENDBRANCH   6   7
ENDBRANCH   5   6
ENDBRANCH   4   5
ENDBRANCH   3   4
ENDBRANCH   2   3
ENDBRANCH   1   2
BRANCH   1  17
HETATM   17  C   UNK A   0     -21.054  -2.932 -11.101  1.00  0.00     0.103 C 
BRANCH  17  18
HETATM   18  C   UNK A   0     -22.139  -3.171 -12.132  1.00  0.00     0.218 C 
HETATM   19  O   UNK A   0     -23.195  -2.538 -12.083  1.00  0.00    -0.274 OA
ATOM     20  N   GLU A   1     -21.782  -4.051 -13.140  1.00  0.00    -0.347 N 
ATOM     21  H   GLU A   1     -20.942  -4.618 -13.023  1.00  0.00     0.163 HD
BRANCH  20  22
ATOM     22  CA  GLU A   1     -22.637  -4.381 -14.301  1.00  0.00     0.182 C 
BRANCH  22  23
ATOM     23  CB  GLU A   1     -23.801  -5.316 -13.901  1.00  0.00     0.046 C 
BRANCH  23  24
ATOM     24  CG  GLU A   1     -24.045  -6.426 -14.926  1.00  0.00     0.112 C 
BRANCH  24  25
ATOM     25  CD  GLU A   1     -25.372  -6.340 -15.634  1.00  0.00     0.139 C 
ATOM     26  OE1 GLU A   1     -25.864  -5.341 -16.122  1.00  0.00    -0.650 OA
BRANCH  25  27
ATOM     27  OE2 GLU A   1     -25.954  -7.570 -15.659  1.00  0.00    -0.776 OA
ATOM     28  HE2 GLU A   1     -25.496  -8.252 -15.123  1.00  0.00     0.167 HD
ENDBRANCH  25  27
ENDBRANCH  24  25
ENDBRANCH  23  24
ENDBRANCH  22  23
BRANCH  22  29
ATOM     29  C   GLU A   1     -23.196  -3.093 -14.966  1.00  0.00     0.163 C 
ATOM     30  O   GLU A   1     -22.499  -2.244 -15.502  1.00  0.00    -0.648 OA
BRANCH  29  31
ATOM     31  OXT GLU A   1     -24.529  -2.922 -14.803  1.00  0.00    -0.775 OA
ATOM     32  HXT GLU A   1     -25.085  -3.561 -15.285  1.00  0.00     0.167 HD
ENDBRANCH  29  31
ENDBRANCH  22  29
ENDBRANCH  20  22
ENDBRANCH  17  18
ENDBRANCH   1  17
TORSDOF 23
BEGIN_RES ARG D 557
REMARK  4 active torsions:
REMARK  status: ('A' for Active; 'I' for Inactive)
REMARK    1  A    between atoms: CA   and  CB  
REMARK    2  A    between atoms: CB   and  CG  
REMARK    3  A    between atoms: CG   and  CD  
REMARK    4  A    between atoms: CD   and  NE  
REMARK       I    between atoms: NE   and  CZ  
REMARK       I    between atoms: CZ   and  NH1 
REMARK       I    between atoms: CZ   and  NH2 
ROOT
ATOM      1  CA  ARG D 557     -26.217   2.705 -17.014  1.00 35.49     0.159 C 
ENDROOT
BRANCH   1   2
ATOM      2  CB  ARG D 557     -26.789   1.319 -17.183  1.00 35.49     0.034 C 
BRANCH   2   3
ATOM      3  CG  ARG D 557     -28.118   1.078 -16.609  1.00 35.49     0.027 C 
BRANCH   3   4
ATOM      4  CD  ARG D 557     -28.791  -0.094 -17.214  1.00 35.49     0.116 C 
BRANCH   4   5
ATOM      5  NE  ARG D 557     -28.197  -1.336 -16.794  1.00 35.49    -0.212 N 
ATOM      6  CZ  ARG D 557     -28.678  -2.536 -17.030  1.00 35.49     0.666 C 
ATOM      7  NH1 ARG D 557     -29.805  -2.731 -17.689  1.00 35.49    -0.235 N 
ATOM      8  NH2 ARG D 557     -27.994  -3.554 -16.593  1.00 35.49    -0.235 N 
ATOM      9  HH  ARG D 557     -30.269  -2.076 -17.988  1.00 35.49     0.174 HD
ATOM     10  HH  ARG D 557     -30.068  -3.537 -17.816  1.00 35.49     0.174 HD
ATOM     11  HH  ARG D 557     -27.266  -3.398 -16.177  1.00 35.49     0.174 HD
ATOM     12  HH  ARG D 557     -28.271  -4.344 -16.729  1.00 35.49     0.174 HD
ATOM     13  HE  ARG D 557     -27.505  -1.301 -16.300  1.00 35.49     0.178 HD
ENDBRANCH   4   5
ENDBRANCH   3   4
ENDBRANCH   2   3
ENDBRANCH   1   2
END_RES ARG D 557
BEGIN_RES GLU D 570
REMARK  3 active torsions:
REMARK  status: ('A' for Active; 'I' for Inactive)
REMARK    5  A    between atoms: CA   and  CB  
REMARK    6  A    between atoms: CB   and  CG  
REMARK    7  A    between atoms: CG   and  CD  
ROOT
ATOM     14  CA  GLU D 570     -18.033  -6.348 -13.375  1.00 32.92     0.160 C 
ENDROOT
BRANCH  14  15
ATOM     15  CB  GLU D 570     -19.500  -6.345 -13.794  1.00 32.92     0.043 C 
BRANCH  15  16
ATOM     16  CG  GLU D 570     -20.084  -7.632 -14.253  1.00 32.92     0.100 C 
BRANCH  16  17
ATOM     17  CD  GLU D 570     -20.623  -7.565 -15.662  1.00 32.92     0.185 C 
ATOM     18  OE1 GLU D 570     -21.096  -8.596 -16.179  1.00 32.92    -0.647 OA
ATOM     19  OE2 GLU D 570     -20.558  -6.474 -16.262  1.00 32.92    -0.647 OA
ENDBRANCH  16  17
ENDBRANCH  15  16
ENDBRANCH  14  15
END_RES GLU D 570
ENDMDL
MODEL 2
REMARK VINA RESULT:      -7.7      1.780      3.165
REMARK  23 active torsions:
REMARK  status: ('A' for Active; 'I' for Inactive)
REMARK    1  A    between atoms: C_2  and  C_3 
REMARK    2  A    between atoms: C_3  and  C_4 
REMARK    3  A    between atoms: C_4  and  C_5 
REMARK    4  A    between atoms: C_5  and  C_6 
REMARK    5  A    between atoms: C_6  and  C_7 
REMARK    6  A    between atoms: C_7  and  C_8 
REMARK    7  A    between atoms: C_8  and  C_9 
REMARK    8  A    between atoms: C_9  and  C_10 
REMARK    9  A    between atoms: C_10  and  C_11 
REMARK   10  A    between atoms: C_11  and  C_12 
REMARK   11  A    between atoms: C_12  and  C_13 
REMARK   12  A    between atoms: C_13  and  C_14 
REMARK   13  A    between atoms: C_14  and  C_15 
REMARK   14  A    between atoms: C_15  and  C_16 
REMARK   15  A    between atoms: C_16  and  C_17 
REMARK   16  A    between atoms: C_17  and  C_18 
REMARK       I    between atoms: C_18  and  N_20 
REMARK   17  A    between atoms: N_20  and  CA_21 
REMARK   18  A    between atoms: CA_21  and  CB_22 
REMARK   19  A    between atoms: CA_21  and  C_27 
REMARK   20  A    between atoms: CB_22  and  CG_23 
REMARK   21  A    between atoms: CG_23  and  CD_24 
REMARK   22  A    between atoms: CD_24  and  OE2_26 
REMARK   23  A    between atoms: C_27  and  OXT_29 
ROOT
HETATM    1  C   UNK A   0     -21.195  -4.231  -9.423  1.00  0.00     0.009 C 
ENDROOT
BRANCH   1   2
HETATM    2  C   UNK A   0     -20.156  -4.217  -8.310  1.00  0.00     0.000 C 
BRANCH   2   3
HETATM    3  C   UNK A   0     -20.836  -3.955  -6.970  1.00  0.00     0.000 C 
BRANCH   3   4
HETATM    4  C   UNK A   0     -20.220  -4.832  -5.895  1.00  0.00     0.000 C 
BRANCH   4   5
HETATM    5  C   UNK A   0     -20.286  -6.295  -6.300  1.00  0.00     0.000 C 
BRANCH   5   6
HETATM    6  C   UNK A   0     -20.562  -7.154  -5.078  1.00  0.00     0.000 C 
BRANCH   6   7
HETATM    7  C   UNK A   0     -21.269  -6.334  -4.015  1.00  0.00     0.000 C 
BRANCH   7   8
HETATM    8  C   UNK A   0     -21.538  -7.192  -2.794  1.00  0.00     0.000 C 
BRANCH   8   9
HETATM    9  C   UNK A   0     -22.236  -6.369  -1.727  1.00  0.00     0.000 C 
BRANCH   9  10
HETATM   10  C   UNK A   0     -22.292  -7.148  -0.425  1.00  0.00     0.000 C 
BRANCH  10  11
HETATM   11  C   UNK A   0     -22.282  -8.639  -0.714  1.00  0.00     0.000 C 
BRANCH  11  12
HETATM   12  C   UNK A   0     -23.356  -9.335   0.104  1.00  0.00     0.000 C 
BRANCH  12  13
HETATM   13  C   UNK A   0     -23.610 -10.730  -0.445  1.00  0.00     0.000 C 
BRANCH  13  14
HETATM   14  C   UNK A   0     -22.770 -11.753   0.306  1.00  0.00    -0.000 C 
BRANCH  14  15
HETATM   15  C   UNK A   0     -23.543 -13.052   0.493  1.00  0.00    -0.005 C 
HETATM   16  C   UNK A   0     -23.230 -13.669   1.843  1.00  0.00     0.005 C 
ENDBRANCH  14  15
ENDBRANCH  13  14
ENDBRANCH  12  13
ENDBRANCH  11  12
ENDBRANCH  10  11
ENDBRANCH   9  10
ENDBRANCH   8   9
ENDBRANCH   7   8
ENDBRANCH   6   7
ENDBRANCH   5   6
ENDBRANCH   4   5
ENDBRANCH   3   4
ENDBRANCH   2   3
ENDBRANCH   1   2
BRANCH   1  17
HETATM   17  C   UNK A   0     -22.576  -4.639  -8.918  1.00  0.00     0.103 C 
BRANCH  17  18
HETATM   18  C   UNK A   0     -23.591  -4.422 -10.022  1.00  0.00     0.218 C 
HETATM   19  O   UNK A   0     -24.758  -4.135  -9.749  1.00  0.00    -0.274 OA
ATOM     20  N   GLU A   1     -23.060  -4.470 -11.301  1.00  0.00    -0.347 N 
ATOM     21  H   GLU A   1     -22.117  -4.839 -11.428  1.00  0.00     0.163 HD
BRANCH  20  22
ATOM     22  CA  GLU A   1     -23.832  -4.208 -12.535  1.00  0.00     0.182 C 
BRANCH  22  23
ATOM     23  CB  GLU A   1     -24.085  -2.695 -12.735  1.00  0.00     0.046 C 
BRANCH  23  24
ATOM     24  CG  GLU A   1     -24.786  -2.384 -14.059  1.00  0.00     0.112 C 
BRANCH  24  25
ATOM     25  CD  GLU A   1     -24.082  -1.358 -14.909  1.00  0.00     0.139 C 
ATOM     26  OE1 GLU A   1     -23.043  -1.518 -15.519  1.00  0.00    -0.650 OA
BRANCH  25  27
ATOM     27  OE2 GLU A   1     -24.797  -0.200 -14.907  1.00  0.00    -0.776 OA
ATOM     28  HE2 GLU A   1     -25.730  -0.293 -14.616  1.00  0.00     0.167 HD
ENDBRANCH  25  27
ENDBRANCH  24  25
ENDBRANCH  23  24
ENDBRANCH  22  23
BRANCH  22  29
ATOM     29  C   GLU A   1     -23.110  -4.792 -13.780  1.00  0.00     0.163 C 
ATOM     30  O   GLU A   1     -23.446  -5.825 -14.342  1.00  0.00    -0.648 OA
BRANCH  29  31
ATOM     31  OXT GLU A   1     -21.990  -4.121 -14.135  1.00  0.00    -0.775 OA
ATOM     32  HXT GLU A   1     -21.697  -4.270 -15.052  1.00  0.00     0.167 HD
ENDBRANCH  29  31
ENDBRANCH  22  29
ENDBRANCH  20  22
ENDBRANCH  17  18
ENDBRANCH   1  17
TORSDOF 23
BEGIN_RES ARG D 557
REMARK  4 active torsions:
REMARK  status: ('A' for Active; 'I' for Inactive)
REMARK    1  A    between atoms: CA   and  CB  
REMARK    2  A    between atoms: CB   and  CG  
REMARK    3  A    between atoms: CG   and  CD  
REMARK    4  A    between atoms: CD   and  NE  
REMARK       I    between atoms: NE   and  CZ  
REMARK       I    between atoms: CZ   and  NH1 
REMARK       I    between atoms: CZ   and  NH2 
ROOT
ATOM      1  CA  ARG D 557     -26.217   2.705 -17.014  1.00 35.49     0.159 C 
ENDROOT
BRANCH   1   2
ATOM      2  CB  ARG D 557     -26.789   1.319 -17.183  1.00 35.49     0.034 C 
BRANCH   2   3
ATOM      3  CG  ARG D 557     -28.232   1.226 -17.434  1.00 35.49     0.027 C 
BRANCH   3   4
ATOM      4  CD  ARG D 557     -28.912   0.315 -16.485  1.00 35.49     0.116 C 
BRANCH   4   5
ATOM      5  NE  ARG D 557     -29.315  -0.917 -17.110  1.00 35.49    -0.212 N 
ATOM      6  CZ  ARG D 557     -28.682  -2.065 -17.024  1.00 35.49     0.666 C 
ATOM      7  NH1 ARG D 557     -27.561  -2.207 -16.341  1.00 35.49    -0.235 N 
ATOM      8  NH2 ARG D 557     -29.203  -3.086 -17.639  1.00 35.49    -0.235 N 
ATOM      9  HH  ARG D 557     -27.201  -1.549 -15.926  1.00 35.49     0.174 HD
ATOM     10  HH  ARG D 557     -27.193  -2.981 -16.318  1.00 35.49     0.174 HD
ATOM     11  HH  ARG D 557     -29.932  -2.967 -18.066  1.00 35.49     0.174 HD
ATOM     12  HH  ARG D 557     -28.825  -3.844 -17.603  1.00 35.49     0.174 HD
ATOM     13  HE  ARG D 557     -29.988  -0.900 -17.629  1.00 35.49     0.178 HD
ENDBRANCH   4   5
ENDBRANCH   3   4
ENDBRANCH   2   3
ENDBRANCH   1   2
END_RES ARG D 557
BEGIN_RES GLU D 570
REMARK  3 active torsions:
REMARK  status: ('A' for Active; 'I' for Inactive)
REMARK    5  A    between atoms: CA   and  CB  
REMARK    6  A    between atoms: CB   and  CG  
REMARK    7  A    between atoms: CG   and  CD  
ROOT
ATOM     14  CA  GLU D 570     -18.033  -6.348 -13.375  1.00 32.92     0.160 C 
ENDROOT
BRANCH  14  15
ATOM     15  CB  GLU D 570     -19.500  -6.345 -13.794  1.00 32.92     0.043 C 
BRANCH  15  16
ATOM     16  CG  GLU D 570     -20.074  -7.624 -14.286  1.00 32.92     0.100 C 
BRANCH  16  17
ATOM     17  CD  GLU D 570     -20.656  -7.513 -15.676  1.00 32.92     0.185 C 
ATOM     18  OE1 GLU D 570     -20.899  -6.383 -16.142  1.00 32.92    -0.647 OA
ATOM     19  OE2 GLU D 570     -20.887  -8.568 -16.299  1.00 32.92    -0.647 OA
ENDBRANCH  16  17
ENDBRANCH  15  16
ENDBRANCH  14  15
END_RES GLU D 570
ENDMDL
MODEL 3
REMARK VINA RESULT:      -7.6      1.868      3.480
REMARK  23 active torsions:
REMARK  status: ('A' for Active; 'I' for Inactive)
REMARK    1  A    between atoms: C_2  and  C_3 
REMARK    2  A    between atoms: C_3  and  C_4 
REMARK    3  A    between atoms: C_4  and  C_5 
REMARK    4  A    between atoms: C_5  and  C_6 
REMARK    5  A    between atoms: C_6  and  C_7 
REMARK    6  A    between atoms: C_7  and  C_8 
REMARK    7  A    between atoms: C_8  and  C_9 
REMARK    8  A    between atoms: C_9  and  C_10 
REMARK    9  A    between atoms: C_10  and  C_11 
REMARK   10  A    between atoms: C_11  and  C_12 
REMARK   11  A    between atoms: C_12  and  C_13 
REMARK   12  A    between atoms: C_13  and  C_14 
REMARK   13  A    between atoms: C_14  and  C_15 
REMARK   14  A    between atoms: C_15  and  C_16 
REMARK   15  A    between atoms: C_16  and  C_17 
REMARK   16  A    between atoms: C_17  and  C_18 
REMARK       I    between atoms: C_18  and  N_20 
REMARK   17  A    between atoms: N_20  and  CA_21 
REMARK   18  A    between atoms: CA_21  and  CB_22 
REMARK   19  A    between atoms: CA_21  and  C_27 
REMARK   20  A    between atoms: CB_22  and  CG_23 
REMARK   21  A    between atoms: CG_23  and  CD_24 
REMARK   22  A    between atoms: CD_24  and  OE2_26 
REMARK   23  A    between atoms: C_27  and  OXT_29 
ROOT
HETATM    1  C   UNK A   0     -19.805  -4.256  -7.874  1.00  0.00     0.009 C 
ENDROOT
BRANCH   1   2
HETATM    2  C   UNK A   0     -19.691  -5.386  -6.859  1.00  0.00     0.000 C 
BRANCH   2   3
HETATM    3  C   UNK A   0     -20.504  -5.048  -5.615  1.00  0.00     0.000 C 
BRANCH   3   4
HETATM    4  C   UNK A   0     -21.703  -5.974  -5.510  1.00  0.00     0.000 C 
BRANCH   4   5
HETATM    5  C   UNK A   0     -21.261  -7.426  -5.580  1.00  0.00     0.000 C 
BRANCH   5   6
HETATM    6  C   UNK A   0     -21.795  -8.184  -4.376  1.00  0.00     0.000 C 
BRANCH   6   7
HETATM    7  C   UNK A   0     -20.679  -8.422  -3.376  1.00  0.00     0.000 C 
BRANCH   7   8
HETATM    8  C   UNK A   0     -20.704  -7.346  -2.307  1.00  0.00     0.000 C 
BRANCH   8   9
HETATM    9  C   UNK A   0     -22.140  -7.005  -1.951  1.00  0.00     0.000 C 
BRANCH   9  10
HETATM   10  C   UNK A   0     -22.290  -6.905  -0.444  1.00  0.00     0.000 C 
BRANCH  10  11
HETATM   11  C   UNK A   0     -22.956  -8.159   0.094  1.00  0.00     0.000 C 
BRANCH  11  12
HETATM   12  C   UNK A   0     -21.903  -9.137   0.585  1.00  0.00     0.000 C 
BRANCH  12  13
HETATM   13  C   UNK A   0     -22.090 -10.489  -0.087  1.00  0.00     0.000 C 
BRANCH  13  14
HETATM   14  C   UNK A   0     -23.551 -10.909  -0.026  1.00  0.00    -0.000 C 
BRANCH  14  15
HETATM   15  C   UNK A   0     -24.021 -11.420  -1.382  1.00  0.00    -0.005 C 
HETATM   16  C   UNK A   0     -22.955 -11.191  -2.437  1.00  0.00     0.005 C 
ENDBRANCH  14  15
ENDBRANCH  13  14
ENDBRANCH  12  13
ENDBRANCH  11  12
ENDBRANCH  10  11
ENDBRANCH   9  10
ENDBRANCH   8   9
ENDBRANCH   7   8
ENDBRANCH   6   7
ENDBRANCH   5   6
ENDBRANCH   4   5
ENDBRANCH   3   4
ENDBRANCH   2   3
ENDBRANCH   1   2
BRANCH   1  17
HETATM   17  C   UNK A   0     -19.787  -4.767  -9.311  1.00  0.00     0.103 C 
BRANCH  17  18
HETATM   18  C   UNK A   0     -20.782  -3.973 -10.132  1.00  0.00     0.218 C 
HETATM   19  O   UNK A   0     -20.398  -3.268 -11.067  1.00  0.00    -0.274 OA
ATOM     20  N   GLU A   1     -22.107  -4.203  -9.798  1.00  0.00    -0.347 N 
ATOM     21  H   GLU A   1     -22.317  -4.699  -8.932  1.00  0.00     0.163 HD
BRANCH  20  22
ATOM     22  CA  GLU A   1     -23.261  -3.610 -10.509  1.00  0.00     0.182 C 
BRANCH  22  23
ATOM     23  CB  GLU A   1     -23.632  -4.427 -11.768  1.00  0.00     0.046 C 
BRANCH  23  24
ATOM     24  CG  GLU A   1     -23.269  -3.705 -13.068  1.00  0.00     0.112 C 
BRANCH  24  25
ATOM     25  CD  GLU A   1     -24.283  -2.685 -13.517  1.00  0.00     0.139 C 
ATOM     26  OE1 GLU A   1     -24.108  -1.810 -14.343  1.00  0.00    -0.650 OA
BRANCH  25  27
ATOM     27  OE2 GLU A   1     -25.456  -2.891 -12.858  1.00  0.00    -0.776 OA
ATOM     28  HE2 GLU A   1     -25.844  -2.088 -12.449  1.00  0.00     0.167 HD
ENDBRANCH  25  27
ENDBRANCH  24  25
ENDBRANCH  23  24
ENDBRANCH  22  23
BRANCH  22  29
ATOM     29  C   GLU A   1     -24.494  -3.494  -9.571  1.00  0.00     0.163 C 
ATOM     30  O   GLU A   1     -25.575  -3.040  -9.918  1.00  0.00    -0.648 OA
BRANCH  29  31
ATOM     31  OXT GLU A   1     -24.243  -3.833  -8.285  1.00  0.00    -0.775 OA
ATOM     32  HXT GLU A   1     -23.377  -3.542  -7.947  1.00  0.00     0.167 HD
ENDBRANCH  29  31
ENDBRANCH  22  29
ENDBRANCH  20  22
ENDBRANCH  17  18
ENDBRANCH   1  17
TORSDOF 23
BEGIN_RES ARG D 557
REMARK  4 active torsions:
REMARK  status: ('A' for Active; 'I' for Inactive)
REMARK    1  A    between atoms: CA   and  CB  
REMARK    2  A    between atoms: CB   and  CG  
REMARK    3  A    between atoms: CG   and  CD  
REMARK    4  A    between atoms: CD   and  NE  
REMARK       I    between atoms: NE   and  CZ  
REMARK       I    between atoms: CZ   and  NH1 
REMARK       I    between atoms: CZ   and  NH2 
ROOT
ATOM      1  CA  ARG D 557     -26.217   2.705 -17.014  1.00 35.49     0.159 C 
ENDROOT
BRANCH   1   2
ATOM      2  CB  ARG D 557     -26.789   1.319 -17.183  1.00 35.49     0.034 C 
BRANCH   2   3
ATOM      3  CG  ARG D 557     -28.231   1.167 -16.953  1.00 35.49     0.027 C 
BRANCH   3   4
ATOM      4  CD  ARG D 557     -28.658  -0.251 -16.967  1.00 35.49     0.116 C 
BRANCH   4   5
ATOM      5  NE  ARG D 557     -27.732  -1.103 -16.267  1.00 35.49    -0.212 N 
ATOM      6  CZ  ARG D 557     -27.696  -2.415 -16.333  1.00 35.49     0.666 C 
ATOM      7  NH1 ARG D 557     -28.546  -3.112 -17.064  1.00 35.49    -0.235 N 
ATOM      8  NH2 ARG D 557     -26.774  -3.025 -15.647  1.00 35.49    -0.235 N 
ATOM      9  HH  ARG D 557     -29.159  -2.732 -17.526  1.00 35.49     0.174 HD
ATOM     10  HH  ARG D 557     -28.472  -3.966 -17.071  1.00 35.49     0.174 HD
ATOM     11  HH  ARG D 557     -26.234  -2.549 -15.190  1.00 35.49     0.174 HD
ATOM     12  HH  ARG D 557     -26.716  -3.871 -15.667  1.00 35.49     0.174 HD
ATOM     13  HE  ARG D 557     -27.195  -0.742 -15.716  1.00 35.49     0.178 HD
ENDBRANCH   4   5
ENDBRANCH   3   4
ENDBRANCH   2   3
ENDBRANCH   1   2
END_RES ARG D 557
BEGIN_RES GLU D 570
REMARK  3 active torsions:
REMARK  status: ('A' for Active; 'I' for Inactive)
REMARK    5  A    between atoms: CA   and  CB  
REMARK    6  A    between atoms: CB   and  CG  
REMARK    7  A    between atoms: CG   and  CD  
ROOT
ATOM     14  CA  GLU D 570     -18.033  -6.348 -13.375  1.00 32.92     0.160 C 
ENDROOT
BRANCH  14  15
ATOM     15  CB  GLU D 570     -19.500  -6.345 -13.794  1.00 32.92     0.043 C 
BRANCH  15  16
ATOM     16  CG  GLU D 570     -20.084  -7.632 -14.252  1.00 32.92     0.100 C 
BRANCH  16  17
ATOM     17  CD  GLU D 570     -21.090  -7.459 -15.366  1.00 32.92     0.185 C 
ATOM     18  OE1 GLU D 570     -21.837  -6.462 -15.358  1.00 32.92    -0.647 OA
ATOM     19  OE2 GLU D 570     -21.144  -8.340 -16.247  1.00 32.92    -0.647 OA
ENDBRANCH  16  17
ENDBRANCH  15  16
ENDBRANCH  14  15
END_RES GLU D 570
ENDMDL
MODEL 4
REMARK VINA RESULT:      -7.6      1.557      2.514
REMARK  23 active torsions:
REMARK  status: ('A' for Active; 'I' for Inactive)
REMARK    1  A    between atoms: C_2  and  C_3 
REMARK    2  A    between atoms: C_3  and  C_4 
REMARK    3  A    between atoms: C_4  and  C_5 
REMARK    4  A    between atoms: C_5  and  C_6 
REMARK    5  A    between atoms: C_6  and  C_7 
REMARK    6  A    between atoms: C_7  and  C_8 
REMARK    7  A    between atoms: C_8  and  C_9 
REMARK    8  A    between atoms: C_9  and  C_10 
REMARK    9  A    between atoms: C_10  and  C_11 
REMARK   10  A    between atoms: C_11  and  C_12 
REMARK   11  A    between atoms: C_12  and  C_13 
REMARK   12  A    between atoms: C_13  and  C_14 
REMARK   13  A    between atoms: C_14  and  C_15 
REMARK   14  A    between atoms: C_15  and  C_16 
REMARK   15  A    between atoms: C_16  and  C_17 
REMARK   16  A    between atoms: C_17  and  C_18 
REMARK       I    between atoms: C_18  and  N_20 
REMARK   17  A    between atoms: N_20  and  CA_21 
REMARK   18  A    between atoms: CA_21  and  CB_22 
REMARK   19  A    between atoms: CA_21  and  C_27 
REMARK   20  A    between atoms: CB_22  and  CG_23 
REMARK   21  A    between atoms: CG_23  and  CD_24 
REMARK   22  A    between atoms: CD_24  and  OE2_26 
REMARK   23  A    between atoms: C_27  and  OXT_29 
ROOT
HETATM    1  C   UNK A   0     -21.302  -4.322  -9.199  1.00  0.00     0.009 C 
ENDROOT
BRANCH   1   2
HETATM    2  C   UNK A   0     -21.197  -3.943  -7.728  1.00  0.00     0.000 C 
BRANCH   2   3
HETATM    3  C   UNK A   0     -19.856  -4.405  -7.168  1.00  0.00     0.000 C 
BRANCH   3   4
HETATM    4  C   UNK A   0     -20.008  -4.791  -5.708  1.00  0.00     0.000 C 
BRANCH   4   5
HETATM    5  C   UNK A   0     -21.180  -5.740  -5.528  1.00  0.00     0.000 C 
BRANCH   5   6
HETATM    6  C   UNK A   0     -20.717  -6.998  -4.813  1.00  0.00     0.000 C 
BRANCH   6   7
HETATM    7  C   UNK A   0     -21.643  -7.307  -3.651  1.00  0.00     0.000 C 
BRANCH   7   8
HETATM    8  C   UNK A   0     -21.484  -6.254  -2.570  1.00  0.00     0.000 C 
BRANCH   8   9
HETATM    9  C   UNK A   0     -22.326  -6.622  -1.362  1.00  0.00     0.000 C 
BRANCH   9  10
HETATM   10  C   UNK A   0     -21.670  -7.760  -0.601  1.00  0.00     0.000 C 
BRANCH  10  11
HETATM   11  C   UNK A   0     -22.731  -8.609   0.077  1.00  0.00     0.000 C 
BRANCH  11  12
HETATM   12  C   UNK A   0     -22.927  -9.906  -0.689  1.00  0.00     0.000 C 
BRANCH  12  13
HETATM   13  C   UNK A   0     -24.071 -10.704  -0.082  1.00  0.00     0.000 C 
BRANCH  13  14
HETATM   14  C   UNK A   0     -23.576 -12.068   0.376  1.00  0.00    -0.000 C 
BRANCH  14  15
HETATM   15  C   UNK A   0     -22.306 -12.458  -0.368  1.00  0.00    -0.005 C 
HETATM   16  C   UNK A   0     -22.605 -13.506  -1.423  1.00  0.00     0.005 C 
ENDBRANCH  14  15
ENDBRANCH  13  14
ENDBRANCH  12  13
ENDBRANCH  11  12
ENDBRANCH  10  11
ENDBRANCH   9  10
ENDBRANCH   8   9
ENDBRANCH   7   8
ENDBRANCH   6   7
ENDBRANCH   5   6
ENDBRANCH   4   5
ENDBRANCH   3   4
ENDBRANCH   2   3
ENDBRANCH   1   2
BRANCH   1  17
HETATM   17  C   UNK A   0     -22.594  -3.817  -9.834  1.00  0.00     0.103 C 
BRANCH  17  18
HETATM   18  C   UNK A   0     -22.294  -3.313 -11.231  1.00  0.00     0.218 C 
HETATM   19  O   UNK A   0     -21.170  -2.896 -11.515  1.00  0.00    -0.274 OA
ATOM     20  N   GLU A   1     -23.337  -3.470 -12.129  1.00  0.00    -0.347 N 
ATOM     21  H   GLU A   1     -24.264  -3.704 -11.770  1.00  0.00     0.163 HD
BRANCH  20  22
ATOM     22  CA  GLU A   1     -23.259  -3.133 -13.567  1.00  0.00     0.182 C 
BRANCH  22  23
ATOM     23  CB  GLU A   1     -22.873  -4.364 -14.418  1.00  0.00     0.046 C 
BRANCH  23  24
ATOM     24  CG  GLU A   1     -23.600  -5.637 -13.979  1.00  0.00     0.112 C 
BRANCH  24  25
ATOM     25  CD  GLU A   1     -24.486  -6.243 -15.037  1.00  0.00     0.139 C 
ATOM     26  OE1 GLU A   1     -24.493  -7.405 -15.392  1.00  0.00    -0.650 OA
BRANCH  25  27
ATOM     27  OE2 GLU A   1     -25.307  -5.283 -15.545  1.00  0.00    -0.776 OA
ATOM     28  HE2 GLU A   1     -25.322  -5.232 -16.525  1.00  0.00     0.167 HD
ENDBRANCH  25  27
ENDBRANCH  24  25
ENDBRANCH  23  24
ENDBRANCH  22  23
BRANCH  22  29
ATOM     29  C   GLU A   1     -24.601  -2.538 -14.075  1.00  0.00     0.163 C 
ATOM     30  O   GLU A   1     -25.693  -2.810 -13.597  1.00  0.00    -0.648 OA
BRANCH  29  31
ATOM     31  OXT GLU A   1     -24.479  -1.768 -15.181  1.00  0.00    -0.775 OA
ATOM     32  HXT GLU A   1     -24.740  -0.836 -15.062  1.00  0.00     0.167 HD
ENDBRANCH  29  31
ENDBRANCH  22  29
ENDBRANCH  20  22
ENDBRANCH  17  18
ENDBRANCH   1  17
TORSDOF 23
BEGIN_RES ARG D 557
REMARK  4 active torsions:
REMARK  status: ('A' for Active; 'I' for Inactive)
REMARK    1  A    between atoms: CA   and  CB  
REMARK    2  A    between atoms: CB   and  CG  
REMARK    3  A    between atoms: CG   and  CD  
REMARK    4  A    between atoms: CD   and  NE  
REMARK       I    between atoms: NE   and  CZ  
REMARK       I    between atoms: CZ   and  NH1 
REMARK       I    between atoms: CZ   and  NH2 
ROOT
ATOM      1  CA  ARG D 557     -26.217   2.705 -17.014  1.00 35.49     0.159 C 
ENDROOT
BRANCH   1   2
ATOM      2  CB  ARG D 557     -26.789   1.319 -17.183  1.00 35.49     0.034 C 
BRANCH   2   3
ATOM      3  CG  ARG D 557     -28.233   1.226 -17.433  1.00 35.49     0.027 C 
BRANCH   3   4
ATOM      4  CD  ARG D 557     -28.904   0.276 -16.516  1.00 35.49     0.116 C 
BRANCH   4   5
ATOM      5  NE  ARG D 557     -28.052  -0.827 -16.159  1.00 35.49    -0.212 N 
ATOM      6  CZ  ARG D 557     -28.160  -2.058 -16.608  1.00 35.49     0.666 C 
ATOM      7  NH1 ARG D 557     -29.106  -2.424 -17.453  1.00 35.49    -0.235 N 
ATOM      8  NH2 ARG D 557     -27.285  -2.927 -16.192  1.00 35.49    -0.235 N 
ATOM      9  HH  ARG D 557     -29.690  -1.868 -17.741  1.00 35.49     0.174 HD
ATOM     10  HH  ARG D 557     -29.125  -3.240 -17.713  1.00 35.49     0.174 HD
ATOM     11  HH  ARG D 557     -26.681  -2.660 -15.652  1.00 35.49     0.174 HD
ATOM     12  HH  ARG D 557     -27.320  -3.730 -16.462  1.00 35.49     0.174 HD
ATOM     13  HE  ARG D 557     -27.459  -0.697 -15.563  1.00 35.49     0.178 HD
ENDBRANCH   4   5
ENDBRANCH   3   4
ENDBRANCH   2   3
ENDBRANCH   1   2
END_RES ARG D 557
BEGIN_RES GLU D 570
REMARK  3 active torsions:
REMARK  status: ('A' for Active; 'I' for Inactive)
REMARK    5  A    between atoms: CA   and  CB  
REMARK    6  A    between atoms: CB   and  CG  
REMARK    7  A    between atoms: CG   and  CD  
ROOT
ATOM     14  CA  GLU D 570     -18.033  -6.348 -13.375  1.00 32.92     0.160 C 
ENDROOT
BRANCH  14  15
ATOM     15  CB  GLU D 570     -19.500  -6.345 -13.794  1.00 32.92     0.043 C 
BRANCH  15  16
ATOM     16  CG  GLU D 570     -19.799  -6.159 -15.237  1.00 32.92     0.100 C 
BRANCH  16  17
ATOM     17  CD  GLU D 570     -20.690  -7.242 -15.799  1.00 32.92     0.185 C 
ATOM     18  OE1 GLU D 570     -20.727  -8.351 -15.231  1.00 32.92    -0.647 OA
ATOM     19  OE2 GLU D 570     -21.346  -6.985 -16.828  1.00 32.92    -0.647 OA
ENDBRANCH  16  17
ENDBRANCH  15  16
ENDBRANCH  14  15
END_RES GLU D 570
ENDMDL
MODEL 5
REMARK VINA RESULT:      -7.5      1.834      3.310
REMARK  23 active torsions:
REMARK  status: ('A' for Active; 'I' for Inactive)
REMARK    1  A    between atoms: C_2  and  C_3 
REMARK    2  A    between atoms: C_3  and  C_4 
REMARK    3  A    between atoms: C_4  and  C_5 
REMARK    4  A    between atoms: C_5  and  C_6 
REMARK    5  A    between atoms: C_6  and  C_7 
REMARK    6  A    between atoms: C_7  and  C_8 
REMARK    7  A    between atoms: C_8  and  C_9 
REMARK    8  A    between atoms: C_9  and  C_10 
REMARK    9  A    between atoms: C_10  and  C_11 
REMARK   10  A    between atoms: C_11  and  C_12 
REMARK   11  A    between atoms: C_12  and  C_13 
REMARK   12  A    between atoms: C_13  and  C_14 
REMARK   13  A    between atoms: C_14  and  C_15 
REMARK   14  A    between atoms: C_15  and  C_16 
REMARK   15  A    between atoms: C_16  and  C_17 
REMARK   16  A    between atoms: C_17  and  C_18 
REMARK       I    between atoms: C_18  and  N_20 
REMARK   17  A    between atoms: N_20  and  CA_21 
REMARK   18  A    between atoms: CA_21  and  CB_22 
REMARK   19  A    between atoms: CA_21  and  C_27 
REMARK   20  A    between atoms: CB_22  and  CG_23 
REMARK   21  A    between atoms: CG_23  and  CD_24 
REMARK   22  A    between atoms: CD_24  and  OE2_26 
REMARK   23  A    between atoms: C_27  and  OXT_29 
ROOT
HETATM    1  C   UNK A   0     -20.812  -3.856  -7.900  1.00  0.00     0.009 C 
ENDROOT
BRANCH   1   2
HETATM    2  C   UNK A   0     -20.363  -4.452  -6.572  1.00  0.00     0.000 C 
BRANCH   2   3
HETATM    3  C   UNK A   0     -19.919  -5.896  -6.776  1.00  0.00     0.000 C 
BRANCH   3   4
HETATM    4  C   UNK A   0     -20.654  -6.807  -5.809  1.00  0.00     0.000 C 
BRANCH   4   5
HETATM    5  C   UNK A   0     -21.225  -6.004  -4.652  1.00  0.00     0.000 C 
BRANCH   5   6
HETATM    6  C   UNK A   0     -21.882  -6.940  -3.653  1.00  0.00     0.000 C 
BRANCH   6   7
HETATM    7  C   UNK A   0     -21.786  -6.358  -2.255  1.00  0.00     0.000 C 
BRANCH   7   8
HETATM    8  C   UNK A   0     -21.612  -7.473  -1.241  1.00  0.00     0.000 C 
BRANCH   8   9
HETATM    9  C   UNK A   0     -22.611  -7.305  -0.111  1.00  0.00     0.000 C 
BRANCH   9  10
HETATM   10  C   UNK A   0     -23.202  -8.652   0.263  1.00  0.00     0.000 C 
BRANCH  10  11
HETATM   11  C   UNK A   0     -22.334  -9.769  -0.289  1.00  0.00     0.000 C 
BRANCH  11  12
HETATM   12  C   UNK A   0     -23.201 -10.813  -0.972  1.00  0.00     0.000 C 
BRANCH  12  13
HETATM   13  C   UNK A   0     -23.869 -11.700   0.067  1.00  0.00     0.000 C 
BRANCH  13  14
HETATM   14  C   UNK A   0     -22.928 -12.820   0.486  1.00  0.00    -0.000 C 
BRANCH  14  15
HETATM   15  C   UNK A   0     -23.394 -13.457   1.789  1.00  0.00    -0.005 C 
HETATM   16  C   UNK A   0     -22.298 -14.321   2.383  1.00  0.00     0.005 C 
ENDBRANCH  14  15
ENDBRANCH  13  14
ENDBRANCH  12  13
ENDBRANCH  11  12
ENDBRANCH  10  11
ENDBRANCH   9  10
ENDBRANCH   8   9
ENDBRANCH   7   8
ENDBRANCH   6   7
ENDBRANCH   5   6
ENDBRANCH   4   5
ENDBRANCH   3   4
ENDBRANCH   2   3
ENDBRANCH   1   2
BRANCH   1  17
HETATM   17  C   UNK A   0     -20.856  -4.897  -9.014  1.00  0.00     0.103 C 
BRANCH  17  18
HETATM   18  C   UNK A   0     -21.021  -4.192 -10.345  1.00  0.00     0.218 C 
HETATM   19  O   UNK A   0     -20.039  -3.957 -11.051  1.00  0.00    -0.274 OA
ATOM     20  N   GLU A   1     -22.338  -3.955 -10.704  1.00  0.00    -0.347 N 
ATOM     21  H   GLU A   1     -23.068  -4.068 -10.000  1.00  0.00     0.163 HD
BRANCH  20  22
ATOM     22  CA  GLU A   1     -22.757  -3.357 -11.990  1.00  0.00     0.182 C 
BRANCH  22  23
ATOM     23  CB  GLU A   1     -22.497  -4.317 -13.174  1.00  0.00     0.046 C 
BRANCH  23  24
ATOM     24  CG  GLU A   1     -23.392  -5.557 -13.137  1.00  0.00     0.112 C 
BRANCH  24  25
ATOM     25  CD  GLU A   1     -23.868  -6.021 -14.489  1.00  0.00     0.139 C 
ATOM     26  OE1 GLU A   1     -24.621  -6.950 -14.708  1.00  0.00    -0.650 OA
BRANCH  25  27
ATOM     27  OE2 GLU A   1     -23.331  -5.228 -15.456  1.00  0.00    -0.776 OA
ATOM     28  HE2 GLU A   1     -23.776  -5.285 -16.328  1.00  0.00     0.167 HD
ENDBRANCH  25  27
ENDBRANCH  24  25
ENDBRANCH  23  24
ENDBRANCH  22  23
BRANCH  22  29
ATOM     29  C   GLU A   1     -24.257  -2.953 -11.956  1.00  0.00     0.163 C 
ATOM     30  O   GLU A   1     -25.021  -3.243 -11.047  1.00  0.00    -0.648 OA
BRANCH  29  31
ATOM     31  OXT GLU A   1     -24.690  -2.343 -13.083  1.00  0.00    -0.775 OA
ATOM     32  HXT GLU A   1     -23.998  -1.878 -13.589  1.00  0.00     0.167 HD
ENDBRANCH  29  31
ENDBRANCH  22  29
ENDBRANCH  20  22
ENDBRANCH  17  18
ENDBRANCH   1  17
TORSDOF 23
BEGIN_RES ARG D 557
REMARK  4 active torsions:
REMARK  status: ('A' for Active; 'I' for Inactive)
REMARK    1  A    between atoms: CA   and  CB  
REMARK    2  A    between atoms: CB   and  CG  
REMARK    3  A    between atoms: CG   and  CD  
REMARK    4  A    between atoms: CD   and  NE  
REMARK       I    between atoms: NE   and  CZ  
REMARK       I    between atoms: CZ   and  NH1 
REMARK       I    between atoms: CZ   and  NH2 
ROOT
ATOM      1  CA  ARG D 557     -26.217   2.705 -17.014  1.00 35.49     0.159 C 
ENDROOT
BRANCH   1   2
ATOM      2  CB  ARG D 557     -26.789   1.319 -17.183  1.00 35.49     0.034 C 
BRANCH   2   3
ATOM      3  CG  ARG D 557     -28.230   1.227 -17.446  1.00 35.49     0.027 C 
BRANCH   3   4
ATOM      4  CD  ARG D 557     -28.917   0.307 -16.510  1.00 35.49     0.116 C 
BRANCH   4   5
ATOM      5  NE  ARG D 557     -29.326  -0.914 -17.151  1.00 35.49    -0.212 N 
ATOM      6  CZ  ARG D 557     -28.718  -2.075 -17.052  1.00 35.49     0.666 C 
ATOM      7  NH1 ARG D 557     -27.621  -2.242 -16.337  1.00 35.49    -0.235 N 
ATOM      8  NH2 ARG D 557     -29.243  -3.083 -17.686  1.00 35.49    -0.235 N 
ATOM      9  HH  ARG D 557     -27.260  -1.593 -15.910  1.00 35.49     0.174 HD
ATOM     10  HH  ARG D 557     -27.270  -3.023 -16.307  1.00 35.49     0.174 HD
ATOM     11  HH  ARG D 557     -29.956  -2.947 -18.134  1.00 35.49     0.174 HD
ATOM     12  HH  ARG D 557     -28.881  -3.849 -17.643  1.00 35.49     0.174 HD
ATOM     13  HE  ARG D 557     -29.983  -0.881 -17.690  1.00 35.49     0.178 HD
ENDBRANCH   4   5
ENDBRANCH   3   4
ENDBRANCH   2   3
ENDBRANCH   1   2
END_RES ARG D 557
BEGIN_RES GLU D 570
REMARK  3 active torsions:
REMARK  status: ('A' for Active; 'I' for Inactive)
REMARK    5  A    between atoms: CA   and  CB  
REMARK    6  A    between atoms: CB   and  CG  
REMARK    7  A    between atoms: CG   and  CD  
ROOT
ATOM     14  CA  GLU D 570     -18.033  -6.348 -13.375  1.00 32.92     0.160 C 
ENDROOT
BRANCH  14  15
ATOM     15  CB  GLU D 570     -19.500  -6.345 -13.794  1.00 32.92     0.043 C 
BRANCH  15  16
ATOM     16  CG  GLU D 570     -20.096  -7.641 -14.210  1.00 32.92     0.100 C 
BRANCH  16  17
ATOM     17  CD  GLU D 570     -20.752  -7.578 -15.570  1.00 32.92     0.185 C 
ATOM     18  OE1 GLU D 570     -20.761  -6.496 -16.188  1.00 32.92    -0.647 OA
ATOM     19  OE2 GLU D 570     -21.277  -8.618 -16.014  1.00 32.92    -0.647 OA
ENDBRANCH  16  17
ENDBRANCH  15  16
ENDBRANCH  14  15
END_RES GLU D 570
ENDMDL
MODEL 6
REMARK VINA RESULT:      -7.4      6.258     11.869
REMARK  23 active torsions:
REMARK  status: ('A' for Active; 'I' for Inactive)
REMARK    1  A    between atoms: C_2  and  C_3 
REMARK    2  A    between atoms: C_3  and  C_4 
REMARK    3  A    between atoms: C_4  and  C_5 
REMARK    4  A    between atoms: C_5  and  C_6 
REMARK    5  A    between atoms: C_6  and  C_7 
REMARK    6  A    between atoms: C_7  and  C_8 
REMARK    7  A    between atoms: C_8  and  C_9 
REMARK    8  A    between atoms: C_9  and  C_10 
REMARK    9  A    between atoms: C_10  and  C_11 
REMARK   10  A    between atoms: C_11  and  C_12 
REMARK   11  A    between atoms: C_12  and  C_13 
REMARK   12  A    between atoms: C_13  and  C_14 
REMARK   13  A    between atoms: C_14  and  C_15 
REMARK   14  A    between atoms: C_15  and  C_16 
REMARK   15  A    between atoms: C_16  and  C_17 
REMARK   16  A    between atoms: C_17  and  C_18 
REMARK       I    between atoms: C_18  and  N_20 
REMARK   17  A    between atoms: N_20  and  CA_21 
REMARK   18  A    between atoms: CA_21  and  CB_22 
REMARK   19  A    between atoms: CA_21  and  C_27 
REMARK   20  A    between atoms: CB_22  and  CG_23 
REMARK   21  A    between atoms: CG_23  and  CD_24 
REMARK   22  A    between atoms: CD_24  and  OE2_26 
REMARK   23  A    between atoms: C_27  and  OXT_29 
ROOT
HETATM    1  C   UNK A   0     -34.071  -2.894 -17.023  1.00  0.00     0.009 C 
ENDROOT
BRANCH   1   2
HETATM    2  C   UNK A   0     -35.141  -2.275 -16.133  1.00  0.00     0.000 C 
BRANCH   2   3
HETATM    3  C   UNK A   0     -35.817  -1.119 -16.862  1.00  0.00     0.000 C 
BRANCH   3   4
HETATM    4  C   UNK A   0     -36.623  -0.286 -15.881  1.00  0.00     0.000 C 
BRANCH   4   5
HETATM    5  C   UNK A   0     -35.938   1.046 -15.627  1.00  0.00     0.000 C 
BRANCH   5   6
HETATM    6  C   UNK A   0     -35.209   1.002 -14.295  1.00  0.00     0.000 C 
BRANCH   6   7
HETATM    7  C   UNK A   0     -35.912   0.046 -13.349  1.00  0.00     0.000 C 
BRANCH   7   8
HETATM    8  C   UNK A   0     -34.946  -0.424 -12.278  1.00  0.00     0.000 C 
BRANCH   8   9
HETATM    9  C   UNK A   0     -35.717  -0.920 -11.068  1.00  0.00     0.000 C 
BRANCH   9  10
HETATM   10  C   UNK A   0     -35.019  -2.127 -10.469  1.00  0.00     0.000 C 
BRANCH  10  11
HETATM   11  C   UNK A   0     -33.563  -2.152 -10.902  1.00  0.00     0.000 C 
BRANCH  11  12
HETATM   12  C   UNK A   0     -33.148  -3.571 -11.251  1.00  0.00     0.000 C 
BRANCH  12  13
HETATM   13  C   UNK A   0     -33.992  -4.096 -12.401  1.00  0.00     0.000 C 
BRANCH  13  14
HETATM   14  C   UNK A   0     -34.675  -5.396 -12.002  1.00  0.00    -0.000 C 
BRANCH  14  15
HETATM   15  C   UNK A   0     -34.381  -5.734 -10.546  1.00  0.00    -0.005 C 
HETATM   16  C   UNK A   0     -34.619  -7.209 -10.282  1.00  0.00     0.005 C 
ENDBRANCH  14  15
ENDBRANCH  13  14
ENDBRANCH  12  13
ENDBRANCH  11  12
ENDBRANCH  10  11
ENDBRANCH   9  10
ENDBRANCH   8   9
ENDBRANCH   7   8
ENDBRANCH   6   7
ENDBRANCH   5   6
ENDBRANCH   4   5
ENDBRANCH   3   4
ENDBRANCH   2   3
ENDBRANCH   1   2
BRANCH   1  17
HETATM   17  C   UNK A   0     -33.416  -4.111 -16.377  1.00  0.00     0.103 C 
BRANCH  17  18
HETATM   18  C   UNK A   0     -32.031  -4.296 -16.962  1.00  0.00     0.218 C 
HETATM   19  O   UNK A   0     -31.395  -3.325 -17.378  1.00  0.00    -0.274 OA
ATOM     20  N   GLU A   1     -31.546  -5.591 -16.879  1.00  0.00    -0.347 N 
ATOM     21  H   GLU A   1     -32.192  -6.343 -16.639  1.00  0.00     0.163 HD
BRANCH  20  22
ATOM     22  CA  GLU A   1     -30.191  -6.004 -17.305  1.00  0.00     0.182 C 
BRANCH  22  23
ATOM     23  CB  GLU A   1     -29.146  -5.754 -16.193  1.00  0.00     0.046 C 
BRANCH  23  24
ATOM     24  CG  GLU A   1     -27.788  -5.319 -16.747  1.00  0.00     0.112 C 
BRANCH  24  25
ATOM     25  CD  GLU A   1     -26.619  -6.107 -16.214  1.00  0.00     0.139 C 
ATOM     26  OE1 GLU A   1     -25.491  -5.690 -16.035  1.00  0.00    -0.650 OA
BRANCH  25  27
ATOM     27  OE2 GLU A   1     -27.015  -7.381 -15.944  1.00  0.00    -0.776 OA
ATOM     28  HE2 GLU A   1     -26.635  -7.764 -15.125  1.00  0.00     0.167 HD
ENDBRANCH  25  27
ENDBRANCH  24  25
ENDBRANCH  23  24
ENDBRANCH  22  23
BRANCH  22  29
ATOM     29  C   GLU A   1     -30.169  -7.498 -17.726  1.00  0.00     0.163 C 
ATOM     30  O   GLU A   1     -29.495  -8.354 -17.172  1.00  0.00    -0.648 OA
BRANCH  29  31
ATOM     31  OXT GLU A   1     -30.879  -7.767 -18.847  1.00  0.00    -0.775 OA
ATOM     32  HXT GLU A   1     -31.199  -6.981 -19.327  1.00  0.00     0.167 HD
ENDBRANCH  29  31
ENDBRANCH  22  29
ENDBRANCH  20  22
ENDBRANCH  17  18
ENDBRANCH   1  17
TORSDOF 23
BEGIN_RES ARG D 557
REMARK  4 active torsions:
REMARK  status: ('A' for Active; 'I' for Inactive)
REMARK    1  A    between atoms: CA   and  CB  
REMARK    2  A    between atoms: CB   and  CG  
REMARK    3  A    between atoms: CG   and  CD  
REMARK    4  A    between atoms: CD   and  NE  
REMARK       I    between atoms: NE   and  CZ  
REMARK       I    between atoms: CZ   and  NH1 
REMARK       I    between atoms: CZ   and  NH2 
ROOT
ATOM      1  CA  ARG D 557     -26.217   2.705 -17.014  1.00 35.49     0.159 C 
ENDROOT
BRANCH   1   2
ATOM      2  CB  ARG D 557     -26.789   1.319 -17.183  1.00 35.49     0.034 C 
BRANCH   2   3
ATOM      3  CG  ARG D 557     -25.862   0.195 -17.001  1.00 35.49     0.027 C 
BRANCH   3   4
ATOM      4  CD  ARG D 557     -26.279  -0.708 -15.905  1.00 35.49     0.116 C 
BRANCH   4   5
ATOM      5  NE  ARG D 557     -25.238  -0.891 -14.928  1.00 35.49    -0.212 N 
ATOM      6  CZ  ARG D 557     -24.978  -2.006 -14.282  1.00 35.49     0.666 C 
ATOM      7  NH1 ARG D 557     -25.681  -3.109 -14.461  1.00 35.49    -0.235 N 
ATOM      8  NH2 ARG D 557     -23.981  -1.997 -13.446  1.00 35.49    -0.235 N 
ATOM      9  HH  ARG D 557     -26.340  -3.139 -15.008  1.00 35.49     0.174 HD
ATOM     10  HH  ARG D 557     -25.463  -3.807 -14.014  1.00 35.49     0.174 HD
ATOM     11  HH  ARG D 557     -23.540  -1.272 -13.356  1.00 35.49     0.174 HD
ATOM     12  HH  ARG D 557     -23.780  -2.698 -13.014  1.00 35.49     0.174 HD
ATOM     13  HE  ARG D 557     -24.783  -0.211 -14.697  1.00 35.49     0.178 HD
ENDBRANCH   4   5
ENDBRANCH   3   4
ENDBRANCH   2   3
ENDBRANCH   1   2
END_RES ARG D 557
BEGIN_RES GLU D 570
REMARK  3 active torsions:
REMARK  status: ('A' for Active; 'I' for Inactive)
REMARK    5  A    between atoms: CA   and  CB  
REMARK    6  A    between atoms: CB   and  CG  
REMARK    7  A    between atoms: CG   and  CD  
ROOT
ATOM     14  CA  GLU D 570     -18.033  -6.348 -13.375  1.00 32.92     0.160 C 
ENDROOT
BRANCH  14  15
ATOM     15  CB  GLU D 570     -19.500  -6.345 -13.794  1.00 32.92     0.043 C 
BRANCH  15  16
ATOM     16  CG  GLU D 570     -20.460  -5.624 -12.919  1.00 32.92     0.100 C 
BRANCH  16  17
ATOM     17  CD  GLU D 570     -21.750  -5.272 -13.624  1.00 32.92     0.185 C 
ATOM     18  OE1 GLU D 570     -22.393  -6.173 -14.194  1.00 32.92    -0.647 OA
ATOM     19  OE2 GLU D 570     -22.111  -4.078 -13.620  1.00 32.92    -0.647 OA
ENDBRANCH  16  17
ENDBRANCH  15  16
ENDBRANCH  14  15
END_RES GLU D 570
ENDMDL
MODEL 7
REMARK VINA RESULT:      -7.3      2.878      5.849
REMARK  23 active torsions:
REMARK  status: ('A' for Active; 'I' for Inactive)
REMARK    1  A    between atoms: C_2  and  C_3 
REMARK    2  A    between atoms: C_3  and  C_4 
REMARK    3  A    between atoms: C_4  and  C_5 
REMARK    4  A    between atoms: C_5  and  C_6 
REMARK    5  A    between atoms: C_6  and  C_7 
REMARK    6  A    between atoms: C_7  and  C_8 
REMARK    7  A    between atoms: C_8  and  C_9 
REMARK    8  A    between atoms: C_9  and  C_10 
REMARK    9  A    between atoms: C_10  and  C_11 
REMARK   10  A    between atoms: C_11  and  C_12 
REMARK   11  A    between atoms: C_12  and  C_13 
REMARK   12  A    between atoms: C_13  and  C_14 
REMARK   13  A    between atoms: C_14  and  C_15 
REMARK   14  A    between atoms: C_15  and  C_16 
REMARK   15  A    between atoms: C_16  and  C_17 
REMARK   16  A    between atoms: C_17  and  C_18 
REMARK       I    between atoms: C_18  and  N_20 
REMARK   17  A    between atoms: N_20  and  CA_21 
REMARK   18  A    between atoms: CA_21  and  CB_22 
REMARK   19  A    between atoms: CA_21  and  C_27 
REMARK   20  A    between atoms: CB_22  and  CG_23 
REMARK   21  A    between atoms: CG_23  and  CD_24 
REMARK   22  A    between atoms: CD_24  and  OE2_26 
REMARK   23  A    between atoms: C_27  and  OXT_29 
ROOT
HETATM    1  C   UNK A   0     -21.369  -7.410  -4.722  1.00  0.00     0.009 C 
ENDROOT
BRANCH   1   2
HETATM    2  C   UNK A   0     -21.165  -7.381  -3.213  1.00  0.00     0.000 C 
BRANCH   2   3
HETATM    3  C   UNK A   0     -21.887  -6.179  -2.616  1.00  0.00     0.000 C 
BRANCH   3   4
HETATM    4  C   UNK A   0     -22.255  -6.459  -1.169  1.00  0.00     0.000 C 
BRANCH   4   5
HETATM    5  C   UNK A   0     -22.199  -7.951  -0.887  1.00  0.00     0.000 C 
BRANCH   5   6
HETATM    6  C   UNK A   0     -22.340  -8.196   0.606  1.00  0.00     0.000 C 
BRANCH   6   7
HETATM    7  C   UNK A   0     -21.146  -8.980   1.118  1.00  0.00     0.000 C 
BRANCH   7   8
HETATM    8  C   UNK A   0     -20.850 -10.140   0.186  1.00  0.00     0.000 C 
BRANCH   8   9
HETATM    9  C   UNK A   0     -21.101 -11.455   0.901  1.00  0.00     0.000 C 
BRANCH   9  10
HETATM   10  C   UNK A   0     -22.076 -12.301   0.103  1.00  0.00     0.000 C 
BRANCH  10  11
HETATM   11  C   UNK A   0     -23.479 -11.733   0.230  1.00  0.00     0.000 C 
BRANCH  11  12
HETATM   12  C   UNK A   0     -23.996 -11.312  -1.135  1.00  0.00     0.000 C 
BRANCH  12  13
HETATM   13  C   UNK A   0     -23.138 -11.924  -2.231  1.00  0.00     0.000 C 
BRANCH  13  14
HETATM   14  C   UNK A   0     -22.688 -10.849  -3.210  1.00  0.00    -0.000 C 
BRANCH  14  15
HETATM   15  C   UNK A   0     -21.195 -10.966  -3.487  1.00  0.00    -0.005 C 
HETATM   16  C   UNK A   0     -20.725 -12.395  -3.289  1.00  0.00     0.005 C 
ENDBRANCH  14  15
ENDBRANCH  13  14
ENDBRANCH  12  13
ENDBRANCH  11  12
ENDBRANCH  10  11
ENDBRANCH   9  10
ENDBRANCH   8   9
ENDBRANCH   7   8
ENDBRANCH   6   7
ENDBRANCH   5   6
ENDBRANCH   4   5
ENDBRANCH   3   4
ENDBRANCH   2   3
ENDBRANCH   1   2
BRANCH   1  17
HETATM   17  C   UNK A   0     -21.576  -6.014  -5.302  1.00  0.00     0.103 C 
BRANCH  17  18
HETATM   18  C   UNK A   0     -21.003  -5.971  -6.704  1.00  0.00     0.218 C 
HETATM   19  O   UNK A   0     -20.006  -6.636  -6.990  1.00  0.00    -0.274 OA
ATOM     20  N   GLU A   1     -21.750  -5.226  -7.602  1.00  0.00    -0.347 N 
ATOM     21  H   GLU A   1     -22.481  -4.612  -7.243  1.00  0.00     0.163 HD
BRANCH  20  22
ATOM     22  CA  GLU A   1     -21.441  -5.102  -9.043  1.00  0.00     0.182 C 
BRANCH  22  23
ATOM     23  CB  GLU A   1     -22.719  -4.860  -9.879  1.00  0.00     0.046 C 
BRANCH  23  24
ATOM     24  CG  GLU A   1     -23.684  -3.878  -9.210  1.00  0.00     0.112 C 
BRANCH  24  25
ATOM     25  CD  GLU A   1     -24.721  -3.298 -10.136  1.00  0.00     0.139 C 
ATOM     26  OE1 GLU A   1     -24.539  -2.923 -11.278  1.00  0.00    -0.650 OA
BRANCH  25  27
ATOM     27  OE2 GLU A   1     -25.925  -3.261  -9.502  1.00  0.00    -0.776 OA
ATOM     28  HE2 GLU A   1     -26.692  -3.509 -10.061  1.00  0.00     0.167 HD
ENDBRANCH  25  27
ENDBRANCH  24  25
ENDBRANCH  23  24
ENDBRANCH  22  23
BRANCH  22  29
ATOM     29  C   GLU A   1     -20.417  -3.962  -9.298  1.00  0.00     0.163 C 
ATOM     30  O   GLU A   1     -20.309  -3.366 -10.361  1.00  0.00    -0.648 OA
BRANCH  29  31
ATOM     31  OXT GLU A   1     -19.559  -3.751  -8.273  1.00  0.00    -0.775 OA
ATOM     32  HXT GLU A   1     -18.782  -4.338  -8.263  1.00  0.00     0.167 HD
ENDBRANCH  29  31
ENDBRANCH  22  29
ENDBRANCH  20  22
ENDBRANCH  17  18
ENDBRANCH   1  17
TORSDOF 23
BEGIN_RES ARG D 557
REMARK  4 active torsions:
REMARK  status: ('A' for Active; 'I' for Inactive)
REMARK    1  A    between atoms: CA   and  CB  
REMARK    2  A    between atoms: CB   and  CG  
REMARK    3  A    between atoms: CG   and  CD  
REMARK    4  A    between atoms: CD   and  NE  
REMARK       I    between atoms: NE   and  CZ  
REMARK       I    between atoms: CZ   and  NH1 
REMARK       I    between atoms: CZ   and  NH2 
ROOT
ATOM      1  CA  ARG D 557     -26.217   2.705 -17.014  1.00 35.49     0.159 C 
ENDROOT
BRANCH   1   2
ATOM      2  CB  ARG D 557     -26.789   1.319 -17.183  1.00 35.49     0.034 C 
BRANCH   2   3
ATOM      3  CG  ARG D 557     -25.840   0.201 -17.125  1.00 35.49     0.027 C 
BRANCH   3   4
ATOM      4  CD  ARG D 557     -25.352  -0.054 -15.750  1.00 35.49     0.116 C 
BRANCH   4   5
ATOM      5  NE  ARG D 557     -25.647  -1.391 -15.308  1.00 35.49    -0.212 N 
ATOM      6  CZ  ARG D 557     -24.937  -2.093 -14.454  1.00 35.49     0.666 C 
ATOM      7  NH1 ARG D 557     -23.830  -1.629 -13.903  1.00 35.49    -0.235 N 
ATOM      8  NH2 ARG D 557     -25.366  -3.283 -14.151  1.00 35.49    -0.235 N 
ATOM      9  HH  ARG D 557     -23.530  -0.847 -14.086  1.00 35.49     0.174 HD
ATOM     10  HH  ARG D 557     -23.410  -2.131 -13.350  1.00 35.49     0.174 HD
ATOM     11  HH  ARG D 557     -26.087  -3.554 -14.517  1.00 35.49     0.174 HD
ATOM     12  HH  ARG D 557     -24.936  -3.764 -13.600  1.00 35.49     0.174 HD
ATOM     13  HE  ARG D 557     -26.303  -1.795 -15.668  1.00 35.49     0.178 HD
ENDBRANCH   4   5
ENDBRANCH   3   4
ENDBRANCH   2   3
ENDBRANCH   1   2
END_RES ARG D 557
BEGIN_RES GLU D 570
REMARK  3 active torsions:
REMARK  status: ('A' for Active; 'I' for Inactive)
REMARK    5  A    between atoms: CA   and  CB  
REMARK    6  A    between atoms: CB   and  CG  
REMARK    7  A    between atoms: CG   and  CD  
ROOT
ATOM     14  CA  GLU D 570     -18.033  -6.348 -13.375  1.00 32.92     0.160 C 
ENDROOT
BRANCH  14  15
ATOM     15  CB  GLU D 570     -19.500  -6.345 -13.794  1.00 32.92     0.043 C 
BRANCH  15  16
ATOM     16  CG  GLU D 570     -20.445  -5.547 -12.971  1.00 32.92     0.100 C 
BRANCH  16  17
ATOM     17  CD  GLU D 570     -21.736  -5.236 -13.692  1.00 32.92     0.185 C 
ATOM     18  OE1 GLU D 570     -22.146  -6.023 -14.566  1.00 32.92    -0.647 OA
ATOM     19  OE2 GLU D 570     -22.335  -4.185 -13.390  1.00 32.92    -0.647 OA
ENDBRANCH  16  17
ENDBRANCH  15  16
ENDBRANCH  14  15
END_RES GLU D 570
ENDMDL
MODEL 8
REMARK VINA RESULT:      -7.3      2.383      4.294
REMARK  23 active torsions:
REMARK  status: ('A' for Active; 'I' for Inactive)
REMARK    1  A    between atoms: C_2  and  C_3 
REMARK    2  A    between atoms: C_3  and  C_4 
REMARK    3  A    between atoms: C_4  and  C_5 
REMARK    4  A    between atoms: C_5  and  C_6 
REMARK    5  A    between atoms: C_6  and  C_7 
REMARK    6  A    between atoms: C_7  and  C_8 
REMARK    7  A    between atoms: C_8  and  C_9 
REMARK    8  A    between atoms: C_9  and  C_10 
REMARK    9  A    between atoms: C_10  and  C_11 
REMARK   10  A    between atoms: C_11  and  C_12 
REMARK   11  A    between atoms: C_12  and  C_13 
REMARK   12  A    between atoms: C_13  and  C_14 
REMARK   13  A    between atoms: C_14  and  C_15 
REMARK   14  A    between atoms: C_15  and  C_16 
REMARK   15  A    between atoms: C_16  and  C_17 
REMARK   16  A    between atoms: C_17  and  C_18 
REMARK       I    between atoms: C_18  and  N_20 
REMARK   17  A    between atoms: N_20  and  CA_21 
REMARK   18  A    between atoms: CA_21  and  CB_22 
REMARK   19  A    between atoms: CA_21  and  C_27 
REMARK   20  A    between atoms: CB_22  and  CG_23 
REMARK   21  A    between atoms: CG_23  and  CD_24 
REMARK   22  A    between atoms: CD_24  and  OE2_26 
REMARK   23  A    between atoms: C_27  and  OXT_29 
ROOT
HETATM    1  C   UNK A   0     -20.744  -4.659  -7.064  1.00  0.00     0.009 C 
ENDROOT
BRANCH   1   2
HETATM    2  C   UNK A   0     -21.369  -5.846  -6.344  1.00  0.00     0.000 C 
BRANCH   2   3
HETATM    3  C   UNK A   0     -20.872  -5.899  -4.903  1.00  0.00     0.000 C 
BRANCH   3   4
HETATM    4  C   UNK A   0     -21.645  -6.949  -4.125  1.00  0.00     0.000 C 
BRANCH   4   5
HETATM    5  C   UNK A   0     -21.195  -6.974  -2.674  1.00  0.00     0.000 C 
BRANCH   5   6
HETATM    6  C   UNK A   0     -22.240  -6.301  -1.801  1.00  0.00     0.000 C 
BRANCH   6   7
HETATM    7  C   UNK A   0     -22.465  -7.115  -0.540  1.00  0.00     0.000 C 
BRANCH   7   8
HETATM    8  C   UNK A   0     -21.435  -8.225  -0.450  1.00  0.00     0.000 C 
BRANCH   8   9
HETATM    9  C   UNK A   0     -21.312  -8.702   0.985  1.00  0.00     0.000 C 
BRANCH   9  10
HETATM   10  C   UNK A   0     -20.747 -10.111   1.016  1.00  0.00     0.000 C 
BRANCH  10  11
HETATM   11  C   UNK A   0     -20.734 -10.694  -0.386  1.00  0.00     0.000 C 
BRANCH  11  12
HETATM   12  C   UNK A   0     -21.555 -11.971  -0.426  1.00  0.00     0.000 C 
BRANCH  12  13
HETATM   13  C   UNK A   0     -21.987 -12.360   0.979  1.00  0.00     0.000 C 
BRANCH  13  14
HETATM   14  C   UNK A   0     -22.698 -13.706   0.959  1.00  0.00    -0.000 C 
BRANCH  14  15
HETATM   15  C   UNK A   0     -23.481 -13.920   2.247  1.00  0.00    -0.005 C 
HETATM   16  C   UNK A   0     -22.740 -14.869   3.170  1.00  0.00     0.005 C 
ENDBRANCH  14  15
ENDBRANCH  13  14
ENDBRANCH  12  13
ENDBRANCH  11  12
ENDBRANCH  10  11
ENDBRANCH   9  10
ENDBRANCH   8   9
ENDBRANCH   7   8
ENDBRANCH   6   7
ENDBRANCH   5   6
ENDBRANCH   4   5
ENDBRANCH   3   4
ENDBRANCH   2   3
ENDBRANCH   1   2
BRANCH   1  17
HETATM   17  C   UNK A   0     -20.151  -5.051  -8.414  1.00  0.00     0.103 C 
BRANCH  17  18
HETATM   18  C   UNK A   0     -20.909  -4.335  -9.513  1.00  0.00     0.218 C 
HETATM   19  O   UNK A   0     -20.302  -3.695 -10.373  1.00  0.00    -0.274 OA
ATOM     20  N   GLU A   1     -22.275  -4.562  -9.504  1.00  0.00    -0.347 N 
ATOM     21  H   GLU A   1     -22.695  -4.997  -8.682  1.00  0.00     0.163 HD
BRANCH  20  22
ATOM     22  CA  GLU A   1     -23.215  -4.043 -10.521  1.00  0.00     0.182 C 
BRANCH  22  23
ATOM     23  CB  GLU A   1     -23.526  -5.105 -11.601  1.00  0.00     0.046 C 
BRANCH  23  24
ATOM     24  CG  GLU A   1     -22.661  -4.945 -12.853  1.00  0.00     0.112 C 
BRANCH  24  25
ATOM     25  CD  GLU A   1     -23.372  -5.256 -14.144  1.00  0.00     0.139 C 
ATOM     26  OE1 GLU A   1     -23.435  -4.538 -15.123  1.00  0.00    -0.650 OA
BRANCH  25  27
ATOM     27  OE2 GLU A   1     -23.940  -6.490 -14.063  1.00  0.00    -0.776 OA
ATOM     28  HE2 GLU A   1     -23.310  -7.222 -13.889  1.00  0.00     0.167 HD
ENDBRANCH  25  27
ENDBRANCH  24  25
ENDBRANCH  23  24
ENDBRANCH  22  23
BRANCH  22  29
ATOM     29  C   GLU A   1     -24.534  -3.553  -9.865  1.00  0.00     0.163 C 
ATOM     30  O   GLU A   1     -25.525  -3.211 -10.494  1.00  0.00    -0.648 OA
BRANCH  29  31
ATOM     31  OXT GLU A   1     -24.466  -3.422  -8.519  1.00  0.00    -0.775 OA
ATOM     32  HXT GLU A   1     -24.075  -2.584  -8.209  1.00  0.00     0.167 HD
ENDBRANCH  29  31
ENDBRANCH  22  29
ENDBRANCH  20  22
ENDBRANCH  17  18
ENDBRANCH   1  17
TORSDOF 23
BEGIN_RES ARG D 557
REMARK  4 active torsions:
REMARK  status: ('A' for Active; 'I' for Inactive)
REMARK    1  A    between atoms: CA   and  CB  
REMARK    2  A    between atoms: CB   and  CG  
REMARK    3  A    between atoms: CG   and  CD  
REMARK    4  A    between atoms: CD   and  NE  
REMARK       I    between atoms: NE   and  CZ  
REMARK       I    between atoms: CZ   and  NH1 
REMARK       I    between atoms: CZ   and  NH2 
ROOT
ATOM      1  CA  ARG D 557     -26.217   2.705 -17.014  1.00 35.49     0.159 C 
ENDROOT
BRANCH   1   2
ATOM      2  CB  ARG D 557     -26.789   1.319 -17.183  1.00 35.49     0.034 C 
BRANCH   2   3
ATOM      3  CG  ARG D 557     -25.958   0.200 -16.722  1.00 35.49     0.027 C 
BRANCH   3   4
ATOM      4  CD  ARG D 557     -26.766  -0.942 -16.239  1.00 35.49     0.116 C 
BRANCH   4   5
ATOM      5  NE  ARG D 557     -26.289  -1.451 -14.980  1.00 35.49    -0.212 N 
ATOM      6  CZ  ARG D 557     -26.199  -2.719 -14.649  1.00 35.49     0.666 C 
ATOM      7  NH1 ARG D 557     -26.565  -3.693 -15.463  1.00 35.49    -0.235 N 
ATOM      8  NH2 ARG D 557     -25.723  -3.000 -13.470  1.00 35.49    -0.235 N 
ATOM      9  HH  ARG D 557     -26.879  -3.531 -16.243  1.00 35.49     0.174 HD
ATOM     10  HH  ARG D 557     -26.481  -4.502 -15.193  1.00 35.49     0.174 HD
ATOM     11  HH  ARG D 557     -25.488  -2.351 -12.969  1.00 35.49     0.174 HD
ATOM     12  HH  ARG D 557     -25.646  -3.807 -13.222  1.00 35.49     0.174 HD
ATOM     13  HE  ARG D 557     -26.101  -0.891 -14.369  1.00 35.49     0.178 HD
ENDBRANCH   4   5
ENDBRANCH   3   4
ENDBRANCH   2   3
ENDBRANCH   1   2
END_RES ARG D 557
BEGIN_RES GLU D 570
REMARK  3 active torsions:
REMARK  status: ('A' for Active; 'I' for Inactive)
REMARK    5  A    between atoms: CA   and  CB  
REMARK    6  A    between atoms: CB   and  CG  
REMARK    7  A    between atoms: CG   and  CD  
ROOT
ATOM     14  CA  GLU D 570     -18.033  -6.348 -13.375  1.00 32.92     0.160 C 
ENDROOT
BRANCH  14  15
ATOM     15  CB  GLU D 570     -19.500  -6.345 -13.794  1.00 32.92     0.043 C 
BRANCH  15  16
ATOM     16  CG  GLU D 570     -20.087  -7.635 -14.239  1.00 32.92     0.100 C 
BRANCH  16  17
ATOM     17  CD  GLU D 570     -20.722  -7.552 -15.608  1.00 32.92     0.185 C 
ATOM     18  OE1 GLU D 570     -20.725  -6.461 -16.209  1.00 32.92    -0.647 OA
ATOM     19  OE2 GLU D 570     -21.237  -8.586 -16.077  1.00 32.92    -0.647 OA
ENDBRANCH  16  17
ENDBRANCH  15  16
ENDBRANCH  14  15
END_RES GLU D 570
ENDMDL
MODEL 9
REMARK VINA RESULT:      -7.2      1.947      3.888
REMARK  23 active torsions:
REMARK  status: ('A' for Active; 'I' for Inactive)
REMARK    1  A    between atoms: C_2  and  C_3 
REMARK    2  A    between atoms: C_3  and  C_4 
REMARK    3  A    between atoms: C_4  and  C_5 
REMARK    4  A    between atoms: C_5  and  C_6 
REMARK    5  A    between atoms: C_6  and  C_7 
REMARK    6  A    between atoms: C_7  and  C_8 
REMARK    7  A    between atoms: C_8  and  C_9 
REMARK    8  A    between atoms: C_9  and  C_10 
REMARK    9  A    between atoms: C_10  and  C_11 
REMARK   10  A    between atoms: C_11  and  C_12 
REMARK   11  A    between atoms: C_12  and  C_13 
REMARK   12  A    between atoms: C_13  and  C_14 
REMARK   13  A    between atoms: C_14  and  C_15 
REMARK   14  A    between atoms: C_15  and  C_16 
REMARK   15  A    between atoms: C_16  and  C_17 
REMARK   16  A    between atoms: C_17  and  C_18 
REMARK       I    between atoms: C_18  and  N_20 
REMARK   17  A    between atoms: N_20  and  CA_21 
REMARK   18  A    between atoms: CA_21  and  CB_22 
REMARK   19  A    between atoms: CA_21  and  C_27 
REMARK   20  A    between atoms: CB_22  and  CG_23 
REMARK   21  A    between atoms: CG_23  and  CD_24 
REMARK   22  A    between atoms: CD_24  and  OE2_26 
REMARK   23  A    between atoms: C_27  and  OXT_29 
ROOT
HETATM    1  C   UNK A   0     -19.783  -4.770  -6.826  1.00  0.00     0.009 C 
ENDROOT
BRANCH   1   2
HETATM    2  C   UNK A   0     -20.368  -5.336  -5.539  1.00  0.00     0.000 C 
BRANCH   2   3
HETATM    3  C   UNK A   0     -20.854  -6.762  -5.774  1.00  0.00     0.000 C 
BRANCH   3   4
HETATM    4  C   UNK A   0     -21.694  -7.225  -4.597  1.00  0.00     0.000 C 
BRANCH   4   5
HETATM    5  C   UNK A   0     -21.491  -6.306  -3.405  1.00  0.00     0.000 C 
BRANCH   5   6
HETATM    6  C   UNK A   0     -21.313  -7.133  -2.143  1.00  0.00     0.000 C 
BRANCH   6   7
HETATM    7  C   UNK A   0     -22.339  -6.722  -1.103  1.00  0.00     0.000 C 
BRANCH   7   8
HETATM    8  C   UNK A   0     -22.554  -7.852  -0.114  1.00  0.00     0.000 C 
BRANCH   8   9
HETATM    9  C   UNK A   0     -22.116  -9.168  -0.730  1.00  0.00     0.000 C 
BRANCH   9  10
HETATM   10  C   UNK A   0     -23.200 -10.214  -0.543  1.00  0.00     0.000 C 
BRANCH  10  11
HETATM   11  C   UNK A   0     -23.282 -11.101  -1.772  1.00  0.00     0.000 C 
BRANCH  11  12
HETATM   12  C   UNK A   0     -22.467 -10.499  -2.904  1.00  0.00     0.000 C 
BRANCH  12  13
HETATM   13  C   UNK A   0     -21.553 -11.552  -3.510  1.00  0.00     0.000 C 
BRANCH  13  14
HETATM   14  C   UNK A   0     -20.110 -11.295  -3.101  1.00  0.00    -0.000 C 
BRANCH  14  15
HETATM   15  C   UNK A   0     -19.560 -10.065  -3.810  1.00  0.00    -0.005 C 
HETATM   16  C   UNK A   0     -18.555  -9.347  -2.929  1.00  0.00     0.005 C 
ENDBRANCH  14  15
ENDBRANCH  13  14
ENDBRANCH  12  13
ENDBRANCH  11  12
ENDBRANCH  10  11
ENDBRANCH   9  10
ENDBRANCH   8   9
ENDBRANCH   7   8
ENDBRANCH   6   7
ENDBRANCH   5   6
ENDBRANCH   4   5
ENDBRANCH   3   4
ENDBRANCH   2   3
ENDBRANCH   1   2
BRANCH   1  17
HETATM   17  C   UNK A   0     -20.502  -5.294  -8.066  1.00  0.00     0.103 C 
BRANCH  17  18
HETATM   18  C   UNK A   0     -21.518  -4.266  -8.519  1.00  0.00     0.218 C 
HETATM   19  O   UNK A   0     -21.947  -3.423  -7.729  1.00  0.00    -0.274 OA
ATOM     20  N   GLU A   1     -21.809  -4.311  -9.873  1.00  0.00    -0.347 N 
ATOM     21  H   GLU A   1     -21.505  -5.120 -10.414  1.00  0.00     0.163 HD
BRANCH  20  22
ATOM     22  CA  GLU A   1     -22.705  -3.359 -10.566  1.00  0.00     0.182 C 
BRANCH  22  23
ATOM     23  CB  GLU A   1     -22.170  -2.997 -11.970  1.00  0.00     0.046 C 
BRANCH  23  24
ATOM     24  CG  GLU A   1     -22.298  -4.151 -12.967  1.00  0.00     0.112 C 
BRANCH  24  25
ATOM     25  CD  GLU A   1     -22.795  -3.743 -14.330  1.00  0.00     0.139 C 
ATOM     26  OE1 GLU A   1     -23.857  -3.207 -14.578  1.00  0.00    -0.650 OA
BRANCH  25  27
ATOM     27  OE2 GLU A   1     -21.860  -4.059 -15.267  1.00  0.00    -0.776 OA
ATOM     28  HE2 GLU A   1     -20.931  -4.013 -14.952  1.00  0.00     0.167 HD
ENDBRANCH  25  27
ENDBRANCH  24  25
ENDBRANCH  23  24
ENDBRANCH  22  23
BRANCH  22  29
ATOM     29  C   GLU A   1     -24.145  -3.929 -10.679  1.00  0.00     0.163 C 
ATOM     30  O   GLU A   1     -24.458  -5.064 -10.348  1.00  0.00    -0.648 OA
BRANCH  29  31
ATOM     31  OXT GLU A   1     -25.021  -3.098 -11.289  1.00  0.00    -0.775 OA
ATOM     32  HXT GLU A   1     -25.153  -3.269 -12.240  1.00  0.00     0.167 HD
ENDBRANCH  29  31
ENDBRANCH  22  29
ENDBRANCH  20  22
ENDBRANCH  17  18
ENDBRANCH   1  17
TORSDOF 23
BEGIN_RES ARG D 557
REMARK  4 active torsions:
REMARK  status: ('A' for Active; 'I' for Inactive)
REMARK    1  A    between atoms: CA   and  CB  
REMARK    2  A    between atoms: CB   and  CG  
REMARK    3  A    between atoms: CG   and  CD  
REMARK    4  A    between atoms: CD   and  NE  
REMARK       I    between atoms: NE   and  CZ  
REMARK       I    between atoms: CZ   and  NH1 
REMARK       I    between atoms: CZ   and  NH2 
ROOT
ATOM      1  CA  ARG D 557     -26.217   2.705 -17.014  1.00 35.49     0.159 C 
ENDROOT
BRANCH   1   2
ATOM      2  CB  ARG D 557     -26.789   1.319 -17.183  1.00 35.49     0.034 C 
BRANCH   2   3
ATOM      3  CG  ARG D 557     -28.164   1.110 -16.714  1.00 35.49     0.027 C 
BRANCH   3   4
ATOM      4  CD  ARG D 557     -28.778  -0.108 -17.290  1.00 35.49     0.116 C 
BRANCH   4   5
ATOM      5  NE  ARG D 557     -28.148  -1.311 -16.812  1.00 35.49    -0.212 N 
ATOM      6  CZ  ARG D 557     -28.595  -2.534 -16.987  1.00 35.49     0.666 C 
ATOM      7  NH1 ARG D 557     -29.718  -2.793 -17.631  1.00 35.49    -0.235 N 
ATOM      8  NH2 ARG D 557     -27.882  -3.509 -16.502  1.00 35.49    -0.235 N 
ATOM      9  HH  ARG D 557     -30.202  -2.167 -17.960  1.00 35.49     0.174 HD
ATOM     10  HH  ARG D 557     -29.958  -3.611 -17.717  1.00 35.49     0.174 HD
ATOM     11  HH  ARG D 557     -27.158  -3.312 -16.097  1.00 35.49     0.174 HD
ATOM     12  HH  ARG D 557     -28.136  -4.312 -16.599  1.00 35.49     0.174 HD
ATOM     13  HE  ARG D 557     -27.456  -1.232 -16.323  1.00 35.49     0.178 HD
ENDBRANCH   4   5
ENDBRANCH   3   4
ENDBRANCH   2   3
ENDBRANCH   1   2
END_RES ARG D 557
BEGIN_RES GLU D 570
REMARK  3 active torsions:
REMARK  status: ('A' for Active; 'I' for Inactive)
REMARK    5  A    between atoms: CA   and  CB  
REMARK    6  A    between atoms: CB   and  CG  
REMARK    7  A    between atoms: CG   and  CD  
ROOT
ATOM     14  CA  GLU D 570     -18.033  -6.348 -13.375  1.00 32.92     0.160 C 
ENDROOT
BRANCH  14  15
ATOM     15  CB  GLU D 570     -19.500  -6.345 -13.794  1.00 32.92     0.043 C 
BRANCH  15  16
ATOM     16  CG  GLU D 570     -20.067  -7.618 -14.310  1.00 32.92     0.100 C 
BRANCH  16  17
ATOM     17  CD  GLU D 570     -20.762  -7.456 -15.642  1.00 32.92     0.185 C 
ATOM     18  OE1 GLU D 570     -21.502  -8.371 -16.053  1.00 32.92    -0.647 OA
ATOM     19  OE2 GLU D 570     -20.552  -6.411 -16.288  1.00 32.92    -0.647 OA
ENDBRANCH  16  17
ENDBRANCH  15  16
ENDBRANCH  14  15
END_RES GLU D 570
ENDMDL
