MODEL 1
REMARK VINA RESULT:      -7.2      0.000      0.000
REMARK  16 active torsions:
REMARK  status: ('A' for Active; 'I' for Inactive)
REMARK    1  A    between atoms: C_2  and  C_3 
REMARK    2  A    between atoms: C_3  and  C_4 
REMARK    3  A    between atoms: C_4  and  C_5 
REMARK    4  A    between atoms: C_5  and  C_6 
REMARK    5  A    between atoms: C_6  and  C_7 
REMARK    6  A    between atoms: C_7  and  C_8 
REMARK    7  A    between atoms: C_8  and  C_9 
REMARK    8  A    between atoms: C_9  and  C_10 
REMARK    9  A    between atoms: C_10  and  C_11 
REMARK   10  A    between atoms: C_11  and  C_12 
REMARK       I    between atoms: C_12  and  N_14 
REMARK   11  A    between atoms: N_14  and  C_15 
REMARK   12  A    between atoms: N_14  and  C_18 
REMARK   13  A    between atoms: C_15  and  C_16 
REMARK   14  A    between atoms: C_16  and  O_17 
REMARK   15  A    between atoms: C_18  and  C_19 
REMARK   16  A    between atoms: C_19  and  O_20 
ROOT
HETATM    1  C   UNL     1     -23.250  -4.728 -10.244  1.00  0.00     0.103 C 
ENDROOT
BRANCH   1   2
HETATM    2  C   UNL     1     -22.386  -4.043  -9.194  1.00  0.00     0.009 C 
BRANCH   2   3
HETATM    3  C   UNL     1     -20.925  -4.416  -9.472  1.00  0.00     0.000 C 
BRANCH   3   4
HETATM    4  C   UNL     1     -20.027  -4.004  -8.321  1.00  0.00     0.000 C 
BRANCH   4   5
HETATM    5  C   UNL     1     -19.711  -5.192  -7.419  1.00  0.00     0.000 C 
BRANCH   5   6
HETATM    6  C   UNL     1     -20.039  -4.832  -5.976  1.00  0.00     0.000 C 
BRANCH   6   7
HETATM    7  C   UNL     1     -21.259  -5.590  -5.478  1.00  0.00     0.000 C 
BRANCH   7   8
HETATM    8  C   UNL     1     -20.890  -7.041  -5.188  1.00  0.00     0.000 C 
BRANCH   8   9
HETATM    9  C   UNL     1     -21.088  -7.363  -3.712  1.00  0.00    -0.000 C 
BRANCH   9  10
HETATM   10  C   UNL     1     -21.843  -6.241  -3.005  1.00  0.00    -0.005 C 
HETATM   11  C   UNL     1     -22.146  -6.617  -1.566  1.00  0.00     0.005 C 
ENDBRANCH   9  10
ENDBRANCH   8   9
ENDBRANCH   7   8
ENDBRANCH   6   7
ENDBRANCH   5   6
ENDBRANCH   4   5
ENDBRANCH   3   4
ENDBRANCH   2   3
ENDBRANCH   1   2
BRANCH   1  12
HETATM   12  C   UNL     1     -24.140  -3.812 -11.051  1.00  0.00     0.219 C 
HETATM   13  O   UNL     1     -25.035  -3.180 -10.451  1.00  0.00    -0.273 OA
HETATM   14  N   UNL     1     -23.951  -3.705 -12.422  1.00  0.00    -0.348 N 
BRANCH  14  15
HETATM   15  C   UNL     1     -23.016  -4.514 -13.267  1.00  0.00     0.151 C 
BRANCH  15  16
HETATM   16  C   UNL     1     -23.551  -5.814 -13.899  1.00  0.00     0.183 C 
BRANCH  16  17
HETATM   17  O   UNL     1     -24.002  -5.601 -15.230  1.00  0.00    -0.399 OA
HETATM   18  H   UNL     1     -24.959  -5.409 -15.171  1.00  0.00     0.209 HD
ENDBRANCH  16  17
ENDBRANCH  15  16
ENDBRANCH  14  15
BRANCH  14  19
HETATM   19  C   UNL     1     -24.906  -2.835 -13.128  1.00  0.00     0.151 C 
BRANCH  19  20
HETATM   20  C   UNL     1     -24.286  -2.041 -14.289  1.00  0.00     0.183 C 
BRANCH  20  21
HETATM   21  O   UNL     1     -25.171  -1.008 -14.728  1.00  0.00    -0.399 OA
HETATM   22  H   UNL     1     -25.186  -1.069 -15.697  1.00  0.00     0.209 HD
ENDBRANCH  20  21
ENDBRANCH  19  20
ENDBRANCH  14  19
ENDBRANCH   1  12
TORSDOF 16
BEGIN_RES ARG D 557
REMARK  4 active torsions:
REMARK  status: ('A' for Active; 'I' for Inactive)
REMARK    1  A    between atoms: CA   and  CB  
REMARK    2  A    between atoms: CB   and  CG  
REMARK    3  A    between atoms: CG   and  CD  
REMARK    4  A    between atoms: CD   and  NE  
REMARK       I    between atoms: NE   and  CZ  
REMARK       I    between atoms: CZ   and  NH1 
REMARK       I    between atoms: CZ   and  NH2 
ROOT
ATOM      1  CA  ARG D 557     -26.217   2.705 -17.014  1.00 35.49     0.159 C 
ENDROOT
BRANCH   1   2
ATOM      2  CB  ARG D 557     -26.789   1.319 -17.183  1.00 35.49     0.034 C 
BRANCH   2   3
ATOM      3  CG  ARG D 557     -28.230   1.227 -17.450  1.00 35.49     0.027 C 
BRANCH   3   4
ATOM      4  CD  ARG D 557     -28.900   0.225 -16.590  1.00 35.49     0.116 C 
BRANCH   4   5
ATOM      5  NE  ARG D 557     -28.015  -0.847 -16.216  1.00 35.49    -0.212 N 
ATOM      6  CZ  ARG D 557     -28.116  -2.098 -16.607  1.00 35.49     0.666 C 
ATOM      7  NH1 ARG D 557     -29.083  -2.517 -17.402  1.00 35.49    -0.235 N 
ATOM      8  NH2 ARG D 557     -27.211  -2.933 -16.186  1.00 35.49    -0.235 N 
ATOM      9  HH  ARG D 557     -29.687  -1.984 -17.694  1.00 35.49     0.174 HD
ATOM     10  HH  ARG D 557     -29.096  -3.344 -17.627  1.00 35.49     0.174 HD
ATOM     11  HH  ARG D 557     -26.594  -2.633 -15.679  1.00 35.49     0.174 HD
ATOM     12  HH  ARG D 557     -27.240  -3.747 -16.420  1.00 35.49     0.174 HD
ATOM     13  HE  ARG D 557     -27.405  -0.681 -15.647  1.00 35.49     0.178 HD
ENDBRANCH   4   5
ENDBRANCH   3   4
ENDBRANCH   2   3
ENDBRANCH   1   2
END_RES ARG D 557
BEGIN_RES GLU D 570
REMARK  3 active torsions:
REMARK  status: ('A' for Active; 'I' for Inactive)
REMARK    5  A    between atoms: CA   and  CB  
REMARK    6  A    between atoms: CB   and  CG  
REMARK    7  A    between atoms: CG   and  CD  
ROOT
ATOM     14  CA  GLU D 570     -18.033  -6.348 -13.375  1.00 32.92     0.160 C 
ENDROOT
BRANCH  14  15
ATOM     15  CB  GLU D 570     -19.500  -6.345 -13.794  1.00 32.92     0.043 C 
BRANCH  15  16
ATOM     16  CG  GLU D 570     -19.797  -6.221 -15.244  1.00 32.92     0.100 C 
BRANCH  16  17
ATOM     17  CD  GLU D 570     -20.739  -7.291 -15.746  1.00 32.92     0.185 C 
ATOM     18  OE1 GLU D 570     -20.585  -8.464 -15.357  1.00 32.92    -0.647 OA
ATOM     19  OE2 GLU D 570     -21.631  -6.955 -16.551  1.00 32.92    -0.647 OA
ENDBRANCH  16  17
ENDBRANCH  15  16
ENDBRANCH  14  15
END_RES GLU D 570
ENDMDL
MODEL 2
REMARK VINA RESULT:      -7.1      2.351      4.097
REMARK  16 active torsions:
REMARK  status: ('A' for Active; 'I' for Inactive)
REMARK    1  A    between atoms: C_2  and  C_3 
REMARK    2  A    between atoms: C_3  and  C_4 
REMARK    3  A    between atoms: C_4  and  C_5 
REMARK    4  A    between atoms: C_5  and  C_6 
REMARK    5  A    between atoms: C_6  and  C_7 
REMARK    6  A    between atoms: C_7  and  C_8 
REMARK    7  A    between atoms: C_8  and  C_9 
REMARK    8  A    between atoms: C_9  and  C_10 
REMARK    9  A    between atoms: C_10  and  C_11 
REMARK   10  A    between atoms: C_11  and  C_12 
REMARK       I    between atoms: C_12  and  N_14 
REMARK   11  A    between atoms: N_14  and  C_15 
REMARK   12  A    between atoms: N_14  and  C_18 
REMARK   13  A    between atoms: C_15  and  C_16 
REMARK   14  A    between atoms: C_16  and  O_17 
REMARK   15  A    between atoms: C_18  and  C_19 
REMARK   16  A    between atoms: C_19  and  O_20 
ROOT
HETATM    1  C   UNL     1     -21.632  -4.543  -6.971  1.00  0.00     0.103 C 
ENDROOT
BRANCH   1   2
HETATM    2  C   UNL     1     -20.600  -5.049  -5.972  1.00  0.00     0.009 C 
BRANCH   2   3
HETATM    3  C   UNL     1     -20.480  -6.567  -6.151  1.00  0.00     0.000 C 
BRANCH   3   4
HETATM    4  C   UNL     1     -20.996  -7.304  -4.929  1.00  0.00     0.000 C 
BRANCH   4   5
HETATM    5  C   UNL     1     -21.565  -6.331  -3.901  1.00  0.00     0.000 C 
BRANCH   5   6
HETATM    6  C   UNL     1     -21.249  -6.837  -2.500  1.00  0.00     0.000 C 
BRANCH   6   7
HETATM    7  C   UNL     1     -22.266  -6.336  -1.487  1.00  0.00     0.000 C 
BRANCH   7   8
HETATM    8  C   UNL     1     -22.477  -7.381  -0.396  1.00  0.00     0.000 C 
BRANCH   8   9
HETATM    9  C   UNL     1     -22.095  -8.768  -0.899  1.00  0.00    -0.000 C 
BRANCH   9  10
HETATM   10  C   UNL     1     -21.302  -9.532   0.157  1.00  0.00    -0.005 C 
HETATM   11  C   UNL     1     -21.072  -8.673   1.388  1.00  0.00     0.005 C 
ENDBRANCH   9  10
ENDBRANCH   8   9
ENDBRANCH   7   8
ENDBRANCH   6   7
ENDBRANCH   5   6
ENDBRANCH   4   5
ENDBRANCH   3   4
ENDBRANCH   2   3
ENDBRANCH   1   2
BRANCH   1  12
HETATM   12  C   UNL     1     -21.082  -4.101  -8.306  1.00  0.00     0.219 C 
HETATM   13  O   UNL     1     -19.897  -3.707  -8.356  1.00  0.00    -0.273 OA
HETATM   14  N   UNL     1     -21.898  -4.134  -9.429  1.00  0.00    -0.348 N 
BRANCH  14  15
HETATM   15  C   UNL     1     -23.363  -4.444  -9.468  1.00  0.00     0.151 C 
BRANCH  15  16
HETATM   16  C   UNL     1     -24.353  -3.265  -9.526  1.00  0.00     0.183 C 
BRANCH  16  17
HETATM   17  O   UNL     1     -25.011  -3.197 -10.784  1.00  0.00    -0.399 OA
HETATM   18  H   UNL     1     -25.199  -4.120 -11.049  1.00  0.00     0.209 HD
ENDBRANCH  16  17
ENDBRANCH  15  16
ENDBRANCH  14  15
BRANCH  14  19
HETATM   19  C   UNL     1     -21.290  -3.627 -10.670  1.00  0.00     0.151 C 
BRANCH  19  20
HETATM   20  C   UNL     1     -21.782  -4.337 -11.941  1.00  0.00     0.183 C 
BRANCH  20  21
HETATM   21  O   UNL     1     -21.879  -3.419 -13.032  1.00  0.00    -0.399 OA
HETATM   22  H   UNL     1     -21.114  -2.828 -12.947  1.00  0.00     0.209 HD
ENDBRANCH  20  21
ENDBRANCH  19  20
ENDBRANCH  14  19
ENDBRANCH   1  12
TORSDOF 16
BEGIN_RES ARG D 557
REMARK  4 active torsions:
REMARK  status: ('A' for Active; 'I' for Inactive)
REMARK    1  A    between atoms: CA   and  CB  
REMARK    2  A    between atoms: CB   and  CG  
REMARK    3  A    between atoms: CG   and  CD  
REMARK    4  A    between atoms: CD   and  NE  
REMARK       I    between atoms: NE   and  CZ  
REMARK       I    between atoms: CZ   and  NH1 
REMARK       I    between atoms: CZ   and  NH2 
ROOT
ATOM      1  CA  ARG D 557     -26.217   2.705 -17.014  1.00 35.49     0.159 C 
ENDROOT
BRANCH   1   2
ATOM      2  CB  ARG D 557     -26.789   1.319 -17.183  1.00 35.49     0.034 C 
BRANCH   2   3
ATOM      3  CG  ARG D 557     -25.835   0.203 -17.159  1.00 35.49     0.027 C 
BRANCH   3   4
ATOM      4  CD  ARG D 557     -24.759   0.402 -16.161  1.00 35.49     0.116 C 
BRANCH   4   5
ATOM      5  NE  ARG D 557     -24.916  -0.455 -15.016  1.00 35.49    -0.212 N 
ATOM      6  CZ  ARG D 557     -24.101  -1.425 -14.665  1.00 35.49     0.666 C 
ATOM      7  NH1 ARG D 557     -23.023  -1.732 -15.362  1.00 35.49    -0.235 N 
ATOM      8  NH2 ARG D 557     -24.388  -2.087 -13.582  1.00 35.49    -0.235 N 
ATOM      9  HH  ARG D 557     -22.814  -1.308 -16.077  1.00 35.49     0.174 HD
ATOM     10  HH  ARG D 557     -22.528  -2.373 -15.083  1.00 35.49     0.174 HD
ATOM     11  HH  ARG D 557     -25.087  -1.861 -13.148  1.00 35.49     0.174 HD
ATOM     12  HH  ARG D 557     -23.884  -2.717 -13.322  1.00 35.49     0.174 HD
ATOM     13  HE  ARG D 557     -25.623  -0.374 -14.550  1.00 35.49     0.178 HD
ENDBRANCH   4   5
ENDBRANCH   3   4
ENDBRANCH   2   3
ENDBRANCH   1   2
END_RES ARG D 557
BEGIN_RES GLU D 570
REMARK  3 active torsions:
REMARK  status: ('A' for Active; 'I' for Inactive)
REMARK    5  A    between atoms: CA   and  CB  
REMARK    6  A    between atoms: CB   and  CG  
REMARK    7  A    between atoms: CG   and  CD  
ROOT
ATOM     14  CA  GLU D 570     -18.033  -6.348 -13.375  1.00 32.92     0.160 C 
ENDROOT
BRANCH  14  15
ATOM     15  CB  GLU D 570     -19.500  -6.345 -13.794  1.00 32.92     0.043 C 
BRANCH  15  16
ATOM     16  CG  GLU D 570     -19.812  -5.945 -15.190  1.00 32.92     0.100 C 
BRANCH  16  17
ATOM     17  CD  GLU D 570     -21.289  -5.729 -15.425  1.00 32.92     0.185 C 
ATOM     18  OE1 GLU D 570     -22.062  -6.703 -15.353  1.00 32.92    -0.647 OA
ATOM     19  OE2 GLU D 570     -21.675  -4.576 -15.702  1.00 32.92    -0.647 OA
ENDBRANCH  16  17
ENDBRANCH  15  16
ENDBRANCH  14  15
END_RES GLU D 570
ENDMDL
MODEL 3
REMARK VINA RESULT:      -7.0      2.688      4.547
REMARK  16 active torsions:
REMARK  status: ('A' for Active; 'I' for Inactive)
REMARK    1  A    between atoms: C_2  and  C_3 
REMARK    2  A    between atoms: C_3  and  C_4 
REMARK    3  A    between atoms: C_4  and  C_5 
REMARK    4  A    between atoms: C_5  and  C_6 
REMARK    5  A    between atoms: C_6  and  C_7 
REMARK    6  A    between atoms: C_7  and  C_8 
REMARK    7  A    between atoms: C_8  and  C_9 
REMARK    8  A    between atoms: C_9  and  C_10 
REMARK    9  A    between atoms: C_10  and  C_11 
REMARK   10  A    between atoms: C_11  and  C_12 
REMARK       I    between atoms: C_12  and  N_14 
REMARK   11  A    between atoms: N_14  and  C_15 
REMARK   12  A    between atoms: N_14  and  C_18 
REMARK   13  A    between atoms: C_15  and  C_16 
REMARK   14  A    between atoms: C_16  and  O_17 
REMARK   15  A    between atoms: C_18  and  C_19 
REMARK   16  A    between atoms: C_19  and  O_20 
ROOT
HETATM    1  C   UNL     1     -21.710  -5.004  -6.939  1.00  0.00     0.103 C 
ENDROOT
BRANCH   1   2
HETATM    2  C   UNL     1     -21.199  -6.169  -6.103  1.00  0.00     0.009 C 
BRANCH   2   3
HETATM    3  C   UNL     1     -22.069  -6.260  -4.844  1.00  0.00     0.000 C 
BRANCH   3   4
HETATM    4  C   UNL     1     -21.216  -6.256  -3.589  1.00  0.00     0.000 C 
BRANCH   4   5
HETATM    5  C   UNL     1     -22.084  -6.202  -2.336  1.00  0.00     0.000 C 
BRANCH   5   6
HETATM    6  C   UNL     1     -21.927  -7.501  -1.558  1.00  0.00     0.000 C 
BRANCH   6   7
HETATM    7  C   UNL     1     -22.247  -7.307  -0.083  1.00  0.00     0.000 C 
BRANCH   7   8
HETATM    8  C   UNL     1     -23.161  -8.426   0.405  1.00  0.00     0.000 C 
BRANCH   8   9
HETATM    9  C   UNL     1     -22.751  -9.760  -0.204  1.00  0.00    -0.000 C 
BRANCH   9  10
HETATM   10  C   UNL     1     -23.947 -10.701  -0.311  1.00  0.00    -0.005 C 
HETATM   11  C   UNL     1     -23.596 -12.084   0.208  1.00  0.00     0.005 C 
ENDBRANCH   9  10
ENDBRANCH   8   9
ENDBRANCH   7   8
ENDBRANCH   6   7
ENDBRANCH   5   6
ENDBRANCH   4   5
ENDBRANCH   3   4
ENDBRANCH   2   3
ENDBRANCH   1   2
BRANCH   1  12
HETATM   12  C   UNL     1     -21.182  -4.938  -8.353  1.00  0.00     0.219 C 
HETATM   13  O   UNL     1     -20.036  -5.383  -8.577  1.00  0.00    -0.273 OA
HETATM   14  N   UNL     1     -21.967  -4.382  -9.354  1.00  0.00    -0.348 N 
BRANCH  14  15
HETATM   15  C   UNL     1     -23.285  -3.690  -9.184  1.00  0.00     0.151 C 
BRANCH  15  16
HETATM   16  C   UNL     1     -24.499  -4.242  -9.954  1.00  0.00     0.183 C 
BRANCH  16  17
HETATM   17  O   UNL     1     -25.086  -3.251 -10.786  1.00  0.00    -0.399 OA
HETATM   18  H   UNL     1     -25.164  -3.646 -11.677  1.00  0.00     0.209 HD
ENDBRANCH  16  17
ENDBRANCH  15  16
ENDBRANCH  14  15
BRANCH  14  19
HETATM   19  C   UNL     1     -21.341  -4.308 -10.684  1.00  0.00     0.151 C 
BRANCH  19  20
HETATM   20  C   UNL     1     -21.602  -2.985 -11.423  1.00  0.00     0.183 C 
BRANCH  20  21
HETATM   21  O   UNL     1     -21.795  -3.213 -12.821  1.00  0.00    -0.399 OA
HETATM   22  H   UNL     1     -21.535  -2.388 -13.261  1.00  0.00     0.209 HD
ENDBRANCH  20  21
ENDBRANCH  19  20
ENDBRANCH  14  19
ENDBRANCH   1  12
TORSDOF 16
BEGIN_RES ARG D 557
REMARK  4 active torsions:
REMARK  status: ('A' for Active; 'I' for Inactive)
REMARK    1  A    between atoms: CA   and  CB  
REMARK    2  A    between atoms: CB   and  CG  
REMARK    3  A    between atoms: CG   and  CD  
REMARK    4  A    between atoms: CD   and  NE  
REMARK       I    between atoms: NE   and  CZ  
REMARK       I    between atoms: CZ   and  NH1 
REMARK       I    between atoms: CZ   and  NH2 
ROOT
ATOM      1  CA  ARG D 557     -26.217   2.705 -17.014  1.00 35.49     0.159 C 
ENDROOT
BRANCH   1   2
ATOM      2  CB  ARG D 557     -26.789   1.319 -17.183  1.00 35.49     0.034 C 
BRANCH   2   3
ATOM      3  CG  ARG D 557     -25.835   0.203 -17.160  1.00 35.49     0.027 C 
BRANCH   3   4
ATOM      4  CD  ARG D 557     -24.795   0.372 -16.120  1.00 35.49     0.116 C 
BRANCH   4   5
ATOM      5  NE  ARG D 557     -24.996  -0.514 -15.003  1.00 35.49    -0.212 N 
ATOM      6  CZ  ARG D 557     -24.200  -1.499 -14.651  1.00 35.49     0.666 C 
ATOM      7  NH1 ARG D 557     -23.101  -1.796 -15.319  1.00 35.49    -0.235 N 
ATOM      8  NH2 ARG D 557     -24.528  -2.187 -13.596  1.00 35.49    -0.235 N 
ATOM      9  HH  ARG D 557     -22.865  -1.355 -16.015  1.00 35.49     0.174 HD
ATOM     10  HH  ARG D 557     -22.619  -2.448 -15.041  1.00 35.49     0.174 HD
ATOM     11  HH  ARG D 557     -25.239  -1.968 -13.180  1.00 35.49     0.174 HD
ATOM     12  HH  ARG D 557     -24.037  -2.828 -13.336  1.00 35.49     0.174 HD
ATOM     13  HE  ARG D 557     -25.718  -0.440 -14.560  1.00 35.49     0.178 HD
ENDBRANCH   4   5
ENDBRANCH   3   4
ENDBRANCH   2   3
ENDBRANCH   1   2
END_RES ARG D 557
BEGIN_RES GLU D 570
REMARK  3 active torsions:
REMARK  status: ('A' for Active; 'I' for Inactive)
REMARK    5  A    between atoms: CA   and  CB  
REMARK    6  A    between atoms: CB   and  CG  
REMARK    7  A    between atoms: CG   and  CD  
ROOT
ATOM     14  CA  GLU D 570     -18.033  -6.348 -13.375  1.00 32.92     0.160 C 
ENDROOT
BRANCH  14  15
ATOM     15  CB  GLU D 570     -19.500  -6.345 -13.794  1.00 32.92     0.043 C 
BRANCH  15  16
ATOM     16  CG  GLU D 570     -19.812  -5.953 -15.193  1.00 32.92     0.100 C 
BRANCH  16  17
ATOM     17  CD  GLU D 570     -21.285  -5.711 -15.423  1.00 32.92     0.185 C 
ATOM     18  OE1 GLU D 570     -21.694  -4.540 -15.549  1.00 32.92    -0.647 OA
ATOM     19  OE2 GLU D 570     -22.042  -6.701 -15.460  1.00 32.92    -0.647 OA
ENDBRANCH  16  17
ENDBRANCH  15  16
ENDBRANCH  14  15
END_RES GLU D 570
ENDMDL
MODEL 4
REMARK VINA RESULT:      -6.8      1.973      3.398
REMARK  16 active torsions:
REMARK  status: ('A' for Active; 'I' for Inactive)
REMARK    1  A    between atoms: C_2  and  C_3 
REMARK    2  A    between atoms: C_3  and  C_4 
REMARK    3  A    between atoms: C_4  and  C_5 
REMARK    4  A    between atoms: C_5  and  C_6 
REMARK    5  A    between atoms: C_6  and  C_7 
REMARK    6  A    between atoms: C_7  and  C_8 
REMARK    7  A    between atoms: C_8  and  C_9 
REMARK    8  A    between atoms: C_9  and  C_10 
REMARK    9  A    between atoms: C_10  and  C_11 
REMARK   10  A    between atoms: C_11  and  C_12 
REMARK       I    between atoms: C_12  and  N_14 
REMARK   11  A    between atoms: N_14  and  C_15 
REMARK   12  A    between atoms: N_14  and  C_18 
REMARK   13  A    between atoms: C_15  and  C_16 
REMARK   14  A    between atoms: C_16  and  O_17 
REMARK   15  A    between atoms: C_18  and  C_19 
REMARK   16  A    between atoms: C_19  and  O_20 
ROOT
HETATM    1  C   UNL     1     -20.774  -3.700  -7.558  1.00  0.00     0.103 C 
ENDROOT
BRANCH   1   2
HETATM    2  C   UNL     1     -20.175  -4.486  -6.400  1.00  0.00     0.009 C 
BRANCH   2   3
HETATM    3  C   UNL     1     -20.000  -5.938  -6.860  1.00  0.00     0.000 C 
BRANCH   3   4
HETATM    4  C   UNL     1     -20.174  -6.904  -5.703  1.00  0.00     0.000 C 
BRANCH   4   5
HETATM    5  C   UNL     1     -21.169  -6.362  -4.682  1.00  0.00     0.000 C 
BRANCH   5   6
HETATM    6  C   UNL     1     -21.687  -7.510  -3.826  1.00  0.00     0.000 C 
BRANCH   6   7
HETATM    7  C   UNL     1     -21.193  -7.400  -2.391  1.00  0.00     0.000 C 
BRANCH   7   8
HETATM    8  C   UNL     1     -22.192  -6.608  -1.554  1.00  0.00     0.000 C 
BRANCH   8   9
HETATM    9  C   UNL     1     -22.462  -7.312  -0.230  1.00  0.00    -0.000 C 
BRANCH   9  10
HETATM   10  C   UNL     1     -21.481  -8.460  -0.012  1.00  0.00    -0.005 C 
HETATM   11  C   UNL     1     -21.168  -8.630   1.464  1.00  0.00     0.005 C 
ENDBRANCH   9  10
ENDBRANCH   8   9
ENDBRANCH   7   8
ENDBRANCH   6   7
ENDBRANCH   5   6
ENDBRANCH   4   5
ENDBRANCH   3   4
ENDBRANCH   2   3
ENDBRANCH   1   2
BRANCH   1  12
HETATM   12  C   UNL     1     -22.169  -4.109  -7.968  1.00  0.00     0.219 C 
HETATM   13  O   UNL     1     -22.957  -4.499  -7.079  1.00  0.00    -0.273 OA
HETATM   14  N   UNL     1     -22.535  -4.054  -9.307  1.00  0.00    -0.348 N 
BRANCH  14  15
HETATM   15  C   UNL     1     -21.644  -3.747 -10.471  1.00  0.00     0.151 C 
BRANCH  15  16
HETATM   16  C   UNL     1     -21.908  -4.481 -11.800  1.00  0.00     0.183 C 
BRANCH  16  17
HETATM   17  O   UNL     1     -22.484  -3.616 -12.768  1.00  0.00    -0.399 OA
HETATM   18  H   UNL     1     -21.933  -2.808 -12.782  1.00  0.00     0.209 HD
ENDBRANCH  16  17
ENDBRANCH  15  16
ENDBRANCH  14  15
BRANCH  14  19
HETATM   19  C   UNL     1     -23.894  -4.531  -9.613  1.00  0.00     0.151 C 
BRANCH  19  20
HETATM   20  C   UNL     1     -24.917  -3.403  -9.823  1.00  0.00     0.183 C 
BRANCH  20  21
HETATM   21  O   UNL     1     -25.061  -3.099 -11.212  1.00  0.00    -0.399 OA
HETATM   22  H   UNL     1     -25.147  -3.955 -11.661  1.00  0.00     0.209 HD
ENDBRANCH  20  21
ENDBRANCH  19  20
ENDBRANCH  14  19
ENDBRANCH   1  12
TORSDOF 16
BEGIN_RES ARG D 557
REMARK  4 active torsions:
REMARK  status: ('A' for Active; 'I' for Inactive)
REMARK    1  A    between atoms: CA   and  CB  
REMARK    2  A    between atoms: CB   and  CG  
REMARK    3  A    between atoms: CG   and  CD  
REMARK    4  A    between atoms: CD   and  NE  
REMARK       I    between atoms: NE   and  CZ  
REMARK       I    between atoms: CZ   and  NH1 
REMARK       I    between atoms: CZ   and  NH2 
ROOT
ATOM      1  CA  ARG D 557     -26.217   2.705 -17.014  1.00 35.49     0.159 C 
ENDROOT
BRANCH   1   2
ATOM      2  CB  ARG D 557     -26.789   1.319 -17.183  1.00 35.49     0.034 C 
BRANCH   2   3
ATOM      3  CG  ARG D 557     -25.936   0.197 -16.772  1.00 35.49     0.027 C 
BRANCH   3   4
ATOM      4  CD  ARG D 557     -26.700  -0.875 -16.096  1.00 35.49     0.116 C 
BRANCH   4   5
ATOM      5  NE  ARG D 557     -25.892  -1.606 -15.155  1.00 35.49    -0.212 N 
ATOM      6  CZ  ARG D 557     -25.987  -2.892 -14.898  1.00 35.49     0.666 C 
ATOM      7  NH1 ARG D 557     -26.875  -3.669 -15.488  1.00 35.49    -0.235 N 
ATOM      8  NH2 ARG D 557     -25.157  -3.392 -14.029  1.00 35.49    -0.235 N 
ATOM      9  HH  ARG D 557     -27.430  -3.361 -16.064  1.00 35.49     0.174 HD
ATOM     10  HH  ARG D 557     -26.889  -4.501 -15.282  1.00 35.49     0.174 HD
ATOM     11  HH  ARG D 557     -24.589  -2.868 -13.670  1.00 35.49     0.174 HD
ATOM     12  HH  ARG D 557     -25.185  -4.218 -13.840  1.00 35.49     0.174 HD
ATOM     13  HE  ARG D 557     -25.342  -1.169 -14.677  1.00 35.49     0.178 HD
ENDBRANCH   4   5
ENDBRANCH   3   4
ENDBRANCH   2   3
ENDBRANCH   1   2
END_RES ARG D 557
BEGIN_RES GLU D 570
REMARK  3 active torsions:
REMARK  status: ('A' for Active; 'I' for Inactive)
REMARK    5  A    between atoms: CA   and  CB  
REMARK    6  A    between atoms: CB   and  CG  
REMARK    7  A    between atoms: CG   and  CD  
ROOT
ATOM     14  CA  GLU D 570     -18.033  -6.348 -13.375  1.00 32.92     0.160 C 
ENDROOT
BRANCH  14  15
ATOM     15  CB  GLU D 570     -19.500  -6.345 -13.794  1.00 32.92     0.043 C 
BRANCH  15  16
ATOM     16  CG  GLU D 570     -19.809  -5.987 -15.203  1.00 32.92     0.100 C 
BRANCH  16  17
ATOM     17  CD  GLU D 570     -21.266  -5.652 -15.419  1.00 32.92     0.185 C 
ATOM     18  OE1 GLU D 570     -21.572  -4.828 -16.302  1.00 32.92    -0.647 OA
ATOM     19  OE2 GLU D 570     -22.109  -6.206 -14.687  1.00 32.92    -0.647 OA
ENDBRANCH  16  17
ENDBRANCH  15  16
ENDBRANCH  14  15
END_RES GLU D 570
ENDMDL
MODEL 5
REMARK VINA RESULT:      -6.8      1.975      3.318
REMARK  16 active torsions:
REMARK  status: ('A' for Active; 'I' for Inactive)
REMARK    1  A    between atoms: C_2  and  C_3 
REMARK    2  A    between atoms: C_3  and  C_4 
REMARK    3  A    between atoms: C_4  and  C_5 
REMARK    4  A    between atoms: C_5  and  C_6 
REMARK    5  A    between atoms: C_6  and  C_7 
REMARK    6  A    between atoms: C_7  and  C_8 
REMARK    7  A    between atoms: C_8  and  C_9 
REMARK    8  A    between atoms: C_9  and  C_10 
REMARK    9  A    between atoms: C_10  and  C_11 
REMARK   10  A    between atoms: C_11  and  C_12 
REMARK       I    between atoms: C_12  and  N_14 
REMARK   11  A    between atoms: N_14  and  C_15 
REMARK   12  A    between atoms: N_14  and  C_18 
REMARK   13  A    between atoms: C_15  and  C_16 
REMARK   14  A    between atoms: C_16  and  O_17 
REMARK   15  A    between atoms: C_18  and  C_19 
REMARK   16  A    between atoms: C_19  and  O_20 
ROOT
HETATM    1  C   UNL     1     -20.840  -4.072  -9.296  1.00  0.00     0.103 C 
ENDROOT
BRANCH   1   2
HETATM    2  C   UNL     1     -20.073  -5.210  -8.637  1.00  0.00     0.009 C 
BRANCH   2   3
HETATM    3  C   UNL     1     -20.868  -5.661  -7.406  1.00  0.00     0.000 C 
BRANCH   3   4
HETATM    4  C   UNL     1     -20.524  -4.816  -6.193  1.00  0.00     0.000 C 
BRANCH   4   5
HETATM    5  C   UNL     1     -20.860  -5.551  -4.900  1.00  0.00     0.000 C 
BRANCH   5   6
HETATM    6  C   UNL     1     -21.101  -7.024  -5.205  1.00  0.00     0.000 C 
BRANCH   6   7
HETATM    7  C   UNL     1     -21.406  -7.810  -3.940  1.00  0.00     0.000 C 
BRANCH   7   8
HETATM    8  C   UNL     1     -21.508  -6.864  -2.748  1.00  0.00     0.000 C 
BRANCH   8   9
HETATM    9  C   UNL     1     -21.424  -7.637  -1.438  1.00  0.00    -0.000 C 
BRANCH   9  10
HETATM   10  C   UNL     1     -22.476  -7.148  -0.447  1.00  0.00    -0.005 C 
HETATM   11  C   UNL     1     -23.020  -8.301   0.377  1.00  0.00     0.005 C 
ENDBRANCH   9  10
ENDBRANCH   8   9
ENDBRANCH   7   8
ENDBRANCH   6   7
ENDBRANCH   5   6
ENDBRANCH   4   5
ENDBRANCH   3   4
ENDBRANCH   2   3
ENDBRANCH   1   2
BRANCH   1  12
HETATM   12  C   UNL     1     -20.962  -4.155 -10.799  1.00  0.00     0.219 C 
HETATM   13  O   UNL     1     -19.955  -3.886 -11.489  1.00  0.00    -0.273 OA
HETATM   14  N   UNL     1     -22.176  -4.514 -11.371  1.00  0.00    -0.348 N 
BRANCH  14  15
HETATM   15  C   UNL     1     -23.479  -4.716 -10.661  1.00  0.00     0.151 C 
BRANCH  15  16
HETATM   16  C   UNL     1     -24.208  -3.472 -10.116  1.00  0.00     0.183 C 
BRANCH  16  17
HETATM   17  O   UNL     1     -25.380  -3.184 -10.866  1.00  0.00    -0.399 OA
HETATM   18  H   UNL     1     -25.257  -2.288 -11.240  1.00  0.00     0.209 HD
ENDBRANCH  16  17
ENDBRANCH  15  16
ENDBRANCH  14  15
BRANCH  14  19
HETATM   19  C   UNL     1     -22.210  -4.508 -12.842  1.00  0.00     0.151 C 
BRANCH  19  20
HETATM   20  C   UNL     1     -23.345  -5.352 -13.443  1.00  0.00     0.183 C 
BRANCH  20  21
HETATM   21  O   UNL     1     -23.653  -4.920 -14.770  1.00  0.00    -0.399 OA
HETATM   22  H   UNL     1     -23.183  -4.079 -14.889  1.00  0.00     0.209 HD
ENDBRANCH  20  21
ENDBRANCH  19  20
ENDBRANCH  14  19
ENDBRANCH   1  12
TORSDOF 16
BEGIN_RES ARG D 557
REMARK  4 active torsions:
REMARK  status: ('A' for Active; 'I' for Inactive)
REMARK    1  A    between atoms: CA   and  CB  
REMARK    2  A    between atoms: CB   and  CG  
REMARK    3  A    between atoms: CG   and  CD  
REMARK    4  A    between atoms: CD   and  NE  
REMARK       I    between atoms: NE   and  CZ  
REMARK       I    between atoms: CZ   and  NH1 
REMARK       I    between atoms: CZ   and  NH2 
ROOT
ATOM      1  CA  ARG D 557     -26.217   2.705 -17.014  1.00 35.49     0.159 C 
ENDROOT
BRANCH   1   2
ATOM      2  CB  ARG D 557     -26.789   1.319 -17.183  1.00 35.49     0.034 C 
BRANCH   2   3
ATOM      3  CG  ARG D 557     -25.835   0.204 -17.164  1.00 35.49     0.027 C 
BRANCH   3   4
ATOM      4  CD  ARG D 557     -24.782   0.379 -16.138  1.00 35.49     0.116 C 
BRANCH   4   5
ATOM      5  NE  ARG D 557     -24.992  -0.471 -14.995  1.00 35.49    -0.212 N 
ATOM      6  CZ  ARG D 557     -24.215  -1.463 -14.623  1.00 35.49     0.666 C 
ATOM      7  NH1 ARG D 557     -23.129  -1.803 -15.292  1.00 35.49    -0.235 N 
ATOM      8  NH2 ARG D 557     -24.547  -2.114 -13.546  1.00 35.49    -0.235 N 
ATOM      9  HH  ARG D 557     -22.890  -1.387 -16.002  1.00 35.49     0.174 HD
ATOM     10  HH  ARG D 557     -22.659  -2.457 -15.000  1.00 35.49     0.174 HD
ATOM     11  HH  ARG D 557     -25.250  -1.868 -13.130  1.00 35.49     0.174 HD
ATOM     12  HH  ARG D 557     -24.069  -2.758 -13.272  1.00 35.49     0.174 HD
ATOM     13  HE  ARG D 557     -25.708  -0.369 -14.548  1.00 35.49     0.178 HD
ENDBRANCH   4   5
ENDBRANCH   3   4
ENDBRANCH   2   3
ENDBRANCH   1   2
END_RES ARG D 557
BEGIN_RES GLU D 570
REMARK  3 active torsions:
REMARK  status: ('A' for Active; 'I' for Inactive)
REMARK    5  A    between atoms: CA   and  CB  
REMARK    6  A    between atoms: CB   and  CG  
REMARK    7  A    between atoms: CG   and  CD  
ROOT
ATOM     14  CA  GLU D 570     -18.033  -6.348 -13.375  1.00 32.92     0.160 C 
ENDROOT
BRANCH  14  15
ATOM     15  CB  GLU D 570     -19.500  -6.345 -13.794  1.00 32.92     0.043 C 
BRANCH  15  16
ATOM     16  CG  GLU D 570     -19.803  -6.080 -15.224  1.00 32.92     0.100 C 
BRANCH  16  17
ATOM     17  CD  GLU D 570     -20.842  -7.019 -15.790  1.00 32.92     0.185 C 
ATOM     18  OE1 GLU D 570     -21.741  -6.558 -16.519  1.00 32.92    -0.647 OA
ATOM     19  OE2 GLU D 570     -20.766  -8.226 -15.488  1.00 32.92    -0.647 OA
ENDBRANCH  16  17
ENDBRANCH  15  16
ENDBRANCH  14  15
END_RES GLU D 570
ENDMDL
MODEL 6
REMARK VINA RESULT:      -6.8      1.503      2.780
REMARK  16 active torsions:
REMARK  status: ('A' for Active; 'I' for Inactive)
REMARK    1  A    between atoms: C_2  and  C_3 
REMARK    2  A    between atoms: C_3  and  C_4 
REMARK    3  A    between atoms: C_4  and  C_5 
REMARK    4  A    between atoms: C_5  and  C_6 
REMARK    5  A    between atoms: C_6  and  C_7 
REMARK    6  A    between atoms: C_7  and  C_8 
REMARK    7  A    between atoms: C_8  and  C_9 
REMARK    8  A    between atoms: C_9  and  C_10 
REMARK    9  A    between atoms: C_10  and  C_11 
REMARK   10  A    between atoms: C_11  and  C_12 
REMARK       I    between atoms: C_12  and  N_14 
REMARK   11  A    between atoms: N_14  and  C_15 
REMARK   12  A    between atoms: N_14  and  C_18 
REMARK   13  A    between atoms: C_15  and  C_16 
REMARK   14  A    between atoms: C_16  and  O_17 
REMARK   15  A    between atoms: C_18  and  C_19 
REMARK   16  A    between atoms: C_19  and  O_20 
ROOT
HETATM    1  C   UNL     1     -21.096  -4.440  -9.148  1.00  0.00     0.103 C 
ENDROOT
BRANCH   1   2
HETATM    2  C   UNL     1     -19.832  -3.923  -8.475  1.00  0.00     0.009 C 
BRANCH   2   3
HETATM    3  C   UNL     1     -19.644  -4.702  -7.168  1.00  0.00     0.000 C 
BRANCH   3   4
HETATM    4  C   UNL     1     -20.315  -6.061  -7.240  1.00  0.00     0.000 C 
BRANCH   4   5
HETATM    5  C   UNL     1     -20.381  -6.714  -5.864  1.00  0.00     0.000 C 
BRANCH   5   6
HETATM    6  C   UNL     1     -20.981  -5.730  -4.868  1.00  0.00     0.000 C 
BRANCH   6   7
HETATM    7  C   UNL     1     -21.893  -6.433  -3.874  1.00  0.00     0.000 C 
BRANCH   7   8
HETATM    8  C   UNL     1     -21.306  -6.339  -2.469  1.00  0.00     0.000 C 
BRANCH   8   9
HETATM    9  C   UNL     1     -22.374  -6.619  -1.420  1.00  0.00    -0.000 C 
BRANCH   9  10
HETATM   10  C   UNL     1     -21.991  -7.817  -0.557  1.00  0.00    -0.005 C 
HETATM   11  C   UNL     1     -23.052  -8.087   0.495  1.00  0.00     0.005 C 
ENDBRANCH   9  10
ENDBRANCH   8   9
ENDBRANCH   7   8
ENDBRANCH   6   7
ENDBRANCH   5   6
ENDBRANCH   4   5
ENDBRANCH   3   4
ENDBRANCH   2   3
ENDBRANCH   1   2
BRANCH   1  12
HETATM   12  C   UNL     1     -21.227  -4.116 -10.618  1.00  0.00     0.219 C 
HETATM   13  O   UNL     1     -20.225  -3.670 -11.217  1.00  0.00    -0.273 OA
HETATM   14  N   UNL     1     -22.445  -4.309 -11.257  1.00  0.00    -0.348 N 
BRANCH  14  15
HETATM   15  C   UNL     1     -23.744  -4.697 -10.619  1.00  0.00     0.151 C 
BRANCH  15  16
HETATM   16  C   UNL     1     -24.544  -3.605  -9.882  1.00  0.00     0.183 C 
BRANCH  16  17
HETATM   17  O   UNL     1     -24.337  -3.664  -8.478  1.00  0.00    -0.399 OA
HETATM   18  H   UNL     1     -23.427  -3.341  -8.317  1.00  0.00     0.209 HD
ENDBRANCH  16  17
ENDBRANCH  15  16
ENDBRANCH  14  15
BRANCH  14  19
HETATM   19  C   UNL     1     -22.490  -3.908 -12.672  1.00  0.00     0.151 C 
BRANCH  19  20
HETATM   20  C   UNL     1     -23.909  -3.856 -13.261  1.00  0.00     0.183 C 
BRANCH  20  21
HETATM   21  O   UNL     1     -23.887  -4.126 -14.664  1.00  0.00    -0.399 OA
HETATM   22  H   UNL     1     -24.503  -3.492 -15.064  1.00  0.00     0.209 HD
ENDBRANCH  20  21
ENDBRANCH  19  20
ENDBRANCH  14  19
ENDBRANCH   1  12
TORSDOF 16
BEGIN_RES ARG D 557
REMARK  4 active torsions:
REMARK  status: ('A' for Active; 'I' for Inactive)
REMARK    1  A    between atoms: CA   and  CB  
REMARK    2  A    between atoms: CB   and  CG  
REMARK    3  A    between atoms: CG   and  CD  
REMARK    4  A    between atoms: CD   and  NE  
REMARK       I    between atoms: NE   and  CZ  
REMARK       I    between atoms: CZ   and  NH1 
REMARK       I    between atoms: CZ   and  NH2 
ROOT
ATOM      1  CA  ARG D 557     -26.217   2.705 -17.014  1.00 35.49     0.159 C 
ENDROOT
BRANCH   1   2
ATOM      2  CB  ARG D 557     -26.789   1.319 -17.183  1.00 35.49     0.034 C 
BRANCH   2   3
ATOM      3  CG  ARG D 557     -28.226   1.228 -17.469  1.00 35.49     0.027 C 
BRANCH   3   4
ATOM      4  CD  ARG D 557     -28.934   0.335 -16.523  1.00 35.49     0.116 C 
BRANCH   4   5
ATOM      5  NE  ARG D 557     -29.305  -0.915 -17.132  1.00 35.49    -0.212 N 
ATOM      6  CZ  ARG D 557     -28.649  -2.049 -17.021  1.00 35.49     0.666 C 
ATOM      7  NH1 ARG D 557     -27.532  -2.157 -16.324  1.00 35.49    -0.235 N 
ATOM      8  NH2 ARG D 557     -29.143  -3.090 -17.625  1.00 35.49    -0.235 N 
ATOM      9  HH  ARG D 557     -27.190  -1.485 -15.917  1.00 35.49     0.174 HD
ATOM     10  HH  ARG D 557     -27.149  -2.922 -16.285  1.00 35.49     0.174 HD
ATOM     11  HH  ARG D 557     -29.869  -2.993 -18.061  1.00 35.49     0.174 HD
ATOM     12  HH  ARG D 557     -28.750  -3.840 -17.573  1.00 35.49     0.174 HD
ATOM     13  HE  ARG D 557     -29.973  -0.920 -17.658  1.00 35.49     0.178 HD
ENDBRANCH   4   5
ENDBRANCH   3   4
ENDBRANCH   2   3
ENDBRANCH   1   2
END_RES ARG D 557
BEGIN_RES GLU D 570
REMARK  3 active torsions:
REMARK  status: ('A' for Active; 'I' for Inactive)
REMARK    5  A    between atoms: CA   and  CB  
REMARK    6  A    between atoms: CB   and  CG  
REMARK    7  A    between atoms: CG   and  CD  
ROOT
ATOM     14  CA  GLU D 570     -18.033  -6.348 -13.375  1.00 32.92     0.160 C 
ENDROOT
BRANCH  14  15
ATOM     15  CB  GLU D 570     -19.500  -6.345 -13.794  1.00 32.92     0.043 C 
BRANCH  15  16
ATOM     16  CG  GLU D 570     -19.797  -6.266 -15.248  1.00 32.92     0.100 C 
BRANCH  16  17
ATOM     17  CD  GLU D 570     -21.242  -5.933 -15.537  1.00 32.92     0.185 C 
ATOM     18  OE1 GLU D 570     -22.137  -6.641 -15.038  1.00 32.92    -0.647 OA
ATOM     19  OE2 GLU D 570     -21.480  -4.965 -16.285  1.00 32.92    -0.647 OA
ENDBRANCH  16  17
ENDBRANCH  15  16
ENDBRANCH  14  15
END_RES GLU D 570
ENDMDL
MODEL 7
REMARK VINA RESULT:      -6.6      3.363      6.083
REMARK  16 active torsions:
REMARK  status: ('A' for Active; 'I' for Inactive)
REMARK    1  A    between atoms: C_2  and  C_3 
REMARK    2  A    between atoms: C_3  and  C_4 
REMARK    3  A    between atoms: C_4  and  C_5 
REMARK    4  A    between atoms: C_5  and  C_6 
REMARK    5  A    between atoms: C_6  and  C_7 
REMARK    6  A    between atoms: C_7  and  C_8 
REMARK    7  A    between atoms: C_8  and  C_9 
REMARK    8  A    between atoms: C_9  and  C_10 
REMARK    9  A    between atoms: C_10  and  C_11 
REMARK   10  A    between atoms: C_11  and  C_12 
REMARK       I    between atoms: C_12  and  N_14 
REMARK   11  A    between atoms: N_14  and  C_15 
REMARK   12  A    between atoms: N_14  and  C_18 
REMARK   13  A    between atoms: C_15  and  C_16 
REMARK   14  A    between atoms: C_16  and  O_17 
REMARK   15  A    between atoms: C_18  and  C_19 
REMARK   16  A    between atoms: C_19  and  O_20 
ROOT
HETATM    1  C   UNL     1     -26.210  -6.018 -15.974  1.00  0.00     0.103 C 
ENDROOT
BRANCH   1   2
HETATM    2  C   UNL     1     -24.939  -6.845 -16.104  1.00  0.00     0.009 C 
BRANCH   2   3
HETATM    3  C   UNL     1     -24.137  -6.680 -14.808  1.00  0.00     0.000 C 
BRANCH   3   4
HETATM    4  C   UNL     1     -23.605  -5.266 -14.670  1.00  0.00     0.000 C 
BRANCH   4   5
HETATM    5  C   UNL     1     -22.974  -5.048 -13.299  1.00  0.00     0.000 C 
BRANCH   5   6
HETATM    6  C   UNL     1     -23.717  -3.935 -12.573  1.00  0.00     0.000 C 
BRANCH   6   7
HETATM    7  C   UNL     1     -22.783  -2.791 -12.207  1.00  0.00     0.000 C 
BRANCH   7   8
HETATM    8  C   UNL     1     -21.779  -3.252 -11.155  1.00  0.00     0.000 C 
BRANCH   8   9
HETATM    9  C   UNL     1     -22.492  -3.664  -9.874  1.00  0.00    -0.000 C 
BRANCH   9  10
HETATM   10  C   UNL     1     -21.548  -4.415  -8.941  1.00  0.00    -0.005 C 
HETATM   11  C   UNL     1     -20.184  -4.597  -9.582  1.00  0.00     0.005 C 
ENDBRANCH   9  10
ENDBRANCH   8   9
ENDBRANCH   7   8
ENDBRANCH   6   7
ENDBRANCH   5   6
ENDBRANCH   4   5
ENDBRANCH   3   4
ENDBRANCH   2   3
ENDBRANCH   1   2
BRANCH   1  12
HETATM   12  C   UNL     1     -27.502  -6.800 -16.021  1.00  0.00     0.219 C 
HETATM   13  O   UNL     1     -27.783  -7.535 -15.050  1.00  0.00    -0.273 OA
HETATM   14  N   UNL     1     -28.329  -6.694 -17.132  1.00  0.00    -0.348 N 
BRANCH  14  15
HETATM   15  C   UNL     1     -28.032  -5.967 -18.407  1.00  0.00     0.151 C 
BRANCH  15  16
HETATM   16  C   UNL     1     -26.862  -6.470 -19.273  1.00  0.00     0.183 C 
BRANCH  16  17
HETATM   17  O   UNL     1     -27.270  -7.512 -20.150  1.00  0.00    -0.399 OA
HETATM   18  H   UNL     1     -28.219  -7.670 -19.970  1.00  0.00     0.209 HD
ENDBRANCH  16  17
ENDBRANCH  15  16
ENDBRANCH  14  15
BRANCH  14  19
HETATM   19  C   UNL     1     -29.532  -7.541 -17.109  1.00  0.00     0.151 C 
BRANCH  19  20
HETATM   20  C   UNL     1     -30.223  -7.678 -18.476  1.00  0.00     0.183 C 
BRANCH  20  21
HETATM   21  O   UNL     1     -29.734  -8.821 -19.180  1.00  0.00    -0.399 OA
HETATM   22  H   UNL     1     -28.927  -8.527 -19.632  1.00  0.00     0.209 HD
ENDBRANCH  20  21
ENDBRANCH  19  20
ENDBRANCH  14  19
ENDBRANCH   1  12
TORSDOF 16
BEGIN_RES ARG D 557
REMARK  4 active torsions:
REMARK  status: ('A' for Active; 'I' for Inactive)
REMARK    1  A    between atoms: CA   and  CB  
REMARK    2  A    between atoms: CB   and  CG  
REMARK    3  A    between atoms: CG   and  CD  
REMARK    4  A    between atoms: CD   and  NE  
REMARK       I    between atoms: NE   and  CZ  
REMARK       I    between atoms: CZ   and  NH1 
REMARK       I    between atoms: CZ   and  NH2 
ROOT
ATOM      1  CA  ARG D 557     -26.217   2.705 -17.014  1.00 35.49     0.159 C 
ENDROOT
BRANCH   1   2
ATOM      2  CB  ARG D 557     -26.789   1.319 -17.183  1.00 35.49     0.034 C 
BRANCH   2   3
ATOM      3  CG  ARG D 557     -28.244   1.184 -17.045  1.00 35.49     0.027 C 
BRANCH   3   4
ATOM      4  CD  ARG D 557     -28.643  -0.159 -16.565  1.00 35.49     0.116 C 
BRANCH   4   5
ATOM      5  NE  ARG D 557     -27.575  -0.825 -15.867  1.00 35.49    -0.212 N 
ATOM      6  CZ  ARG D 557     -27.291  -2.106 -15.938  1.00 35.49     0.666 C 
ATOM      7  NH1 ARG D 557     -27.994  -2.947 -16.675  1.00 35.49    -0.235 N 
ATOM      8  NH2 ARG D 557     -26.272  -2.535 -15.253  1.00 35.49    -0.235 N 
ATOM      9  HH  ARG D 557     -28.667  -2.687 -17.136  1.00 35.49     0.174 HD
ATOM     10  HH  ARG D 557     -27.760  -3.772 -16.685  1.00 35.49     0.174 HD
ATOM     11  HH  ARG D 557     -25.832  -1.967 -14.792  1.00 35.49     0.174 HD
ATOM     12  HH  ARG D 557     -26.056  -3.354 -15.277  1.00 35.49     0.174 HD
ATOM     13  HE  ARG D 557     -27.116  -0.371 -15.313  1.00 35.49     0.178 HD
ENDBRANCH   4   5
ENDBRANCH   3   4
ENDBRANCH   2   3
ENDBRANCH   1   2
END_RES ARG D 557
BEGIN_RES GLU D 570
REMARK  3 active torsions:
REMARK  status: ('A' for Active; 'I' for Inactive)
REMARK    5  A    between atoms: CA   and  CB  
REMARK    6  A    between atoms: CB   and  CG  
REMARK    7  A    between atoms: CG   and  CD  
ROOT
ATOM     14  CA  GLU D 570     -18.033  -6.348 -13.375  1.00 32.92     0.160 C 
ENDROOT
BRANCH  14  15
ATOM     15  CB  GLU D 570     -19.500  -6.345 -13.794  1.00 32.92     0.043 C 
BRANCH  15  16
ATOM     16  CG  GLU D 570     -20.084  -7.633 -14.250  1.00 32.92     0.100 C 
BRANCH  16  17
ATOM     17  CD  GLU D 570     -20.685  -7.549 -15.634  1.00 32.92     0.185 C 
ATOM     18  OE1 GLU D 570     -21.219  -8.563 -16.124  1.00 32.92    -0.647 OA
ATOM     19  OE2 GLU D 570     -20.606  -6.463 -16.241  1.00 32.92    -0.647 OA
ENDBRANCH  16  17
ENDBRANCH  15  16
ENDBRANCH  14  15
END_RES GLU D 570
ENDMDL
MODEL 8
REMARK VINA RESULT:      -6.6      1.453      2.630
REMARK  16 active torsions:
REMARK  status: ('A' for Active; 'I' for Inactive)
REMARK    1  A    between atoms: C_2  and  C_3 
REMARK    2  A    between atoms: C_3  and  C_4 
REMARK    3  A    between atoms: C_4  and  C_5 
REMARK    4  A    between atoms: C_5  and  C_6 
REMARK    5  A    between atoms: C_6  and  C_7 
REMARK    6  A    between atoms: C_7  and  C_8 
REMARK    7  A    between atoms: C_8  and  C_9 
REMARK    8  A    between atoms: C_9  and  C_10 
REMARK    9  A    between atoms: C_10  and  C_11 
REMARK   10  A    between atoms: C_11  and  C_12 
REMARK       I    between atoms: C_12  and  N_14 
REMARK   11  A    between atoms: N_14  and  C_15 
REMARK   12  A    between atoms: N_14  and  C_18 
REMARK   13  A    between atoms: C_15  and  C_16 
REMARK   14  A    between atoms: C_16  and  O_17 
REMARK   15  A    between atoms: C_18  and  C_19 
REMARK   16  A    between atoms: C_19  and  O_20 
ROOT
HETATM    1  C   UNL     1     -20.284  -4.443  -9.386  1.00  0.00     0.103 C 
ENDROOT
BRANCH   1   2
HETATM    2  C   UNL     1     -19.794  -3.765  -8.114  1.00  0.00     0.009 C 
BRANCH   2   3
HETATM    3  C   UNL     1     -19.280  -4.857  -7.169  1.00  0.00     0.000 C 
BRANCH   3   4
HETATM    4  C   UNL     1     -20.026  -4.832  -5.847  1.00  0.00     0.000 C 
BRANCH   4   5
HETATM    5  C   UNL     1     -20.899  -6.072  -5.686  1.00  0.00     0.000 C 
BRANCH   5   6
HETATM    6  C   UNL     1     -21.236  -6.263  -4.213  1.00  0.00     0.000 C 
BRANCH   6   7
HETATM    7  C   UNL     1     -20.883  -7.664  -3.740  1.00  0.00     0.000 C 
BRANCH   7   8
HETATM    8  C   UNL     1     -21.003  -7.749  -2.222  1.00  0.00     0.000 C 
BRANCH   8   9
HETATM    9  C   UNL     1     -22.003  -6.725  -1.702  1.00  0.00    -0.000 C 
BRANCH   9  10
HETATM   10  C   UNL     1     -22.585  -7.161  -0.361  1.00  0.00    -0.005 C 
HETATM   11  C   UNL     1     -22.360  -8.644  -0.131  1.00  0.00     0.005 C 
ENDBRANCH   9  10
ENDBRANCH   8   9
ENDBRANCH   7   8
ENDBRANCH   6   7
ENDBRANCH   5   6
ENDBRANCH   4   5
ENDBRANCH   3   4
ENDBRANCH   2   3
ENDBRANCH   1   2
BRANCH   1  12
HETATM   12  C   UNL     1     -21.783  -4.589  -9.508  1.00  0.00     0.219 C 
HETATM   13  O   UNL     1     -22.421  -4.988  -8.511  1.00  0.00    -0.273 OA
HETATM   14  N   UNL     1     -22.405  -4.290 -10.713  1.00  0.00    -0.348 N 
BRANCH  14  15
HETATM   15  C   UNL     1     -21.738  -3.947 -12.009  1.00  0.00     0.151 C 
BRANCH  15  16
HETATM   16  C   UNL     1     -22.632  -3.605 -13.217  1.00  0.00     0.183 C 
BRANCH  16  17
HETATM   17  O   UNL     1     -21.988  -3.911 -14.446  1.00  0.00    -0.399 OA
HETATM   18  H   UNL     1     -22.270  -4.816 -14.690  1.00  0.00     0.209 HD
ENDBRANCH  16  17
ENDBRANCH  15  16
ENDBRANCH  14  15
BRANCH  14  19
HETATM   19  C   UNL     1     -23.858  -4.521 -10.751  1.00  0.00     0.151 C 
BRANCH  19  20
HETATM   20  C   UNL     1     -24.694  -3.306 -10.318  1.00  0.00     0.183 C 
BRANCH  20  21
HETATM   21  O   UNL     1     -24.806  -3.246  -8.895  1.00  0.00    -0.399 OA
HETATM   22  H   UNL     1     -23.902  -3.120  -8.565  1.00  0.00     0.209 HD
ENDBRANCH  20  21
ENDBRANCH  19  20
ENDBRANCH  14  19
ENDBRANCH   1  12
TORSDOF 16
BEGIN_RES ARG D 557
REMARK  4 active torsions:
REMARK  status: ('A' for Active; 'I' for Inactive)
REMARK    1  A    between atoms: CA   and  CB  
REMARK    2  A    between atoms: CB   and  CG  
REMARK    3  A    between atoms: CG   and  CD  
REMARK    4  A    between atoms: CD   and  NE  
REMARK       I    between atoms: NE   and  CZ  
REMARK       I    between atoms: CZ   and  NH1 
REMARK       I    between atoms: CZ   and  NH2 
ROOT
ATOM      1  CA  ARG D 557     -26.217   2.705 -17.014  1.00 35.49     0.159 C 
ENDROOT
BRANCH   1   2
ATOM      2  CB  ARG D 557     -26.789   1.319 -17.183  1.00 35.49     0.034 C 
BRANCH   2   3
ATOM      3  CG  ARG D 557     -28.235   1.225 -17.419  1.00 35.49     0.027 C 
BRANCH   3   4
ATOM      4  CD  ARG D 557     -28.898   0.281 -16.491  1.00 35.49     0.116 C 
BRANCH   4   5
ATOM      5  NE  ARG D 557     -29.301  -0.934 -17.149  1.00 35.49    -0.212 N 
ATOM      6  CZ  ARG D 557     -28.697  -2.097 -17.051  1.00 35.49     0.666 C 
ATOM      7  NH1 ARG D 557     -27.609  -2.272 -16.322  1.00 35.49    -0.235 N 
ATOM      8  NH2 ARG D 557     -29.214  -3.098 -17.701  1.00 35.49    -0.235 N 
ATOM      9  HH  ARG D 557     -27.253  -1.627 -15.885  1.00 35.49     0.174 HD
ATOM     10  HH  ARG D 557     -27.260  -3.054 -16.294  1.00 35.49     0.174 HD
ATOM     11  HH  ARG D 557     -29.920  -2.957 -18.157  1.00 35.49     0.174 HD
ATOM     12  HH  ARG D 557     -28.854  -3.865 -17.659  1.00 35.49     0.174 HD
ATOM     13  HE  ARG D 557     -29.950  -0.895 -17.696  1.00 35.49     0.178 HD
ENDBRANCH   4   5
ENDBRANCH   3   4
ENDBRANCH   2   3
ENDBRANCH   1   2
END_RES ARG D 557
BEGIN_RES GLU D 570
REMARK  3 active torsions:
REMARK  status: ('A' for Active; 'I' for Inactive)
REMARK    5  A    between atoms: CA   and  CB  
REMARK    6  A    between atoms: CB   and  CG  
REMARK    7  A    between atoms: CG   and  CD  
ROOT
ATOM     14  CA  GLU D 570     -18.033  -6.348 -13.375  1.00 32.92     0.160 C 
ENDROOT
BRANCH  14  15
ATOM     15  CB  GLU D 570     -19.500  -6.345 -13.794  1.00 32.92     0.043 C 
BRANCH  15  16
ATOM     16  CG  GLU D 570     -19.798  -6.463 -15.245  1.00 32.92     0.100 C 
BRANCH  16  17
ATOM     17  CD  GLU D 570     -21.029  -7.292 -15.528  1.00 32.92     0.185 C 
ATOM     18  OE1 GLU D 570     -20.894  -8.493 -15.832  1.00 32.92    -0.647 OA
ATOM     19  OE2 GLU D 570     -22.140  -6.730 -15.461  1.00 32.92    -0.647 OA
ENDBRANCH  16  17
ENDBRANCH  15  16
ENDBRANCH  14  15
END_RES GLU D 570
ENDMDL
MODEL 9
REMARK VINA RESULT:      -6.5      2.250      3.815
REMARK  16 active torsions:
REMARK  status: ('A' for Active; 'I' for Inactive)
REMARK    1  A    between atoms: C_2  and  C_3 
REMARK    2  A    between atoms: C_3  and  C_4 
REMARK    3  A    between atoms: C_4  and  C_5 
REMARK    4  A    between atoms: C_5  and  C_6 
REMARK    5  A    between atoms: C_6  and  C_7 
REMARK    6  A    between atoms: C_7  and  C_8 
REMARK    7  A    between atoms: C_8  and  C_9 
REMARK    8  A    between atoms: C_9  and  C_10 
REMARK    9  A    between atoms: C_10  and  C_11 
REMARK   10  A    between atoms: C_11  and  C_12 
REMARK       I    between atoms: C_12  and  N_14 
REMARK   11  A    between atoms: N_14  and  C_15 
REMARK   12  A    between atoms: N_14  and  C_18 
REMARK   13  A    between atoms: C_15  and  C_16 
REMARK   14  A    between atoms: C_16  and  O_17 
REMARK   15  A    between atoms: C_18  and  C_19 
REMARK   16  A    between atoms: C_19  and  O_20 
ROOT
HETATM    1  C   UNL     1     -23.433  -4.797 -14.116  1.00  0.00     0.103 C 
ENDROOT
BRANCH   1   2
HETATM    2  C   UNL     1     -22.787  -3.453 -13.808  1.00  0.00     0.009 C 
BRANCH   2   3
HETATM    3  C   UNL     1     -22.652  -3.336 -12.285  1.00  0.00     0.000 C 
BRANCH   3   4
HETATM    4  C   UNL     1     -21.212  -3.525 -11.847  1.00  0.00     0.000 C 
BRANCH   4   5
HETATM    5  C   UNL     1     -21.138  -4.165 -10.465  1.00  0.00     0.000 C 
BRANCH   5   6
HETATM    6  C   UNL     1     -22.538  -4.571 -10.023  1.00  0.00     0.000 C 
BRANCH   6   7
HETATM    7  C   UNL     1     -23.018  -3.727  -8.852  1.00  0.00     0.000 C 
BRANCH   7   8
HETATM    8  C   UNL     1     -22.596  -4.371  -7.536  1.00  0.00     0.000 C 
BRANCH   8   9
HETATM    9  C   UNL     1     -21.384  -3.657  -6.950  1.00  0.00    -0.000 C 
BRANCH   9  10
HETATM   10  C   UNL     1     -20.309  -4.656  -6.535  1.00  0.00    -0.005 C 
HETATM   11  C   UNL     1     -19.095  -4.551  -7.441  1.00  0.00     0.005 C 
ENDBRANCH   9  10
ENDBRANCH   8   9
ENDBRANCH   7   8
ENDBRANCH   6   7
ENDBRANCH   5   6
ENDBRANCH   4   5
ENDBRANCH   3   4
ENDBRANCH   2   3
ENDBRANCH   1   2
BRANCH   1  12
HETATM   12  C   UNL     1     -24.820  -4.729 -14.710  1.00  0.00     0.219 C 
HETATM   13  O   UNL     1     -25.529  -3.735 -14.444  1.00  0.00    -0.273 OA
HETATM   14  N   UNL     1     -25.271  -5.765 -15.519  1.00  0.00    -0.348 N 
BRANCH  14  15
HETATM   15  C   UNL     1     -24.576  -7.063 -15.789  1.00  0.00     0.151 C 
BRANCH  15  16
HETATM   16  C   UNL     1     -24.183  -7.387 -17.243  1.00  0.00     0.183 C 
BRANCH  16  17
HETATM   17  O   UNL     1     -23.098  -6.581 -17.682  1.00  0.00    -0.399 OA
HETATM   18  H   UNL     1     -23.174  -6.519 -18.656  1.00  0.00     0.209 HD
ENDBRANCH  16  17
ENDBRANCH  15  16
ENDBRANCH  14  15
BRANCH  14  19
HETATM   19  C   UNL     1     -26.656  -5.636 -16.000  1.00  0.00     0.151 C 
BRANCH  19  20
HETATM   20  C   UNL     1     -27.534  -6.863 -15.707  1.00  0.00     0.183 C 
BRANCH  20  21
HETATM   21  O   UNL     1     -28.235  -7.278 -16.881  1.00  0.00    -0.399 OA
HETATM   22  H   UNL     1     -27.568  -7.683 -17.458  1.00  0.00     0.209 HD
ENDBRANCH  20  21
ENDBRANCH  19  20
ENDBRANCH  14  19
ENDBRANCH   1  12
TORSDOF 16
BEGIN_RES ARG D 557
REMARK  4 active torsions:
REMARK  status: ('A' for Active; 'I' for Inactive)
REMARK    1  A    between atoms: CA   and  CB  
REMARK    2  A    between atoms: CB   and  CG  
REMARK    3  A    between atoms: CG   and  CD  
REMARK    4  A    between atoms: CD   and  NE  
REMARK       I    between atoms: NE   and  CZ  
REMARK       I    between atoms: CZ   and  NH1 
REMARK       I    between atoms: CZ   and  NH2 
ROOT
ATOM      1  CA  ARG D 557     -26.217   2.705 -17.014  1.00 35.49     0.159 C 
ENDROOT
BRANCH   1   2
ATOM      2  CB  ARG D 557     -26.789   1.319 -17.183  1.00 35.49     0.034 C 
BRANCH   2   3
ATOM      3  CG  ARG D 557     -28.228   1.227 -17.457  1.00 35.49     0.027 C 
BRANCH   3   4
ATOM      4  CD  ARG D 557     -28.925   0.319 -16.517  1.00 35.49     0.116 C 
BRANCH   4   5
ATOM      5  NE  ARG D 557     -29.267  -0.937 -17.130  1.00 35.49    -0.212 N 
ATOM      6  CZ  ARG D 557     -28.600  -2.062 -17.002  1.00 35.49     0.666 C 
ATOM      7  NH1 ARG D 557     -27.498  -2.154 -16.280  1.00 35.49    -0.235 N 
ATOM      8  NH2 ARG D 557     -29.068  -3.111 -17.613  1.00 35.49    -0.235 N 
ATOM      9  HH  ARG D 557     -27.173  -1.477 -15.868  1.00 35.49     0.174 HD
ATOM     10  HH  ARG D 557     -27.107  -2.915 -16.231  1.00 35.49     0.174 HD
ATOM     11  HH  ARG D 557     -29.786  -3.024 -18.066  1.00 35.49     0.174 HD
ATOM     12  HH  ARG D 557     -28.667  -3.856 -17.550  1.00 35.49     0.174 HD
ATOM     13  HE  ARG D 557     -29.923  -0.952 -17.671  1.00 35.49     0.178 HD
ENDBRANCH   4   5
ENDBRANCH   3   4
ENDBRANCH   2   3
ENDBRANCH   1   2
END_RES ARG D 557
BEGIN_RES GLU D 570
REMARK  3 active torsions:
REMARK  status: ('A' for Active; 'I' for Inactive)
REMARK    5  A    between atoms: CA   and  CB  
REMARK    6  A    between atoms: CB   and  CG  
REMARK    7  A    between atoms: CG   and  CD  
ROOT
ATOM     14  CA  GLU D 570     -18.033  -6.348 -13.375  1.00 32.92     0.160 C 
ENDROOT
BRANCH  14  15
ATOM     15  CB  GLU D 570     -19.500  -6.345 -13.794  1.00 32.92     0.043 C 
BRANCH  15  16
ATOM     16  CG  GLU D 570     -20.087  -7.635 -14.241  1.00 32.92     0.100 C 
BRANCH  16  17
ATOM     17  CD  GLU D 570     -20.667  -7.566 -15.634  1.00 32.92     0.185 C 
ATOM     18  OE1 GLU D 570     -20.649  -6.480 -16.245  1.00 32.92    -0.647 OA
ATOM     19  OE2 GLU D 570     -21.161  -8.606 -16.114  1.00 32.92    -0.647 OA
ENDBRANCH  16  17
ENDBRANCH  15  16
ENDBRANCH  14  15
END_RES GLU D 570
ENDMDL
