MODEL 1
REMARK VINA RESULT:      -7.2      0.000      0.000
REMARK  21 active torsions:
REMARK  status: ('A' for Active; 'I' for Inactive)
REMARK    1  A    between atoms: C_2  and  C_3 
REMARK    2  A    between atoms: C_3  and  C_4 
REMARK    3  A    between atoms: C_4  and  C_5 
REMARK    4  A    between atoms: C_5  and  C_6 
REMARK    5  A    between atoms: C_6  and  C_7 
REMARK    6  A    between atoms: C_7  and  C_8 
REMARK    7  A    between atoms: C_8  and  C_9 
REMARK    8  A    between atoms: C_10  and  C_11 
REMARK    9  A    between atoms: C_11  and  C_12 
REMARK   10  A    between atoms: C_12  and  C_13 
REMARK   11  A    between atoms: C_13  and  C_14 
REMARK   12  A    between atoms: C_14  and  C_15 
REMARK   13  A    between atoms: C_15  and  C_16 
REMARK   14  A    between atoms: C_16  and  C_17 
REMARK   15  A    between atoms: C_17  and  C_18 
REMARK       I    between atoms: C_18  and  N_20 
REMARK   16  A    between atoms: N_20  and  C_21 
REMARK   17  A    between atoms: C_21  and  C_22 
REMARK   18  A    between atoms: C_22  and  C_23 
REMARK   19  A    between atoms: C_23  and  N_24 
REMARK   20  A    between atoms: N_24  and  C_27 
REMARK   21  A    between atoms: C_27  and  C_28 
ROOT
HETATM    1  C   UNL     1     -21.369  -5.987  -5.696  1.00  0.00     0.009 C 
ENDROOT
BRANCH   1   2
HETATM    2  C   UNL     1     -21.354  -6.985  -4.554  1.00  0.00     0.000 C 
BRANCH   2   3
HETATM    3  C   UNL     1     -21.358  -6.246  -3.220  1.00  0.00     0.000 C 
BRANCH   3   4
HETATM    4  C   UNL     1     -21.468  -7.231  -2.067  1.00  0.00     0.000 C 
BRANCH   4   5
HETATM    5  C   UNL     1     -22.300  -6.642  -0.935  1.00  0.00     0.004 C 
BRANCH   5   6
HETATM    6  C   UNL     1     -22.830  -7.753  -0.040  1.00  0.00     0.027 C 
BRANCH   6   7
HETATM    7  C   UNL     1     -21.711  -8.416   0.692  1.00  0.00    -0.031 C 
HETATM    8  C   UNL     1     -21.458  -9.727   0.583  1.00  0.00    -0.031 C 
BRANCH   8   9
HETATM    9  C   UNL     1     -20.339 -10.388   1.314  1.00  0.00     0.027 C 
BRANCH   9  10
HETATM   10  C   UNL     1     -19.807 -11.568   0.513  1.00  0.00     0.004 C 
BRANCH  10  11
HETATM   11  C   UNL     1     -20.964 -12.381  -0.052  1.00  0.00     0.000 C 
BRANCH  11  12
HETATM   12  C   UNL     1     -21.696 -13.104   1.068  1.00  0.00     0.000 C 
BRANCH  12  13
HETATM   13  C   UNL     1     -23.195 -12.858   0.967  1.00  0.00     0.000 C 
BRANCH  13  14
HETATM   14  C   UNL     1     -23.641 -12.906  -0.487  1.00  0.00    -0.000 C 
BRANCH  14  15
HETATM   15  C   UNL     1     -24.195 -11.556  -0.927  1.00  0.00    -0.005 C 
HETATM   16  C   UNL     1     -23.450 -11.043  -2.146  1.00  0.00     0.005 C 
ENDBRANCH  14  15
ENDBRANCH  13  14
ENDBRANCH  12  13
ENDBRANCH  11  12
ENDBRANCH  10  11
ENDBRANCH   9  10
ENDBRANCH   8   9
ENDBRANCH   6   7
ENDBRANCH   5   6
ENDBRANCH   4   5
ENDBRANCH   3   4
ENDBRANCH   2   3
ENDBRANCH   1   2
BRANCH   1  17
HETATM   17  C   UNL     1     -20.554  -6.472  -6.890  1.00  0.00     0.103 C 
BRANCH  17  18
HETATM   18  C   UNL     1     -20.096  -5.283  -7.677  1.00  0.00     0.217 C 
HETATM   19  O   UNL     1     -19.096  -4.624  -7.357  1.00  0.00    -0.274 OA
HETATM   20  N   UNL     1     -20.865  -4.995  -8.778  1.00  0.00    -0.361 N 
HETATM   21  H   UNL     1     -21.663  -5.583  -9.018  1.00  0.00     0.162 HD
BRANCH  20  22
HETATM   22  C   UNL     1     -20.486  -3.908  -9.656  1.00  0.00     0.124 C 
BRANCH  22  23
HETATM   23  C   UNL     1     -20.882  -4.168 -11.100  1.00  0.00     0.048 C 
BRANCH  23  24
HETATM   24  C   UNL     1     -21.871  -3.126 -11.653  1.00  0.00     0.238 C 
BRANCH  24  25
HETATM   25  N   UNL     1     -23.128  -3.804 -12.184  1.00  0.00    -0.065 N 
HETATM   26  C   UNL     1     -24.083  -2.781 -12.787  1.00  0.00     0.272 C 
HETATM   27  C   UNL     1     -22.768  -4.907 -13.172  1.00  0.00     0.272 C 
BRANCH  25  28
HETATM   28  C   UNL     1     -23.909  -4.516 -10.963  1.00  0.00     0.349 C 
BRANCH  28  29
HETATM   29  C   UNL     1     -24.504  -3.734  -9.745  1.00  0.00     0.199 C 
HETATM   30  O   UNL     1     -25.628  -3.172  -9.922  1.00  0.00    -0.647 OA
HETATM   31  O   UNL     1     -23.815  -3.802  -8.684  1.00  0.00    -0.647 OA
ENDBRANCH  28  29
ENDBRANCH  25  28
ENDBRANCH  24  25
ENDBRANCH  23  24
ENDBRANCH  22  23
ENDBRANCH  20  22
ENDBRANCH  17  18
ENDBRANCH   1  17
TORSDOF 21
BEGIN_RES ARG D 557
REMARK  4 active torsions:
REMARK  status: ('A' for Active; 'I' for Inactive)
REMARK    1  A    between atoms: CA   and  CB  
REMARK    2  A    between atoms: CB   and  CG  
REMARK    3  A    between atoms: CG   and  CD  
REMARK    4  A    between atoms: CD   and  NE  
REMARK       I    between atoms: NE   and  CZ  
REMARK       I    between atoms: CZ   and  NH1 
REMARK       I    between atoms: CZ   and  NH2 
ROOT
ATOM      1  CA  ARG D 557     -26.217   2.705 -17.014  1.00 35.49     0.159 C 
ENDROOT
BRANCH   1   2
ATOM      2  CB  ARG D 557     -26.789   1.319 -17.183  1.00 35.49     0.034 C 
BRANCH   2   3
ATOM      3  CG  ARG D 557     -28.246   1.219 -17.330  1.00 35.49     0.027 C 
BRANCH   3   4
ATOM      4  CD  ARG D 557     -28.840   0.229 -16.403  1.00 35.49     0.116 C 
BRANCH   4   5
ATOM      5  NE  ARG D 557     -29.286  -0.956 -17.088  1.00 35.49    -0.212 N 
ATOM      6  CZ  ARG D 557     -28.705  -2.134 -17.042  1.00 35.49     0.666 C 
ATOM      7  NH1 ARG D 557     -27.604  -2.355 -16.348  1.00 35.49    -0.235 N 
ATOM      8  NH2 ARG D 557     -29.261  -3.103 -17.709  1.00 35.49    -0.235 N 
ATOM      9  HH  ARG D 557     -27.223  -1.732 -15.899  1.00 35.49     0.174 HD
ATOM     10  HH  ARG D 557     -27.272  -3.145 -16.353  1.00 35.49     0.174 HD
ATOM     11  HH  ARG D 557     -29.975  -2.933 -18.142  1.00 35.49     0.174 HD
ATOM     12  HH  ARG D 557     -28.917  -3.878 -17.700  1.00 35.49     0.174 HD
ATOM     13  HE  ARG D 557     -29.948  -0.886 -17.617  1.00 35.49     0.178 HD
ENDBRANCH   4   5
ENDBRANCH   3   4
ENDBRANCH   2   3
ENDBRANCH   1   2
END_RES ARG D 557
BEGIN_RES GLU D 570
REMARK  3 active torsions:
REMARK  status: ('A' for Active; 'I' for Inactive)
REMARK    5  A    between atoms: CA   and  CB  
REMARK    6  A    between atoms: CB   and  CG  
REMARK    7  A    between atoms: CG   and  CD  
ROOT
ATOM     14  CA  GLU D 570     -18.033  -6.348 -13.375  1.00 32.92     0.160 C 
ENDROOT
BRANCH  14  15
ATOM     15  CB  GLU D 570     -19.500  -6.345 -13.794  1.00 32.92     0.043 C 
BRANCH  15  16
ATOM     16  CG  GLU D 570     -20.069  -7.619 -14.305  1.00 32.92     0.100 C 
BRANCH  16  17
ATOM     17  CD  GLU D 570     -20.776  -7.459 -15.630  1.00 32.92     0.185 C 
ATOM     18  OE1 GLU D 570     -21.583  -8.336 -15.995  1.00 32.92    -0.647 OA
ATOM     19  OE2 GLU D 570     -20.508  -6.455 -16.319  1.00 32.92    -0.647 OA
ENDBRANCH  16  17
ENDBRANCH  15  16
ENDBRANCH  14  15
END_RES GLU D 570
ENDMDL
MODEL 2
REMARK VINA RESULT:      -7.0      1.708      2.740
REMARK  21 active torsions:
REMARK  status: ('A' for Active; 'I' for Inactive)
REMARK    1  A    between atoms: C_2  and  C_3 
REMARK    2  A    between atoms: C_3  and  C_4 
REMARK    3  A    between atoms: C_4  and  C_5 
REMARK    4  A    between atoms: C_5  and  C_6 
REMARK    5  A    between atoms: C_6  and  C_7 
REMARK    6  A    between atoms: C_7  and  C_8 
REMARK    7  A    between atoms: C_8  and  C_9 
REMARK    8  A    between atoms: C_10  and  C_11 
REMARK    9  A    between atoms: C_11  and  C_12 
REMARK   10  A    between atoms: C_12  and  C_13 
REMARK   11  A    between atoms: C_13  and  C_14 
REMARK   12  A    between atoms: C_14  and  C_15 
REMARK   13  A    between atoms: C_15  and  C_16 
REMARK   14  A    between atoms: C_16  and  C_17 
REMARK   15  A    between atoms: C_17  and  C_18 
REMARK       I    between atoms: C_18  and  N_20 
REMARK   16  A    between atoms: N_20  and  C_21 
REMARK   17  A    between atoms: C_21  and  C_22 
REMARK   18  A    between atoms: C_22  and  C_23 
REMARK   19  A    between atoms: C_23  and  N_24 
REMARK   20  A    between atoms: N_24  and  C_27 
REMARK   21  A    between atoms: C_27  and  C_28 
ROOT
HETATM    1  C   UNL     1     -21.378  -6.828  -4.150  1.00  0.00     0.009 C 
ENDROOT
BRANCH   1   2
HETATM    2  C   UNL     1     -21.298  -5.948  -2.917  1.00  0.00     0.000 C 
BRANCH   2   3
HETATM    3  C   UNL     1     -22.162  -6.535  -1.805  1.00  0.00     0.000 C 
BRANCH   3   4
HETATM    4  C   UNL     1     -21.383  -7.584  -1.026  1.00  0.00     0.000 C 
BRANCH   4   5
HETATM    5  C   UNL     1     -21.968  -7.761   0.369  1.00  0.00     0.004 C 
BRANCH   5   6
HETATM    6  C   UNL     1     -23.296  -8.500   0.292  1.00  0.00     0.027 C 
BRANCH   6   7
HETATM    7  C   UNL     1     -23.072  -9.959   0.073  1.00  0.00    -0.031 C 
HETATM    8  C   UNL     1     -24.040 -10.779  -0.357  1.00  0.00    -0.031 C 
BRANCH   8   9
HETATM    9  C   UNL     1     -23.815 -12.236  -0.575  1.00  0.00     0.027 C 
BRANCH   9  10
HETATM   10  C   UNL     1     -22.862 -12.789   0.475  1.00  0.00     0.004 C 
BRANCH  10  11
HETATM   11  C   UNL     1     -21.562 -13.232  -0.180  1.00  0.00     0.000 C 
BRANCH  11  12
HETATM   12  C   UNL     1     -20.386 -12.470   0.411  1.00  0.00     0.000 C 
BRANCH  12  13
HETATM   13  C   UNL     1     -19.869 -11.439  -0.582  1.00  0.00     0.000 C 
BRANCH  13  14
HETATM   14  C   UNL     1     -20.299 -11.805  -1.995  1.00  0.00    -0.000 C 
BRANCH  14  15
HETATM   15  C   UNL     1     -20.612 -10.553  -2.805  1.00  0.00    -0.005 C 
HETATM   16  C   UNL     1     -19.338  -9.797  -3.135  1.00  0.00     0.005 C 
ENDBRANCH  14  15
ENDBRANCH  13  14
ENDBRANCH  12  13
ENDBRANCH  11  12
ENDBRANCH  10  11
ENDBRANCH   9  10
ENDBRANCH   8   9
ENDBRANCH   6   7
ENDBRANCH   5   6
ENDBRANCH   4   5
ENDBRANCH   3   4
ENDBRANCH   2   3
ENDBRANCH   1   2
BRANCH   1  17
HETATM   17  C   UNL     1     -22.350  -6.276  -5.186  1.00  0.00     0.103 C 
BRANCH  17  18
HETATM   18  C   UNL     1     -21.588  -5.937  -6.430  1.00  0.00     0.217 C 
HETATM   19  O   UNL     1     -20.618  -6.605  -6.813  1.00  0.00    -0.274 OA
HETATM   20  N   UNL     1     -22.061  -4.840  -7.109  1.00  0.00    -0.361 N 
HETATM   21  H   UNL     1     -22.881  -4.338  -6.770  1.00  0.00     0.162 HD
BRANCH  20  22
HETATM   22  C   UNL     1     -21.449  -4.450  -8.362  1.00  0.00     0.124 C 
BRANCH  22  23
HETATM   23  C   UNL     1     -22.459  -3.880  -9.344  1.00  0.00     0.048 C 
BRANCH  23  24
HETATM   24  C   UNL     1     -21.965  -3.903 -10.801  1.00  0.00     0.238 C 
BRANCH  24  25
HETATM   25  N   UNL     1     -23.134  -3.775 -11.769  1.00  0.00    -0.065 N 
HETATM   26  C   UNL     1     -23.304  -5.049 -12.588  1.00  0.00     0.272 C 
HETATM   27  C   UNL     1     -24.410  -3.396 -11.025  1.00  0.00     0.272 C 
BRANCH  25  28
HETATM   28  C   UNL     1     -22.838  -2.579 -12.812  1.00  0.00     0.349 C 
BRANCH  28  29
HETATM   29  C   UNL     1     -23.404  -2.545 -14.271  1.00  0.00     0.199 C 
HETATM   30  O   UNL     1     -22.599  -2.853 -15.202  1.00  0.00    -0.647 OA
HETATM   31  O   UNL     1     -24.638  -2.270 -14.353  1.00  0.00    -0.647 OA
ENDBRANCH  28  29
ENDBRANCH  25  28
ENDBRANCH  24  25
ENDBRANCH  23  24
ENDBRANCH  22  23
ENDBRANCH  20  22
ENDBRANCH  17  18
ENDBRANCH   1  17
TORSDOF 21
BEGIN_RES ARG D 557
REMARK  4 active torsions:
REMARK  status: ('A' for Active; 'I' for Inactive)
REMARK    1  A    between atoms: CA   and  CB  
REMARK    2  A    between atoms: CB   and  CG  
REMARK    3  A    between atoms: CG   and  CD  
REMARK    4  A    between atoms: CD   and  NE  
REMARK       I    between atoms: NE   and  CZ  
REMARK       I    between atoms: CZ   and  NH1 
REMARK       I    between atoms: CZ   and  NH2 
ROOT
ATOM      1  CA  ARG D 557     -26.217   2.705 -17.014  1.00 35.49     0.159 C 
ENDROOT
BRANCH   1   2
ATOM      2  CB  ARG D 557     -26.789   1.319 -17.183  1.00 35.49     0.034 C 
BRANCH   2   3
ATOM      3  CG  ARG D 557     -28.231   1.227 -17.444  1.00 35.49     0.027 C 
BRANCH   3   4
ATOM      4  CD  ARG D 557     -28.893   0.206 -16.599  1.00 35.49     0.116 C 
BRANCH   4   5
ATOM      5  NE  ARG D 557     -27.979  -0.821 -16.174  1.00 35.49    -0.212 N 
ATOM      6  CZ  ARG D 557     -28.022  -2.084 -16.535  1.00 35.49     0.666 C 
ATOM      7  NH1 ARG D 557     -28.951  -2.560 -17.344  1.00 35.49    -0.235 N 
ATOM      8  NH2 ARG D 557     -27.098  -2.874 -16.068  1.00 35.49    -0.235 N 
ATOM      9  HH  ARG D 557     -29.567  -2.058 -17.665  1.00 35.49     0.174 HD
ATOM     10  HH  ARG D 557     -28.926  -3.392 -17.547  1.00 35.49     0.174 HD
ATOM     11  HH  ARG D 557     -26.507  -2.537 -15.553  1.00 35.49     0.174 HD
ATOM     12  HH  ARG D 557     -27.091  -3.694 -16.282  1.00 35.49     0.174 HD
ATOM     13  HE  ARG D 557     -27.392  -0.618 -15.594  1.00 35.49     0.178 HD
ENDBRANCH   4   5
ENDBRANCH   3   4
ENDBRANCH   2   3
ENDBRANCH   1   2
END_RES ARG D 557
BEGIN_RES GLU D 570
REMARK  3 active torsions:
REMARK  status: ('A' for Active; 'I' for Inactive)
REMARK    5  A    between atoms: CA   and  CB  
REMARK    6  A    between atoms: CB   and  CG  
REMARK    7  A    between atoms: CG   and  CD  
ROOT
ATOM     14  CA  GLU D 570     -18.033  -6.348 -13.375  1.00 32.92     0.160 C 
ENDROOT
BRANCH  14  15
ATOM     15  CB  GLU D 570     -19.500  -6.345 -13.794  1.00 32.92     0.043 C 
BRANCH  15  16
ATOM     16  CG  GLU D 570     -19.829  -5.789 -15.132  1.00 32.92     0.100 C 
BRANCH  16  17
ATOM     17  CD  GLU D 570     -21.014  -6.468 -15.778  1.00 32.92     0.185 C 
ATOM     18  OE1 GLU D 570     -21.211  -7.679 -15.558  1.00 32.92    -0.647 OA
ATOM     19  OE2 GLU D 570     -21.743  -5.787 -16.525  1.00 32.92    -0.647 OA
ENDBRANCH  16  17
ENDBRANCH  15  16
ENDBRANCH  14  15
END_RES GLU D 570
ENDMDL
MODEL 3
REMARK VINA RESULT:      -6.8      1.763      3.001
REMARK  21 active torsions:
REMARK  status: ('A' for Active; 'I' for Inactive)
REMARK    1  A    between atoms: C_2  and  C_3 
REMARK    2  A    between atoms: C_3  and  C_4 
REMARK    3  A    between atoms: C_4  and  C_5 
REMARK    4  A    between atoms: C_5  and  C_6 
REMARK    5  A    between atoms: C_6  and  C_7 
REMARK    6  A    between atoms: C_7  and  C_8 
REMARK    7  A    between atoms: C_8  and  C_9 
REMARK    8  A    between atoms: C_10  and  C_11 
REMARK    9  A    between atoms: C_11  and  C_12 
REMARK   10  A    between atoms: C_12  and  C_13 
REMARK   11  A    between atoms: C_13  and  C_14 
REMARK   12  A    between atoms: C_14  and  C_15 
REMARK   13  A    between atoms: C_15  and  C_16 
REMARK   14  A    between atoms: C_16  and  C_17 
REMARK   15  A    between atoms: C_17  and  C_18 
REMARK       I    between atoms: C_18  and  N_20 
REMARK   16  A    between atoms: N_20  and  C_21 
REMARK   17  A    between atoms: C_21  and  C_22 
REMARK   18  A    between atoms: C_22  and  C_23 
REMARK   19  A    between atoms: C_23  and  N_24 
REMARK   20  A    between atoms: N_24  and  C_27 
REMARK   21  A    between atoms: C_27  and  C_28 
ROOT
HETATM    1  C   UNL     1     -22.031  -6.408  -4.820  1.00  0.00     0.009 C 
ENDROOT
BRANCH   1   2
HETATM    2  C   UNL     1     -21.223  -6.258  -3.545  1.00  0.00     0.000 C 
BRANCH   2   3
HETATM    3  C   UNL     1     -21.603  -7.358  -2.559  1.00  0.00     0.000 C 
BRANCH   3   4
HETATM    4  C   UNL     1     -22.270  -6.761  -1.329  1.00  0.00     0.000 C 
BRANCH   4   5
HETATM    5  C   UNL     1     -21.933  -7.576  -0.087  1.00  0.00     0.004 C 
BRANCH   5   6
HETATM    6  C   UNL     1     -23.203  -7.910   0.682  1.00  0.00     0.027 C 
BRANCH   6   7
HETATM    7  C   UNL     1     -23.695  -9.271   0.317  1.00  0.00    -0.031 C 
HETATM    8  C   UNL     1     -22.866 -10.292   0.067  1.00  0.00    -0.031 C 
BRANCH   8   9
HETATM    9  C   UNL     1     -23.358 -11.651  -0.298  1.00  0.00     0.027 C 
BRANCH   9  10
HETATM   10  C   UNL     1     -23.362 -11.826  -1.810  1.00  0.00     0.004 C 
BRANCH  10  11
HETATM   11  C   UNL     1     -22.154 -11.128  -2.419  1.00  0.00     0.000 C 
BRANCH  11  12
HETATM   12  C   UNL     1     -22.471 -10.661  -3.831  1.00  0.00     0.000 C 
BRANCH  12  13
HETATM   13  C   UNL     1     -21.190 -10.492  -4.635  1.00  0.00     0.000 C 
BRANCH  13  14
HETATM   14  C   UNL     1     -20.012 -11.100  -3.886  1.00  0.00    -0.000 C 
BRANCH  14  15
HETATM   15  C   UNL     1     -18.692 -10.648  -4.497  1.00  0.00    -0.005 C 
HETATM   16  C   UNL     1     -18.645  -9.135  -4.609  1.00  0.00     0.005 C 
ENDBRANCH  14  15
ENDBRANCH  13  14
ENDBRANCH  12  13
ENDBRANCH  11  12
ENDBRANCH  10  11
ENDBRANCH   9  10
ENDBRANCH   8   9
ENDBRANCH   6   7
ENDBRANCH   5   6
ENDBRANCH   4   5
ENDBRANCH   3   4
ENDBRANCH   2   3
ENDBRANCH   1   2
BRANCH   1  17
HETATM   17  C   UNL     1     -21.174  -6.886  -5.987  1.00  0.00     0.103 C 
BRANCH  17  18
HETATM   18  C   UNL     1     -20.657  -5.692  -6.728  1.00  0.00     0.217 C 
HETATM   19  O   UNL     1     -19.518  -5.241  -6.541  1.00  0.00    -0.274 OA
HETATM   20  N   UNL     1     -21.541  -5.152  -7.631  1.00  0.00    -0.361 N 
HETATM   21  H   UNL     1     -22.458  -5.576  -7.772  1.00  0.00     0.162 HD
BRANCH  20  22
HETATM   22  C   UNL     1     -21.134  -4.034  -8.456  1.00  0.00     0.124 C 
BRANCH  22  23
HETATM   23  C   UNL     1     -21.213  -4.353  -9.939  1.00  0.00     0.048 C 
BRANCH  23  24
HETATM   24  C   UNL     1     -22.638  -4.693 -10.411  1.00  0.00     0.238 C 
BRANCH  24  25
HETATM   25  N   UNL     1     -23.017  -3.861 -11.629  1.00  0.00    -0.065 N 
HETATM   26  C   UNL     1     -24.398  -3.241 -11.457  1.00  0.00     0.272 C 
HETATM   27  C   UNL     1     -21.949  -2.811 -11.917  1.00  0.00     0.272 C 
BRANCH  25  28
HETATM   28  C   UNL     1     -23.086  -4.815 -12.929  1.00  0.00     0.349 C 
BRANCH  28  29
HETATM   29  C   UNL     1     -23.316  -4.280 -14.382  1.00  0.00     0.199 C 
HETATM   30  O   UNL     1     -24.517  -4.048 -14.721  1.00  0.00    -0.647 OA
HETATM   31  O   UNL     1     -22.256  -4.077 -15.045  1.00  0.00    -0.647 OA
ENDBRANCH  28  29
ENDBRANCH  25  28
ENDBRANCH  24  25
ENDBRANCH  23  24
ENDBRANCH  22  23
ENDBRANCH  20  22
ENDBRANCH  17  18
ENDBRANCH   1  17
TORSDOF 21
BEGIN_RES ARG D 557
REMARK  4 active torsions:
REMARK  status: ('A' for Active; 'I' for Inactive)
REMARK    1  A    between atoms: CA   and  CB  
REMARK    2  A    between atoms: CB   and  CG  
REMARK    3  A    between atoms: CG   and  CD  
REMARK    4  A    between atoms: CD   and  NE  
REMARK       I    between atoms: NE   and  CZ  
REMARK       I    between atoms: CZ   and  NH1 
REMARK       I    between atoms: CZ   and  NH2 
ROOT
ATOM      1  CA  ARG D 557     -26.217   2.705 -17.014  1.00 35.49     0.159 C 
ENDROOT
BRANCH   1   2
ATOM      2  CB  ARG D 557     -26.789   1.319 -17.183  1.00 35.49     0.034 C 
BRANCH   2   3
ATOM      3  CG  ARG D 557     -28.245   1.220 -17.341  1.00 35.49     0.027 C 
BRANCH   3   4
ATOM      4  CD  ARG D 557     -28.848   0.238 -16.411  1.00 35.49     0.116 C 
BRANCH   4   5
ATOM      5  NE  ARG D 557     -29.280  -0.956 -17.088  1.00 35.49    -0.212 N 
ATOM      6  CZ  ARG D 557     -28.688  -2.128 -17.032  1.00 35.49     0.666 C 
ATOM      7  NH1 ARG D 557     -27.586  -2.333 -16.334  1.00 35.49    -0.235 N 
ATOM      8  NH2 ARG D 557     -29.232  -3.107 -17.694  1.00 35.49    -0.235 N 
ATOM      9  HH  ARG D 557     -27.213  -1.703 -15.890  1.00 35.49     0.174 HD
ATOM     10  HH  ARG D 557     -27.246  -3.120 -16.333  1.00 35.49     0.174 HD
ATOM     11  HH  ARG D 557     -29.947  -2.947 -18.130  1.00 35.49     0.174 HD
ATOM     12  HH  ARG D 557     -28.881  -3.879 -17.679  1.00 35.49     0.174 HD
ATOM     13  HE  ARG D 557     -29.942  -0.897 -17.619  1.00 35.49     0.178 HD
ENDBRANCH   4   5
ENDBRANCH   3   4
ENDBRANCH   2   3
ENDBRANCH   1   2
END_RES ARG D 557
BEGIN_RES GLU D 570
REMARK  3 active torsions:
REMARK  status: ('A' for Active; 'I' for Inactive)
REMARK    5  A    between atoms: CA   and  CB  
REMARK    6  A    between atoms: CB   and  CG  
REMARK    7  A    between atoms: CG   and  CD  
ROOT
ATOM     14  CA  GLU D 570     -18.033  -6.348 -13.375  1.00 32.92     0.160 C 
ENDROOT
BRANCH  14  15
ATOM     15  CB  GLU D 570     -19.500  -6.345 -13.794  1.00 32.92     0.043 C 
BRANCH  15  16
ATOM     16  CG  GLU D 570     -20.093  -7.639 -14.218  1.00 32.92     0.100 C 
BRANCH  16  17
ATOM     17  CD  GLU D 570     -20.661  -7.597 -15.618  1.00 32.92     0.185 C 
ATOM     18  OE1 GLU D 570     -20.554  -6.548 -16.283  1.00 32.92    -0.647 OA
ATOM     19  OE2 GLU D 570     -21.234  -8.617 -16.048  1.00 32.92    -0.647 OA
ENDBRANCH  16  17
ENDBRANCH  15  16
ENDBRANCH  14  15
END_RES GLU D 570
ENDMDL
MODEL 4
REMARK VINA RESULT:      -6.8      4.040      8.651
REMARK  21 active torsions:
REMARK  status: ('A' for Active; 'I' for Inactive)
REMARK    1  A    between atoms: C_2  and  C_3 
REMARK    2  A    between atoms: C_3  and  C_4 
REMARK    3  A    between atoms: C_4  and  C_5 
REMARK    4  A    between atoms: C_5  and  C_6 
REMARK    5  A    between atoms: C_6  and  C_7 
REMARK    6  A    between atoms: C_7  and  C_8 
REMARK    7  A    between atoms: C_8  and  C_9 
REMARK    8  A    between atoms: C_10  and  C_11 
REMARK    9  A    between atoms: C_11  and  C_12 
REMARK   10  A    between atoms: C_12  and  C_13 
REMARK   11  A    between atoms: C_13  and  C_14 
REMARK   12  A    between atoms: C_14  and  C_15 
REMARK   13  A    between atoms: C_15  and  C_16 
REMARK   14  A    between atoms: C_16  and  C_17 
REMARK   15  A    between atoms: C_17  and  C_18 
REMARK       I    between atoms: C_18  and  N_20 
REMARK   16  A    between atoms: N_20  and  C_21 
REMARK   17  A    between atoms: C_21  and  C_22 
REMARK   18  A    between atoms: C_22  and  C_23 
REMARK   19  A    between atoms: C_23  and  N_24 
REMARK   20  A    between atoms: N_24  and  C_27 
REMARK   21  A    between atoms: C_27  and  C_28 
ROOT
HETATM    1  C   UNL     1     -22.310 -10.700  -2.637  1.00  0.00     0.009 C 
ENDROOT
BRANCH   1   2
HETATM    2  C   UNL     1     -23.417 -11.442  -1.913  1.00  0.00     0.000 C 
BRANCH   2   3
HETATM    3  C   UNL     1     -23.446 -11.023  -0.446  1.00  0.00     0.000 C 
BRANCH   3   4
HETATM    4  C   UNL     1     -22.589  -9.785  -0.230  1.00  0.00     0.000 C 
BRANCH   4   5
HETATM    5  C   UNL     1     -23.419  -8.654   0.362  1.00  0.00     0.004 C 
BRANCH   5   6
HETATM    6  C   UNL     1     -22.754  -7.314   0.084  1.00  0.00     0.027 C 
BRANCH   6   7
HETATM    7  C   UNL     1     -22.068  -7.333  -1.242  1.00  0.00    -0.031 C 
HETATM    8  C   UNL     1     -21.956  -6.242  -2.010  1.00  0.00    -0.031 C 
BRANCH   8   9
HETATM    9  C   UNL     1     -21.272  -6.263  -3.334  1.00  0.00     0.027 C 
BRANCH   9  10
HETATM   10  C   UNL     1     -22.224  -6.751  -4.416  1.00  0.00     0.004 C 
BRANCH  10  11
HETATM   11  C   UNL     1     -21.537  -6.711  -5.774  1.00  0.00     0.000 C 
BRANCH  11  12
HETATM   12  C   UNL     1     -20.281  -5.856  -5.705  1.00  0.00     0.000 C 
BRANCH  12  13
HETATM   13  C   UNL     1     -20.521  -4.507  -6.369  1.00  0.00     0.000 C 
BRANCH  13  14
HETATM   14  C   UNL     1     -20.735  -4.685  -7.865  1.00  0.00    -0.000 C 
BRANCH  14  15
HETATM   15  C   UNL     1     -21.987  -3.949  -8.323  1.00  0.00    -0.005 C 
HETATM   16  C   UNL     1     -22.035  -3.866  -9.838  1.00  0.00     0.005 C 
ENDBRANCH  14  15
ENDBRANCH  13  14
ENDBRANCH  12  13
ENDBRANCH  11  12
ENDBRANCH  10  11
ENDBRANCH   9  10
ENDBRANCH   8   9
ENDBRANCH   6   7
ENDBRANCH   5   6
ENDBRANCH   4   5
ENDBRANCH   3   4
ENDBRANCH   2   3
ENDBRANCH   1   2
BRANCH   1  17
HETATM   17  C   UNL     1     -22.284 -11.024  -4.127  1.00  0.00     0.103 C 
BRANCH  17  18
HETATM   18  C   UNL     1     -21.093 -10.360  -4.746  1.00  0.00     0.217 C 
HETATM   19  O   UNL     1     -20.943 -10.283  -5.973  1.00  0.00    -0.274 OA
HETATM   20  N   UNL     1     -20.197  -9.838  -3.845  1.00  0.00    -0.361 N 
HETATM   21  H   UNL     1     -20.378  -9.900  -2.843  1.00  0.00     0.162 HD
BRANCH  20  22
HETATM   22  C   UNL     1     -19.038  -9.114  -4.320  1.00  0.00     0.124 C 
BRANCH  22  23
HETATM   23  C   UNL     1     -17.798  -9.401  -3.489  1.00  0.00     0.048 C 
BRANCH  23  24
HETATM   24  C   UNL     1     -17.995 -10.551  -2.486  1.00  0.00     0.238 C 
BRANCH  24  25
HETATM   25  N   UNL     1     -16.983 -11.663  -2.735  1.00  0.00    -0.065 N 
HETATM   26  C   UNL     1     -17.457 -12.589  -3.848  1.00  0.00     0.272 C 
HETATM   27  C   UNL     1     -15.603 -11.081  -3.021  1.00  0.00     0.272 C 
BRANCH  25  28
HETATM   28  C   UNL     1     -16.837 -12.562  -1.402  1.00  0.00     0.349 C 
BRANCH  28  29
HETATM   29  C   UNL     1     -16.826 -11.966   0.044  1.00  0.00     0.199 C 
HETATM   30  O   UNL     1     -17.925 -11.986   0.678  1.00  0.00    -0.647 OA
HETATM   31  O   UNL     1     -15.689 -11.581   0.450  1.00  0.00    -0.647 OA
ENDBRANCH  28  29
ENDBRANCH  25  28
ENDBRANCH  24  25
ENDBRANCH  23  24
ENDBRANCH  22  23
ENDBRANCH  20  22
ENDBRANCH  17  18
ENDBRANCH   1  17
TORSDOF 21
BEGIN_RES ARG D 557
REMARK  4 active torsions:
REMARK  status: ('A' for Active; 'I' for Inactive)
REMARK    1  A    between atoms: CA   and  CB  
REMARK    2  A    between atoms: CB   and  CG  
REMARK    3  A    between atoms: CG   and  CD  
REMARK    4  A    between atoms: CD   and  NE  
REMARK       I    between atoms: NE   and  CZ  
REMARK       I    between atoms: CZ   and  NH1 
REMARK       I    between atoms: CZ   and  NH2 
ROOT
ATOM      1  CA  ARG D 557     -26.217   2.705 -17.014  1.00 35.49     0.159 C 
ENDROOT
BRANCH   1   2
ATOM      2  CB  ARG D 557     -26.789   1.319 -17.183  1.00 35.49     0.034 C 
BRANCH   2   3
ATOM      3  CG  ARG D 557     -25.861   0.195 -17.005  1.00 35.49     0.027 C 
BRANCH   3   4
ATOM      4  CD  ARG D 557     -26.263  -0.698 -15.895  1.00 35.49     0.116 C 
BRANCH   4   5
ATOM      5  NE  ARG D 557     -25.190  -0.920 -14.962  1.00 35.49    -0.212 N 
ATOM      6  CZ  ARG D 557     -24.917  -2.056 -14.361  1.00 35.49     0.666 C 
ATOM      7  NH1 ARG D 557     -25.636  -3.148 -14.548  1.00 35.49    -0.235 N 
ATOM      8  NH2 ARG D 557     -23.891  -2.081 -13.560  1.00 35.49    -0.235 N 
ATOM      9  HH  ARG D 557     -26.314  -3.155 -15.072  1.00 35.49     0.174 HD
ATOM     10  HH  ARG D 557     -25.409  -3.861 -14.131  1.00 35.49     0.174 HD
ATOM     11  HH  ARG D 557     -23.442  -1.362 -13.464  1.00 35.49     0.174 HD
ATOM     12  HH  ARG D 557     -23.682  -2.797 -13.158  1.00 35.49     0.174 HD
ATOM     13  HE  ARG D 557     -24.721  -0.251 -14.727  1.00 35.49     0.178 HD
ENDBRANCH   4   5
ENDBRANCH   3   4
ENDBRANCH   2   3
ENDBRANCH   1   2
END_RES ARG D 557
BEGIN_RES GLU D 570
REMARK  3 active torsions:
REMARK  status: ('A' for Active; 'I' for Inactive)
REMARK    5  A    between atoms: CA   and  CB  
REMARK    6  A    between atoms: CB   and  CG  
REMARK    7  A    between atoms: CG   and  CD  
ROOT
ATOM     14  CA  GLU D 570     -18.033  -6.348 -13.375  1.00 32.92     0.160 C 
ENDROOT
BRANCH  14  15
ATOM     15  CB  GLU D 570     -19.500  -6.345 -13.794  1.00 32.92     0.043 C 
BRANCH  15  16
ATOM     16  CG  GLU D 570     -20.443  -5.538 -12.978  1.00 32.92     0.100 C 
BRANCH  16  17
ATOM     17  CD  GLU D 570     -21.673  -5.112 -13.746  1.00 32.92     0.185 C 
ATOM     18  OE1 GLU D 570     -22.733  -4.907 -13.126  1.00 32.92    -0.647 OA
ATOM     19  OE2 GLU D 570     -21.578  -5.000 -14.985  1.00 32.92    -0.647 OA
ENDBRANCH  16  17
ENDBRANCH  15  16
ENDBRANCH  14  15
END_RES GLU D 570
ENDMDL
MODEL 5
REMARK VINA RESULT:      -6.6      2.258      3.456
REMARK  21 active torsions:
REMARK  status: ('A' for Active; 'I' for Inactive)
REMARK    1  A    between atoms: C_2  and  C_3 
REMARK    2  A    between atoms: C_3  and  C_4 
REMARK    3  A    between atoms: C_4  and  C_5 
REMARK    4  A    between atoms: C_5  and  C_6 
REMARK    5  A    between atoms: C_6  and  C_7 
REMARK    6  A    between atoms: C_7  and  C_8 
REMARK    7  A    between atoms: C_8  and  C_9 
REMARK    8  A    between atoms: C_10  and  C_11 
REMARK    9  A    between atoms: C_11  and  C_12 
REMARK   10  A    between atoms: C_12  and  C_13 
REMARK   11  A    between atoms: C_13  and  C_14 
REMARK   12  A    between atoms: C_14  and  C_15 
REMARK   13  A    between atoms: C_15  and  C_16 
REMARK   14  A    between atoms: C_16  and  C_17 
REMARK   15  A    between atoms: C_17  and  C_18 
REMARK       I    between atoms: C_18  and  N_20 
REMARK   16  A    between atoms: N_20  and  C_21 
REMARK   17  A    between atoms: C_21  and  C_22 
REMARK   18  A    between atoms: C_22  and  C_23 
REMARK   19  A    between atoms: C_23  and  N_24 
REMARK   20  A    between atoms: N_24  and  C_27 
REMARK   21  A    between atoms: C_27  and  C_28 
ROOT
HETATM    1  C   UNL     1     -22.063  -6.744  -3.980  1.00  0.00     0.009 C 
ENDROOT
BRANCH   1   2
HETATM    2  C   UNL     1     -21.804  -6.181  -2.596  1.00  0.00     0.000 C 
BRANCH   2   3
HETATM    3  C   UNL     1     -21.284  -7.283  -1.678  1.00  0.00     0.000 C 
BRANCH   3   4
HETATM    4  C   UNL     1     -22.276  -7.552  -0.557  1.00  0.00     0.000 C 
BRANCH   4   5
HETATM    5  C   UNL     1     -22.123  -8.974  -0.033  1.00  0.00     0.004 C 
BRANCH   5   6
HETATM    6  C   UNL     1     -21.996  -9.950  -1.194  1.00  0.00     0.027 C 
BRANCH   6   7
HETATM    7  C   UNL     1     -20.720 -10.718  -1.097  1.00  0.00    -0.031 C 
HETATM    8  C   UNL     1     -20.194 -11.092   0.076  1.00  0.00    -0.031 C 
BRANCH   8   9
HETATM    9  C   UNL     1     -18.919 -11.859   0.172  1.00  0.00     0.027 C 
BRANCH   9  10
HETATM   10  C   UNL     1     -18.574 -12.486  -1.171  1.00  0.00     0.004 C 
BRANCH  10  11
HETATM   11  C   UNL     1     -17.083 -12.781  -1.243  1.00  0.00     0.000 C 
BRANCH  11  12
HETATM   12  C   UNL     1     -16.282 -11.497  -1.089  1.00  0.00     0.000 C 
BRANCH  12  13
HETATM   13  C   UNL     1     -15.662 -11.097  -2.420  1.00  0.00     0.000 C 
BRANCH  13  14
HETATM   14  C   UNL     1     -16.063  -9.674  -2.784  1.00  0.00    -0.000 C 
BRANCH  14  15
HETATM   15  C   UNL     1     -17.074  -9.673  -3.922  1.00  0.00    -0.005 C 
HETATM   16  C   UNL     1     -18.457  -9.317  -3.408  1.00  0.00     0.005 C 
ENDBRANCH  14  15
ENDBRANCH  13  14
ENDBRANCH  12  13
ENDBRANCH  11  12
ENDBRANCH  10  11
ENDBRANCH   9  10
ENDBRANCH   8   9
ENDBRANCH   6   7
ENDBRANCH   5   6
ENDBRANCH   4   5
ENDBRANCH   3   4
ENDBRANCH   2   3
ENDBRANCH   1   2
BRANCH   1  17
HETATM   17  C   UNL     1     -20.821  -6.684  -4.864  1.00  0.00     0.103 C 
BRANCH  17  18
HETATM   18  C   UNL     1     -20.846  -5.407  -5.646  1.00  0.00     0.217 C 
HETATM   19  O   UNL     1     -19.968  -4.541  -5.524  1.00  0.00    -0.274 OA
HETATM   20  N   UNL     1     -21.908  -5.285  -6.509  1.00  0.00    -0.361 N 
HETATM   21  H   UNL     1     -22.591  -6.038  -6.595  1.00  0.00     0.162 HD
BRANCH  20  22
HETATM   22  C   UNL     1     -22.008  -4.125  -7.367  1.00  0.00     0.124 C 
BRANCH  22  23
HETATM   23  C   UNL     1     -21.916  -4.487  -8.840  1.00  0.00     0.048 C 
BRANCH  23  24
HETATM   24  C   UNL     1     -22.885  -3.682  -9.724  1.00  0.00     0.238 C 
BRANCH  24  25
HETATM   25  N   UNL     1     -22.582  -3.905 -11.200  1.00  0.00    -0.065 N 
HETATM   26  C   UNL     1     -21.094  -4.149 -11.418  1.00  0.00     0.272 C 
HETATM   27  C   UNL     1     -23.437  -5.036 -11.761  1.00  0.00     0.272 C 
BRANCH  25  28
HETATM   28  C   UNL     1     -22.969  -2.578 -12.033  1.00  0.00     0.349 C 
BRANCH  28  29
HETATM   29  C   UNL     1     -23.604  -2.610 -13.463  1.00  0.00     0.199 C 
HETATM   30  O   UNL     1     -24.859  -2.434 -13.534  1.00  0.00    -0.647 OA
HETATM   31  O   UNL     1     -22.772  -2.749 -14.409  1.00  0.00    -0.647 OA
ENDBRANCH  28  29
ENDBRANCH  25  28
ENDBRANCH  24  25
ENDBRANCH  23  24
ENDBRANCH  22  23
ENDBRANCH  20  22
ENDBRANCH  17  18
ENDBRANCH   1  17
TORSDOF 21
BEGIN_RES ARG D 557
REMARK  4 active torsions:
REMARK  status: ('A' for Active; 'I' for Inactive)
REMARK    1  A    between atoms: CA   and  CB  
REMARK    2  A    between atoms: CB   and  CG  
REMARK    3  A    between atoms: CG   and  CD  
REMARK    4  A    between atoms: CD   and  NE  
REMARK       I    between atoms: NE   and  CZ  
REMARK       I    between atoms: CZ   and  NH1 
REMARK       I    between atoms: CZ   and  NH2 
ROOT
ATOM      1  CA  ARG D 557     -26.217   2.705 -17.014  1.00 35.49     0.159 C 
ENDROOT
BRANCH   1   2
ATOM      2  CB  ARG D 557     -26.789   1.319 -17.183  1.00 35.49     0.034 C 
BRANCH   2   3
ATOM      3  CG  ARG D 557     -28.236   1.225 -17.412  1.00 35.49     0.027 C 
BRANCH   3   4
ATOM      4  CD  ARG D 557     -28.895   0.285 -16.476  1.00 35.49     0.116 C 
BRANCH   4   5
ATOM      5  NE  ARG D 557     -29.280  -0.942 -17.122  1.00 35.49    -0.212 N 
ATOM      6  CZ  ARG D 557     -28.647  -2.090 -17.030  1.00 35.49     0.666 C 
ATOM      7  NH1 ARG D 557     -27.543  -2.236 -16.320  1.00 35.49    -0.235 N 
ATOM      8  NH2 ARG D 557     -29.151  -3.107 -17.667  1.00 35.49    -0.235 N 
ATOM      9  HH  ARG D 557     -27.195  -1.581 -15.891  1.00 35.49     0.174 HD
ATOM     10  HH  ARG D 557     -27.175  -3.009 -16.295  1.00 35.49     0.174 HD
ATOM     11  HH  ARG D 557     -29.869  -2.985 -18.111  1.00 35.49     0.174 HD
ATOM     12  HH  ARG D 557     -28.772  -3.864 -17.628  1.00 35.49     0.174 HD
ATOM     13  HE  ARG D 557     -29.940  -0.922 -17.658  1.00 35.49     0.178 HD
ENDBRANCH   4   5
ENDBRANCH   3   4
ENDBRANCH   2   3
ENDBRANCH   1   2
END_RES ARG D 557
BEGIN_RES GLU D 570
REMARK  3 active torsions:
REMARK  status: ('A' for Active; 'I' for Inactive)
REMARK    5  A    between atoms: CA   and  CB  
REMARK    6  A    between atoms: CB   and  CG  
REMARK    7  A    between atoms: CG   and  CD  
ROOT
ATOM     14  CA  GLU D 570     -18.033  -6.348 -13.375  1.00 32.92     0.160 C 
ENDROOT
BRANCH  14  15
ATOM     15  CB  GLU D 570     -19.500  -6.345 -13.794  1.00 32.92     0.043 C 
BRANCH  15  16
ATOM     16  CG  GLU D 570     -20.068  -7.618 -14.307  1.00 32.92     0.100 C 
BRANCH  16  17
ATOM     17  CD  GLU D 570     -20.742  -7.464 -15.650  1.00 32.92     0.185 C 
ATOM     18  OE1 GLU D 570     -20.544  -6.427 -16.311  1.00 32.92    -0.647 OA
ATOM     19  OE2 GLU D 570     -21.490  -8.383 -16.038  1.00 32.92    -0.647 OA
ENDBRANCH  16  17
ENDBRANCH  15  16
ENDBRANCH  14  15
END_RES GLU D 570
ENDMDL
MODEL 6
REMARK VINA RESULT:      -6.5      3.546      8.848
REMARK  21 active torsions:
REMARK  status: ('A' for Active; 'I' for Inactive)
REMARK    1  A    between atoms: C_2  and  C_3 
REMARK    2  A    between atoms: C_3  and  C_4 
REMARK    3  A    between atoms: C_4  and  C_5 
REMARK    4  A    between atoms: C_5  and  C_6 
REMARK    5  A    between atoms: C_6  and  C_7 
REMARK    6  A    between atoms: C_7  and  C_8 
REMARK    7  A    between atoms: C_8  and  C_9 
REMARK    8  A    between atoms: C_10  and  C_11 
REMARK    9  A    between atoms: C_11  and  C_12 
REMARK   10  A    between atoms: C_12  and  C_13 
REMARK   11  A    between atoms: C_13  and  C_14 
REMARK   12  A    between atoms: C_14  and  C_15 
REMARK   13  A    between atoms: C_15  and  C_16 
REMARK   14  A    between atoms: C_16  and  C_17 
REMARK   15  A    between atoms: C_17  and  C_18 
REMARK       I    between atoms: C_18  and  N_20 
REMARK   16  A    between atoms: N_20  and  C_21 
REMARK   17  A    between atoms: C_21  and  C_22 
REMARK   18  A    between atoms: C_22  and  C_23 
REMARK   19  A    between atoms: C_23  and  N_24 
REMARK   20  A    between atoms: N_24  and  C_27 
REMARK   21  A    between atoms: C_27  and  C_28 
ROOT
HETATM    1  C   UNL     1     -22.771  -9.814   0.127  1.00  0.00     0.009 C 
ENDROOT
BRANCH   1   2
HETATM    2  C   UNL     1     -23.373  -8.442   0.366  1.00  0.00     0.000 C 
BRANCH   2   3
HETATM    3  C   UNL     1     -22.490  -7.372  -0.268  1.00  0.00     0.000 C 
BRANCH   3   4
HETATM    4  C   UNL     1     -21.205  -7.990  -0.797  1.00  0.00     0.000 C 
BRANCH   4   5
HETATM    5  C   UNL     1     -20.856  -7.416  -2.164  1.00  0.00     0.004 C 
BRANCH   5   6
HETATM    6  C   UNL     1     -21.986  -6.527  -2.665  1.00  0.00     0.027 C 
BRANCH   6   7
HETATM    7  C   UNL     1     -21.950  -6.421  -4.153  1.00  0.00    -0.031 C 
HETATM    8  C   UNL     1     -20.804  -6.340  -4.840  1.00  0.00    -0.031 C 
BRANCH   8   9
HETATM    9  C   UNL     1     -20.768  -6.234  -6.327  1.00  0.00     0.027 C 
BRANCH   9  10
HETATM   10  C   UNL     1     -19.771  -5.168  -6.759  1.00  0.00     0.004 C 
BRANCH  10  11
HETATM   11  C   UNL     1     -20.484  -4.067  -7.531  1.00  0.00     0.000 C 
BRANCH  11  12
HETATM   12  C   UNL     1     -20.106  -4.125  -9.003  1.00  0.00     0.000 C 
BRANCH  12  13
HETATM   13  C   UNL     1     -21.355  -4.206  -9.869  1.00  0.00     0.000 C 
BRANCH  13  14
HETATM   14  C   UNL     1     -20.990  -4.055 -11.339  1.00  0.00    -0.000 C 
BRANCH  14  15
HETATM   15  C   UNL     1     -22.124  -3.394 -12.112  1.00  0.00    -0.005 C 
HETATM   16  C   UNL     1     -22.561  -4.270 -13.272  1.00  0.00     0.005 C 
ENDBRANCH  14  15
ENDBRANCH  13  14
ENDBRANCH  12  13
ENDBRANCH  11  12
ENDBRANCH  10  11
ENDBRANCH   9  10
ENDBRANCH   8   9
ENDBRANCH   6   7
ENDBRANCH   5   6
ENDBRANCH   4   5
ENDBRANCH   3   4
ENDBRANCH   2   3
ENDBRANCH   1   2
BRANCH   1  17
HETATM   17  C   UNL     1     -23.833 -10.852  -0.218  1.00  0.00     0.103 C 
BRANCH  17  18
HETATM   18  C   UNL     1     -23.434 -11.549  -1.483  1.00  0.00     0.217 C 
HETATM   19  O   UNL     1     -23.582 -12.769  -1.639  1.00  0.00    -0.274 OA
HETATM   20  N   UNL     1     -22.906 -10.725  -2.447  1.00  0.00    -0.361 N 
HETATM   21  H   UNL     1     -22.830  -9.721  -2.283  1.00  0.00     0.162 HD
BRANCH  20  22
HETATM   22  C   UNL     1     -22.543 -11.269  -3.738  1.00  0.00     0.124 C 
BRANCH  22  23
HETATM   23  C   UNL     1     -21.265 -10.655  -4.284  1.00  0.00     0.048 C 
BRANCH  23  24
HETATM   24  C   UNL     1     -20.091 -10.716  -3.291  1.00  0.00     0.238 C 
BRANCH  24  25
HETATM   25  N   UNL     1     -18.765 -10.495  -4.007  1.00  0.00    -0.065 N 
HETATM   26  C   UNL     1     -18.088 -11.824  -4.319  1.00  0.00     0.272 C 
HETATM   27  C   UNL     1     -18.964  -9.645  -5.257  1.00  0.00     0.272 C 
BRANCH  25  28
HETATM   28  C   UNL     1     -17.766  -9.671  -3.044  1.00  0.00     0.349 C 
BRANCH  28  29
HETATM   29  C   UNL     1     -16.210  -9.828  -3.076  1.00  0.00     0.199 C 
HETATM   30  O   UNL     1     -15.677 -10.432  -2.095  1.00  0.00    -0.647 OA
HETATM   31  O   UNL     1     -15.654  -9.383  -4.124  1.00  0.00    -0.647 OA
ENDBRANCH  28  29
ENDBRANCH  25  28
ENDBRANCH  24  25
ENDBRANCH  23  24
ENDBRANCH  22  23
ENDBRANCH  20  22
ENDBRANCH  17  18
ENDBRANCH   1  17
TORSDOF 21
BEGIN_RES ARG D 557
REMARK  4 active torsions:
REMARK  status: ('A' for Active; 'I' for Inactive)
REMARK    1  A    between atoms: CA   and  CB  
REMARK    2  A    between atoms: CB   and  CG  
REMARK    3  A    between atoms: CG   and  CD  
REMARK    4  A    between atoms: CD   and  NE  
REMARK       I    between atoms: NE   and  CZ  
REMARK       I    between atoms: CZ   and  NH1 
REMARK       I    between atoms: CZ   and  NH2 
ROOT
ATOM      1  CA  ARG D 557     -26.217   2.705 -17.014  1.00 35.49     0.159 C 
ENDROOT
BRANCH   1   2
ATOM      2  CB  ARG D 557     -26.789   1.319 -17.183  1.00 35.49     0.034 C 
BRANCH   2   3
ATOM      3  CG  ARG D 557     -28.237   1.224 -17.402  1.00 35.49     0.027 C 
BRANCH   3   4
ATOM      4  CD  ARG D 557     -28.891   0.286 -16.461  1.00 35.49     0.116 C 
BRANCH   4   5
ATOM      5  NE  ARG D 557     -29.274  -0.945 -17.101  1.00 35.49    -0.212 N 
ATOM      6  CZ  ARG D 557     -28.635  -2.089 -17.010  1.00 35.49     0.666 C 
ATOM      7  NH1 ARG D 557     -27.526  -2.228 -16.307  1.00 35.49    -0.235 N 
ATOM      8  NH2 ARG D 557     -29.139  -3.110 -17.641  1.00 35.49    -0.235 N 
ATOM      9  HH  ARG D 557     -27.178  -1.571 -15.882  1.00 35.49     0.174 HD
ATOM     10  HH  ARG D 557     -27.154  -3.000 -16.282  1.00 35.49     0.174 HD
ATOM     11  HH  ARG D 557     -29.860  -2.993 -18.080  1.00 35.49     0.174 HD
ATOM     12  HH  ARG D 557     -28.757  -3.866 -17.602  1.00 35.49     0.174 HD
ATOM     13  HE  ARG D 557     -29.938  -0.929 -17.632  1.00 35.49     0.178 HD
ENDBRANCH   4   5
ENDBRANCH   3   4
ENDBRANCH   2   3
ENDBRANCH   1   2
END_RES ARG D 557
BEGIN_RES GLU D 570
REMARK  3 active torsions:
REMARK  status: ('A' for Active; 'I' for Inactive)
REMARK    5  A    between atoms: CA   and  CB  
REMARK    6  A    between atoms: CB   and  CG  
REMARK    7  A    between atoms: CG   and  CD  
ROOT
ATOM     14  CA  GLU D 570     -18.033  -6.348 -13.375  1.00 32.92     0.160 C 
ENDROOT
BRANCH  14  15
ATOM     15  CB  GLU D 570     -19.500  -6.345 -13.794  1.00 32.92     0.043 C 
BRANCH  15  16
ATOM     16  CG  GLU D 570     -20.095  -7.640 -14.213  1.00 32.92     0.100 C 
BRANCH  16  17
ATOM     17  CD  GLU D 570     -20.549  -7.642 -15.654  1.00 32.92     0.185 C 
ATOM     18  OE1 GLU D 570     -20.720  -6.553 -16.236  1.00 32.92    -0.647 OA
ATOM     19  OE2 GLU D 570     -20.752  -8.743 -16.202  1.00 32.92    -0.647 OA
ENDBRANCH  16  17
ENDBRANCH  15  16
ENDBRANCH  14  15
END_RES GLU D 570
ENDMDL
MODEL 7
REMARK VINA RESULT:      -6.5      3.438      8.501
REMARK  21 active torsions:
REMARK  status: ('A' for Active; 'I' for Inactive)
REMARK    1  A    between atoms: C_2  and  C_3 
REMARK    2  A    between atoms: C_3  and  C_4 
REMARK    3  A    between atoms: C_4  and  C_5 
REMARK    4  A    between atoms: C_5  and  C_6 
REMARK    5  A    between atoms: C_6  and  C_7 
REMARK    6  A    between atoms: C_7  and  C_8 
REMARK    7  A    between atoms: C_8  and  C_9 
REMARK    8  A    between atoms: C_10  and  C_11 
REMARK    9  A    between atoms: C_11  and  C_12 
REMARK   10  A    between atoms: C_12  and  C_13 
REMARK   11  A    between atoms: C_13  and  C_14 
REMARK   12  A    between atoms: C_14  and  C_15 
REMARK   13  A    between atoms: C_15  and  C_16 
REMARK   14  A    between atoms: C_16  and  C_17 
REMARK   15  A    between atoms: C_17  and  C_18 
REMARK       I    between atoms: C_18  and  N_20 
REMARK   16  A    between atoms: N_20  and  C_21 
REMARK   17  A    between atoms: C_21  and  C_22 
REMARK   18  A    between atoms: C_22  and  C_23 
REMARK   19  A    between atoms: C_23  and  N_24 
REMARK   20  A    between atoms: N_24  and  C_27 
REMARK   21  A    between atoms: C_27  and  C_28 
ROOT
HETATM    1  C   UNL     1     -23.722 -11.054  -0.079  1.00  0.00     0.009 C 
ENDROOT
BRANCH   1   2
HETATM    2  C   UNL     1     -22.676  -9.955  -0.040  1.00  0.00     0.000 C 
BRANCH   2   3
HETATM    3  C   UNL     1     -23.321  -8.642   0.390  1.00  0.00     0.000 C 
BRANCH   3   4
HETATM    4  C   UNL     1     -22.381  -7.476   0.121  1.00  0.00     0.000 C 
BRANCH   4   5
HETATM    5  C   UNL     1     -21.855  -7.529  -1.308  1.00  0.00     0.004 C 
BRANCH   5   6
HETATM    6  C   UNL     1     -22.106  -6.201  -2.009  1.00  0.00     0.027 C 
BRANCH   6   7
HETATM    7  C   UNL     1     -21.423  -6.171  -3.335  1.00  0.00    -0.031 C 
HETATM    8  C   UNL     1     -21.876  -6.854  -4.394  1.00  0.00    -0.031 C 
BRANCH   8   9
HETATM    9  C   UNL     1     -21.192  -6.823  -5.718  1.00  0.00     0.027 C 
BRANCH   9  10
HETATM   10  C   UNL     1     -21.387  -5.468  -6.384  1.00  0.00     0.004 C 
BRANCH  10  11
HETATM   11  C   UNL     1     -20.041  -4.783  -6.578  1.00  0.00     0.000 C 
BRANCH  11  12
HETATM   12  C   UNL     1     -20.057  -3.939  -7.843  1.00  0.00     0.000 C 
BRANCH  12  13
HETATM   13  C   UNL     1     -20.598  -4.747  -9.014  1.00  0.00     0.000 C 
BRANCH  13  14
HETATM   14  C   UNL     1     -20.486  -3.949 -10.305  1.00  0.00    -0.000 C 
BRANCH  14  15
HETATM   15  C   UNL     1     -21.838  -3.853 -10.999  1.00  0.00    -0.005 C 
HETATM   16  C   UNL     1     -22.903  -4.578 -10.197  1.00  0.00     0.005 C 
ENDBRANCH  14  15
ENDBRANCH  13  14
ENDBRANCH  12  13
ENDBRANCH  11  12
ENDBRANCH  10  11
ENDBRANCH   9  10
ENDBRANCH   8   9
ENDBRANCH   6   7
ENDBRANCH   5   6
ENDBRANCH   4   5
ENDBRANCH   3   4
ENDBRANCH   2   3
ENDBRANCH   1   2
BRANCH   1  17
HETATM   17  C   UNL     1     -24.087 -11.446  -1.506  1.00  0.00     0.103 C 
BRANCH  17  18
HETATM   18  C   UNL     1     -22.826 -11.685  -2.279  1.00  0.00     0.217 C 
HETATM   19  O   UNL     1     -22.153 -12.716  -2.142  1.00  0.00    -0.274 OA
HETATM   20  N   UNL     1     -22.491 -10.678  -3.151  1.00  0.00    -0.361 N 
HETATM   21  H   UNL     1     -23.091  -9.860  -3.250  1.00  0.00     0.162 HD
BRANCH  20  22
HETATM   22  C   UNL     1     -21.328 -10.820  -4.002  1.00  0.00     0.124 C 
BRANCH  22  23
HETATM   23  C   UNL     1     -20.098 -10.148  -3.415  1.00  0.00     0.048 C 
BRANCH  23  24
HETATM   24  C   UNL     1     -19.102 -11.144  -2.795  1.00  0.00     0.238 C 
BRANCH  24  25
HETATM   25  N   UNL     1     -17.689 -10.877  -3.297  1.00  0.00    -0.065 N 
HETATM   26  C   UNL     1     -17.262  -9.448  -2.986  1.00  0.00     0.272 C 
HETATM   27  C   UNL     1     -16.714 -11.904  -2.731  1.00  0.00     0.272 C 
BRANCH  25  28
HETATM   28  C   UNL     1     -17.651 -11.043  -4.902  1.00  0.00     0.349 C 
BRANCH  28  29
HETATM   29  C   UNL     1     -17.206  -9.903  -5.878  1.00  0.00     0.199 C 
HETATM   30  O   UNL     1     -15.962  -9.800  -6.105  1.00  0.00    -0.647 OA
HETATM   31  O   UNL     1     -18.158  -9.240  -6.387  1.00  0.00    -0.647 OA
ENDBRANCH  28  29
ENDBRANCH  25  28
ENDBRANCH  24  25
ENDBRANCH  23  24
ENDBRANCH  22  23
ENDBRANCH  20  22
ENDBRANCH  17  18
ENDBRANCH   1  17
TORSDOF 21
BEGIN_RES ARG D 557
REMARK  4 active torsions:
REMARK  status: ('A' for Active; 'I' for Inactive)
REMARK    1  A    between atoms: CA   and  CB  
REMARK    2  A    between atoms: CB   and  CG  
REMARK    3  A    between atoms: CG   and  CD  
REMARK    4  A    between atoms: CD   and  NE  
REMARK       I    between atoms: NE   and  CZ  
REMARK       I    between atoms: CZ   and  NH1 
REMARK       I    between atoms: CZ   and  NH2 
ROOT
ATOM      1  CA  ARG D 557     -26.217   2.705 -17.014  1.00 35.49     0.159 C 
ENDROOT
BRANCH   1   2
ATOM      2  CB  ARG D 557     -26.789   1.319 -17.183  1.00 35.49     0.034 C 
BRANCH   2   3
ATOM      3  CG  ARG D 557     -28.153   1.102 -16.686  1.00 35.49     0.027 C 
BRANCH   3   4
ATOM      4  CD  ARG D 557     -28.792  -0.089 -17.292  1.00 35.49     0.116 C 
BRANCH   4   5
ATOM      5  NE  ARG D 557     -28.181  -1.315 -16.851  1.00 35.49    -0.212 N 
ATOM      6  CZ  ARG D 557     -28.664  -2.523 -17.035  1.00 35.49     0.666 C 
ATOM      7  NH1 ARG D 557     -29.808  -2.743 -17.655  1.00 35.49    -0.235 N 
ATOM      8  NH2 ARG D 557     -27.964  -3.524 -16.586  1.00 35.49    -0.235 N 
ATOM      9  HH  ARG D 557     -30.284  -2.099 -17.961  1.00 35.49     0.174 HD
ATOM     10  HH  ARG D 557     -30.072  -3.553 -17.749  1.00 35.49     0.174 HD
ATOM     11  HH  ARG D 557     -27.225  -3.353 -16.196  1.00 35.49     0.174 HD
ATOM     12  HH  ARG D 557     -28.241  -4.319 -16.689  1.00 35.49     0.174 HD
ATOM     13  HE  ARG D 557     -27.476  -1.262 -16.378  1.00 35.49     0.178 HD
ENDBRANCH   4   5
ENDBRANCH   3   4
ENDBRANCH   2   3
ENDBRANCH   1   2
END_RES ARG D 557
BEGIN_RES GLU D 570
REMARK  3 active torsions:
REMARK  status: ('A' for Active; 'I' for Inactive)
REMARK    5  A    between atoms: CA   and  CB  
REMARK    6  A    between atoms: CB   and  CG  
REMARK    7  A    between atoms: CG   and  CD  
ROOT
ATOM     14  CA  GLU D 570     -18.033  -6.348 -13.375  1.00 32.92     0.160 C 
ENDROOT
BRANCH  14  15
ATOM     15  CB  GLU D 570     -19.500  -6.345 -13.794  1.00 32.92     0.043 C 
BRANCH  15  16
ATOM     16  CG  GLU D 570     -19.802  -6.104 -15.229  1.00 32.92     0.100 C 
BRANCH  16  17
ATOM     17  CD  GLU D 570     -21.156  -5.471 -15.448  1.00 32.92     0.185 C 
ATOM     18  OE1 GLU D 570     -21.927  -5.340 -14.478  1.00 32.92    -0.647 OA
ATOM     19  OE2 GLU D 570     -21.456  -5.118 -16.605  1.00 32.92    -0.647 OA
ENDBRANCH  16  17
ENDBRANCH  15  16
ENDBRANCH  14  15
END_RES GLU D 570
ENDMDL
MODEL 8
REMARK VINA RESULT:      -6.4      3.578      9.489
REMARK  21 active torsions:
REMARK  status: ('A' for Active; 'I' for Inactive)
REMARK    1  A    between atoms: C_2  and  C_3 
REMARK    2  A    between atoms: C_3  and  C_4 
REMARK    3  A    between atoms: C_4  and  C_5 
REMARK    4  A    between atoms: C_5  and  C_6 
REMARK    5  A    between atoms: C_6  and  C_7 
REMARK    6  A    between atoms: C_7  and  C_8 
REMARK    7  A    between atoms: C_8  and  C_9 
REMARK    8  A    between atoms: C_10  and  C_11 
REMARK    9  A    between atoms: C_11  and  C_12 
REMARK   10  A    between atoms: C_12  and  C_13 
REMARK   11  A    between atoms: C_13  and  C_14 
REMARK   12  A    between atoms: C_14  and  C_15 
REMARK   13  A    between atoms: C_15  and  C_16 
REMARK   14  A    between atoms: C_16  and  C_17 
REMARK   15  A    between atoms: C_17  and  C_18 
REMARK       I    between atoms: C_18  and  N_20 
REMARK   16  A    between atoms: N_20  and  C_21 
REMARK   17  A    between atoms: C_21  and  C_22 
REMARK   18  A    between atoms: C_22  and  C_23 
REMARK   19  A    between atoms: C_23  and  N_24 
REMARK   20  A    between atoms: N_24  and  C_27 
REMARK   21  A    between atoms: C_27  and  C_28 
ROOT
HETATM    1  C   UNL     1     -22.177  -7.238  -0.866  1.00  0.00     0.009 C 
ENDROOT
BRANCH   1   2
HETATM    2  C   UNL     1     -22.219  -6.196  -1.968  1.00  0.00     0.000 C 
BRANCH   2   3
HETATM    3  C   UNL     1     -21.466  -6.707  -3.192  1.00  0.00     0.000 C 
BRANCH   3   4
HETATM    4  C   UNL     1     -22.391  -6.765  -4.398  1.00  0.00     0.000 C 
BRANCH   4   5
HETATM    5  C   UNL     1     -21.711  -6.172  -5.625  1.00  0.00     0.004 C 
BRANCH   5   6
HETATM    6  C   UNL     1     -20.530  -5.308  -5.205  1.00  0.00     0.027 C 
BRANCH   6   7
HETATM    7  C   UNL     1     -20.042  -4.492  -6.356  1.00  0.00    -0.031 C 
HETATM    8  C   UNL     1     -20.314  -4.808  -7.628  1.00  0.00    -0.031 C 
BRANCH   8   9
HETATM    9  C   UNL     1     -19.826  -3.992  -8.776  1.00  0.00     0.027 C 
BRANCH   9  10
HETATM   10  C   UNL     1     -20.279  -4.605 -10.093  1.00  0.00     0.004 C 
BRANCH  10  11
HETATM   11  C   UNL     1     -20.726  -3.511 -11.053  1.00  0.00     0.000 C 
BRANCH  11  12
HETATM   12  C   UNL     1     -21.813  -4.033 -11.979  1.00  0.00     0.000 C 
BRANCH  12  13
HETATM   13  C   UNL     1     -23.001  -4.536 -11.172  1.00  0.00     0.000 C 
BRANCH  13  14
HETATM   14  C   UNL     1     -24.059  -3.447 -11.054  1.00  0.00    -0.000 C 
BRANCH  14  15
HETATM   15  C   UNL     1     -24.547  -3.323  -9.616  1.00  0.00    -0.005 C 
HETATM   16  C   UNL     1     -23.668  -4.133  -8.681  1.00  0.00     0.005 C 
ENDBRANCH  14  15
ENDBRANCH  13  14
ENDBRANCH  12  13
ENDBRANCH  11  12
ENDBRANCH  10  11
ENDBRANCH   9  10
ENDBRANCH   8   9
ENDBRANCH   6   7
ENDBRANCH   5   6
ENDBRANCH   4   5
ENDBRANCH   3   4
ENDBRANCH   2   3
ENDBRANCH   1   2
BRANCH   1  17
HETATM   17  C   UNL     1     -21.955  -8.643  -1.416  1.00  0.00     0.103 C 
BRANCH  17  18
HETATM   18  C   UNL     1     -21.151  -9.427  -0.425  1.00  0.00     0.217 C 
HETATM   19  O   UNL     1     -20.976  -9.039   0.739  1.00  0.00    -0.274 OA
HETATM   20  N   UNL     1     -20.639 -10.606  -0.910  1.00  0.00    -0.361 N 
HETATM   21  H   UNL     1     -20.833 -10.898  -1.867  1.00  0.00     0.162 HD
BRANCH  20  22
HETATM   22  C   UNL     1     -19.897 -11.484  -0.030  1.00  0.00     0.124 C 
BRANCH  22  23
HETATM   23  C   UNL     1     -18.498 -11.772  -0.547  1.00  0.00     0.048 C 
BRANCH  23  24
HETATM   24  C   UNL     1     -18.430 -11.878  -2.081  1.00  0.00     0.238 C 
BRANCH  24  25
HETATM   25  N   UNL     1     -17.333 -10.978  -2.636  1.00  0.00    -0.065 N 
HETATM   26  C   UNL     1     -17.826  -9.544  -2.777  1.00  0.00     0.272 C 
HETATM   27  C   UNL     1     -16.076 -11.071  -1.778  1.00  0.00     0.272 C 
BRANCH  25  28
HETATM   28  C   UNL     1     -16.920 -11.484  -4.112  1.00  0.00     0.349 C 
BRANCH  28  29
HETATM   29  C   UNL     1     -16.576 -10.515  -5.292  1.00  0.00     0.199 C 
HETATM   30  O   UNL     1     -15.419  -9.993  -5.282  1.00  0.00    -0.647 OA
HETATM   31  O   UNL     1     -17.482 -10.407  -6.171  1.00  0.00    -0.647 OA
ENDBRANCH  28  29
ENDBRANCH  25  28
ENDBRANCH  24  25
ENDBRANCH  23  24
ENDBRANCH  22  23
ENDBRANCH  20  22
ENDBRANCH  17  18
ENDBRANCH   1  17
TORSDOF 21
BEGIN_RES ARG D 557
REMARK  4 active torsions:
REMARK  status: ('A' for Active; 'I' for Inactive)
REMARK    1  A    between atoms: CA   and  CB  
REMARK    2  A    between atoms: CB   and  CG  
REMARK    3  A    between atoms: CG   and  CD  
REMARK    4  A    between atoms: CD   and  NE  
REMARK       I    between atoms: NE   and  CZ  
REMARK       I    between atoms: CZ   and  NH1 
REMARK       I    between atoms: CZ   and  NH2 
ROOT
ATOM      1  CA  ARG D 557     -26.217   2.705 -17.014  1.00 35.49     0.159 C 
ENDROOT
BRANCH   1   2
ATOM      2  CB  ARG D 557     -26.789   1.319 -17.183  1.00 35.49     0.034 C 
BRANCH   2   3
ATOM      3  CG  ARG D 557     -25.945   0.199 -16.750  1.00 35.49     0.027 C 
BRANCH   3   4
ATOM      4  CD  ARG D 557     -26.722  -0.864 -16.072  1.00 35.49     0.116 C 
BRANCH   4   5
ATOM      5  NE  ARG D 557     -27.984  -1.110 -16.720  1.00 35.49    -0.212 N 
ATOM      6  CZ  ARG D 557     -28.508  -2.291 -16.958  1.00 35.49     0.666 C 
ATOM      7  NH1 ARG D 557     -27.900  -3.416 -16.628  1.00 35.49    -0.235 N 
ATOM      8  NH2 ARG D 557     -29.673  -2.326 -17.536  1.00 35.49    -0.235 N 
ATOM      9  HH  ARG D 557     -27.134  -3.417 -16.244  1.00 35.49     0.174 HD
ATOM     10  HH  ARG D 557     -28.291  -4.157 -16.805  1.00 35.49     0.174 HD
ATOM     11  HH  ARG D 557     -30.045  -1.584 -17.732  1.00 35.49     0.174 HD
ATOM     12  HH  ARG D 557     -30.044  -3.070 -17.703  1.00 35.49     0.174 HD
ATOM     13  HE  ARG D 557     -28.410  -0.443 -17.031  1.00 35.49     0.178 HD
ENDBRANCH   4   5
ENDBRANCH   3   4
ENDBRANCH   2   3
ENDBRANCH   1   2
END_RES ARG D 557
BEGIN_RES GLU D 570
REMARK  3 active torsions:
REMARK  status: ('A' for Active; 'I' for Inactive)
REMARK    5  A    between atoms: CA   and  CB  
REMARK    6  A    between atoms: CB   and  CG  
REMARK    7  A    between atoms: CG   and  CD  
ROOT
ATOM     14  CA  GLU D 570     -18.033  -6.348 -13.375  1.00 32.92     0.160 C 
ENDROOT
BRANCH  14  15
ATOM     15  CB  GLU D 570     -19.500  -6.345 -13.794  1.00 32.92     0.043 C 
BRANCH  15  16
ATOM     16  CG  GLU D 570     -19.798  -6.208 -15.243  1.00 32.92     0.100 C 
BRANCH  16  17
ATOM     17  CD  GLU D 570     -21.240  -6.507 -15.579  1.00 32.92     0.185 C 
ATOM     18  OE1 GLU D 570     -22.091  -6.486 -14.669  1.00 32.92    -0.647 OA
ATOM     19  OE2 GLU D 570     -21.520  -6.780 -16.763  1.00 32.92    -0.647 OA
ENDBRANCH  16  17
ENDBRANCH  15  16
ENDBRANCH  14  15
END_RES GLU D 570
ENDMDL
MODEL 9
REMARK VINA RESULT:      -6.4      4.084      8.445
REMARK  21 active torsions:
REMARK  status: ('A' for Active; 'I' for Inactive)
REMARK    1  A    between atoms: C_2  and  C_3 
REMARK    2  A    between atoms: C_3  and  C_4 
REMARK    3  A    between atoms: C_4  and  C_5 
REMARK    4  A    between atoms: C_5  and  C_6 
REMARK    5  A    between atoms: C_6  and  C_7 
REMARK    6  A    between atoms: C_7  and  C_8 
REMARK    7  A    between atoms: C_8  and  C_9 
REMARK    8  A    between atoms: C_10  and  C_11 
REMARK    9  A    between atoms: C_11  and  C_12 
REMARK   10  A    between atoms: C_12  and  C_13 
REMARK   11  A    between atoms: C_13  and  C_14 
REMARK   12  A    between atoms: C_14  and  C_15 
REMARK   13  A    between atoms: C_15  and  C_16 
REMARK   14  A    between atoms: C_16  and  C_17 
REMARK   15  A    between atoms: C_17  and  C_18 
REMARK       I    between atoms: C_18  and  N_20 
REMARK   16  A    between atoms: N_20  and  C_21 
REMARK   17  A    between atoms: C_21  and  C_22 
REMARK   18  A    between atoms: C_22  and  C_23 
REMARK   19  A    between atoms: C_23  and  N_24 
REMARK   20  A    between atoms: N_24  and  C_27 
REMARK   21  A    between atoms: C_27  and  C_28 
ROOT
HETATM    1  C   UNL     1     -22.582 -11.077  -0.071  1.00  0.00     0.009 C 
ENDROOT
BRANCH   1   2
HETATM    2  C   UNL     1     -23.724 -10.079  -0.035  1.00  0.00     0.000 C 
BRANCH   2   3
HETATM    3  C   UNL     1     -23.195  -8.701   0.347  1.00  0.00     0.000 C 
BRANCH   3   4
HETATM    4  C   UNL     1     -21.676  -8.674   0.265  1.00  0.00     0.000 C 
BRANCH   4   5
HETATM    5  C   UNL     1     -21.217  -7.802  -0.897  1.00  0.00     0.004 C 
BRANCH   5   6
HETATM    6  C   UNL     1     -22.219  -6.682  -1.141  1.00  0.00     0.027 C 
BRANCH   6   7
HETATM    7  C   UNL     1     -22.045  -6.112  -2.509  1.00  0.00    -0.031 C 
HETATM    8  C   UNL     1     -21.965  -6.879  -3.604  1.00  0.00    -0.031 C 
BRANCH   8   9
HETATM    9  C   UNL     1     -21.791  -6.309  -4.970  1.00  0.00     0.027 C 
BRANCH   9  10
HETATM   10  C   UNL     1     -20.382  -6.575  -5.480  1.00  0.00     0.004 C 
BRANCH  10  11
HETATM   11  C   UNL     1     -19.885  -5.384  -6.288  1.00  0.00     0.000 C 
BRANCH  11  12
HETATM   12  C   UNL     1     -20.953  -4.302  -6.344  1.00  0.00     0.000 C 
BRANCH  12  13
HETATM   13  C   UNL     1     -21.070  -3.745  -7.756  1.00  0.00     0.000 C 
BRANCH  13  14
HETATM   14  C   UNL     1     -21.117  -4.879  -8.770  1.00  0.00    -0.000 C 
BRANCH  14  15
HETATM   15  C   UNL     1     -22.429  -4.858  -9.543  1.00  0.00    -0.005 C 
HETATM   16  C   UNL     1     -22.832  -3.432  -9.873  1.00  0.00     0.005 C 
ENDBRANCH  14  15
ENDBRANCH  13  14
ENDBRANCH  12  13
ENDBRANCH  11  12
ENDBRANCH  10  11
ENDBRANCH   9  10
ENDBRANCH   8   9
ENDBRANCH   6   7
ENDBRANCH   5   6
ENDBRANCH   4   5
ENDBRANCH   3   4
ENDBRANCH   2   3
ENDBRANCH   1   2
BRANCH   1  17
HETATM   17  C   UNL     1     -22.690 -12.028  -1.258  1.00  0.00     0.103 C 
BRANCH  17  18
HETATM   18  C   UNL     1     -22.303 -11.291  -2.503  1.00  0.00     0.217 C 
HETATM   19  O   UNL     1     -23.121 -11.023  -3.394  1.00  0.00    -0.274 OA
HETATM   20  N   UNL     1     -20.978 -10.932  -2.567  1.00  0.00    -0.361 N 
HETATM   21  H   UNL     1     -20.347 -11.150  -1.796  1.00  0.00     0.162 HD
BRANCH  20  22
HETATM   22  C   UNL     1     -20.495 -10.160  -3.691  1.00  0.00     0.124 C 
BRANCH  22  23
HETATM   23  C   UNL     1     -19.076  -9.659  -3.480  1.00  0.00     0.048 C 
BRANCH  23  24
HETATM   24  C   UNL     1     -18.216  -9.720  -4.754  1.00  0.00     0.238 C 
BRANCH  24  25
HETATM   25  N   UNL     1     -16.955 -10.541  -4.516  1.00  0.00    -0.065 N 
HETATM   26  C   UNL     1     -15.874  -9.697  -3.852  1.00  0.00     0.272 C 
HETATM   27  C   UNL     1     -17.275 -11.798  -3.714  1.00  0.00     0.272 C 
BRANCH  25  28
HETATM   28  C   UNL     1     -16.362 -11.038  -5.933  1.00  0.00     0.349 C 
BRANCH  28  29
HETATM   29  C   UNL     1     -16.935 -12.257  -6.729  1.00  0.00     0.199 C 
HETATM   30  O   UNL     1     -18.040 -12.078  -7.327  1.00  0.00    -0.647 OA
HETATM   31  O   UNL     1     -16.190 -13.281  -6.738  1.00  0.00    -0.647 OA
ENDBRANCH  28  29
ENDBRANCH  25  28
ENDBRANCH  24  25
ENDBRANCH  23  24
ENDBRANCH  22  23
ENDBRANCH  20  22
ENDBRANCH  17  18
ENDBRANCH   1  17
TORSDOF 21
BEGIN_RES ARG D 557
REMARK  4 active torsions:
REMARK  status: ('A' for Active; 'I' for Inactive)
REMARK    1  A    between atoms: CA   and  CB  
REMARK    2  A    between atoms: CB   and  CG  
REMARK    3  A    between atoms: CG   and  CD  
REMARK    4  A    between atoms: CD   and  NE  
REMARK       I    between atoms: NE   and  CZ  
REMARK       I    between atoms: CZ   and  NH1 
REMARK       I    between atoms: CZ   and  NH2 
ROOT
ATOM      1  CA  ARG D 557     -26.217   2.705 -17.014  1.00 35.49     0.159 C 
ENDROOT
BRANCH   1   2
ATOM      2  CB  ARG D 557     -26.789   1.319 -17.183  1.00 35.49     0.034 C 
BRANCH   2   3
ATOM      3  CG  ARG D 557     -25.836   0.203 -17.156  1.00 35.49     0.027 C 
BRANCH   3   4
ATOM      4  CD  ARG D 557     -24.766   0.399 -16.151  1.00 35.49     0.116 C 
BRANCH   4   5
ATOM      5  NE  ARG D 557     -24.914  -0.481 -15.022  1.00 35.49    -0.212 N 
ATOM      6  CZ  ARG D 557     -24.087  -1.445 -14.686  1.00 35.49     0.666 C 
ATOM      7  NH1 ARG D 557     -23.002  -1.725 -15.385  1.00 35.49    -0.235 N 
ATOM      8  NH2 ARG D 557     -24.367  -2.131 -13.616  1.00 35.49    -0.235 N 
ATOM      9  HH  ARG D 557     -22.797  -1.285 -16.091  1.00 35.49     0.174 HD
ATOM     10  HH  ARG D 557     -22.498  -2.363 -15.116  1.00 35.49     0.174 HD
ATOM     11  HH  ARG D 557     -25.070  -1.923 -13.181  1.00 35.49     0.174 HD
ATOM     12  HH  ARG D 557     -23.855  -2.759 -13.366  1.00 35.49     0.174 HD
ATOM     13  HE  ARG D 557     -25.623  -0.418 -14.558  1.00 35.49     0.178 HD
ENDBRANCH   4   5
ENDBRANCH   3   4
ENDBRANCH   2   3
ENDBRANCH   1   2
END_RES ARG D 557
BEGIN_RES GLU D 570
REMARK  3 active torsions:
REMARK  status: ('A' for Active; 'I' for Inactive)
REMARK    5  A    between atoms: CA   and  CB  
REMARK    6  A    between atoms: CB   and  CG  
REMARK    7  A    between atoms: CG   and  CD  
ROOT
ATOM     14  CA  GLU D 570     -18.033  -6.348 -13.375  1.00 32.92     0.160 C 
ENDROOT
BRANCH  14  15
ATOM     15  CB  GLU D 570     -19.500  -6.345 -13.794  1.00 32.92     0.043 C 
BRANCH  15  16
ATOM     16  CG  GLU D 570     -20.437  -5.508 -13.000  1.00 32.92     0.100 C 
BRANCH  16  17
ATOM     17  CD  GLU D 570     -21.680  -5.125 -13.769  1.00 32.92     0.185 C 
ATOM     18  OE1 GLU D 570     -22.701  -4.788 -13.139  1.00 32.92    -0.647 OA
ATOM     19  OE2 GLU D 570     -21.638  -5.179 -15.014  1.00 32.92    -0.647 OA
ENDBRANCH  16  17
ENDBRANCH  15  16
ENDBRANCH  14  15
END_RES GLU D 570
ENDMDL
