MODEL 1
REMARK VINA RESULT:      -1.0      0.000      0.000
REMARK  3 active torsions:
REMARK  status: ('A' for Active; 'I' for Inactive)
REMARK    1  A    between atoms: C_6  and  N_7 
REMARK    2  A    between atoms: N_9  and  C_11 
REMARK    3  A    between atoms: C_14  and  N_17 
ROOT
HETATM    1 CL   UNL     2     -36.979   0.481  -4.885  1.00  0.00     0.000 Cl
ENDROOT
TORSDOF 3
BEGIN_RES ARG D 557
REMARK  4 active torsions:
REMARK  status: ('A' for Active; 'I' for Inactive)
REMARK    1  A    between atoms: CA   and  CB  
REMARK    2  A    between atoms: CB   and  CG  
REMARK    3  A    between atoms: CG   and  CD  
REMARK    4  A    between atoms: CD   and  NE  
REMARK       I    between atoms: NE   and  CZ  
REMARK       I    between atoms: CZ   and  NH1 
REMARK       I    between atoms: CZ   and  NH2 
ROOT
ATOM      1  CA  ARG D 557     -26.217   2.705 -17.014  1.00 35.49     0.159 C 
ENDROOT
BRANCH   1   2
ATOM      2  CB  ARG D 557     -26.789   1.319 -17.183  1.00 35.49     0.034 C 
BRANCH   2   3
ATOM      3  CG  ARG D 557     -25.836   0.203 -17.151  1.00 35.49     0.027 C 
BRANCH   3   4
ATOM      4  CD  ARG D 557     -24.762   0.406 -16.153  1.00 35.49     0.116 C 
BRANCH   4   5
ATOM      5  NE  ARG D 557     -24.914  -0.454 -15.009  1.00 35.49    -0.212 N 
ATOM      6  CZ  ARG D 557     -24.098  -1.424 -14.663  1.00 35.49     0.666 C 
ATOM      7  NH1 ARG D 557     -23.022  -1.729 -15.364  1.00 35.49    -0.235 N 
ATOM      8  NH2 ARG D 557     -24.381  -2.089 -13.581  1.00 35.49    -0.235 N 
ATOM      9  HH  ARG D 557     -22.815  -1.303 -16.078  1.00 35.49     0.174 HD
ATOM     10  HH  ARG D 557     -22.525  -2.370 -15.088  1.00 35.49     0.174 HD
ATOM     11  HH  ARG D 557     -25.078  -1.865 -13.144  1.00 35.49     0.174 HD
ATOM     12  HH  ARG D 557     -23.875  -2.719 -13.323  1.00 35.49     0.174 HD
ATOM     13  HE  ARG D 557     -25.620  -0.375 -14.541  1.00 35.49     0.178 HD
ENDBRANCH   4   5
ENDBRANCH   3   4
ENDBRANCH   2   3
ENDBRANCH   1   2
END_RES ARG D 557
BEGIN_RES GLU D 570
REMARK  3 active torsions:
REMARK  status: ('A' for Active; 'I' for Inactive)
REMARK    5  A    between atoms: CA   and  CB  
REMARK    6  A    between atoms: CB   and  CG  
REMARK    7  A    between atoms: CG   and  CD  
ROOT
ATOM     14  CA  GLU D 570     -18.033  -6.348 -13.375  1.00 32.92     0.160 C 
ENDROOT
BRANCH  14  15
ATOM     15  CB  GLU D 570     -19.500  -6.345 -13.794  1.00 32.92     0.043 C 
BRANCH  15  16
ATOM     16  CG  GLU D 570     -20.442  -5.531 -12.983  1.00 32.92     0.100 C 
BRANCH  16  17
ATOM     17  CD  GLU D 570     -21.742  -5.246 -13.698  1.00 32.92     0.185 C 
ATOM     18  OE1 GLU D 570     -22.223  -6.117 -14.448  1.00 32.92    -0.647 OA
ATOM     19  OE2 GLU D 570     -22.275  -4.134 -13.520  1.00 32.92    -0.647 OA
ENDBRANCH  16  17
ENDBRANCH  15  16
ENDBRANCH  14  15
END_RES GLU D 570
ENDMDL
MODEL 2
REMARK VINA RESULT:      -1.0      2.190      2.381
REMARK  3 active torsions:
REMARK  status: ('A' for Active; 'I' for Inactive)
REMARK    1  A    between atoms: C_6  and  N_7 
REMARK    2  A    between atoms: N_9  and  C_11 
REMARK    3  A    between atoms: C_14  and  N_17 
ROOT
HETATM    1 CL   UNL     2     -33.479  -2.230 -10.642  1.00  0.00     0.000 Cl
ENDROOT
TORSDOF 3
BEGIN_RES ARG D 557
REMARK  4 active torsions:
REMARK  status: ('A' for Active; 'I' for Inactive)
REMARK    1  A    between atoms: CA   and  CB  
REMARK    2  A    between atoms: CB   and  CG  
REMARK    3  A    between atoms: CG   and  CD  
REMARK    4  A    between atoms: CD   and  NE  
REMARK       I    between atoms: NE   and  CZ  
REMARK       I    between atoms: CZ   and  NH1 
REMARK       I    between atoms: CZ   and  NH2 
ROOT
ATOM      1  CA  ARG D 557     -26.217   2.705 -17.014  1.00 35.49     0.159 C 
ENDROOT
BRANCH   1   2
ATOM      2  CB  ARG D 557     -26.789   1.319 -17.183  1.00 35.49     0.034 C 
BRANCH   2   3
ATOM      3  CG  ARG D 557     -25.835   0.203 -17.162  1.00 35.49     0.027 C 
BRANCH   3   4
ATOM      4  CD  ARG D 557     -24.749   0.408 -16.177  1.00 35.49     0.116 C 
BRANCH   4   5
ATOM      5  NE  ARG D 557     -24.896  -0.440 -15.024  1.00 35.49    -0.212 N 
ATOM      6  CZ  ARG D 557     -24.079  -1.409 -14.674  1.00 35.49     0.666 C 
ATOM      7  NH1 ARG D 557     -23.009  -1.723 -15.379  1.00 35.49    -0.235 N 
ATOM      8  NH2 ARG D 557     -24.357  -2.063 -13.583  1.00 35.49    -0.235 N 
ATOM      9  HH  ARG D 557     -22.806  -1.305 -16.099  1.00 35.49     0.174 HD
ATOM     10  HH  ARG D 557     -22.511  -2.363 -15.100  1.00 35.49     0.174 HD
ATOM     11  HH  ARG D 557     -25.051  -1.833 -13.144  1.00 35.49     0.174 HD
ATOM     12  HH  ARG D 557     -23.851  -2.692 -13.323  1.00 35.49     0.174 HD
ATOM     13  HE  ARG D 557     -25.598  -0.355 -14.552  1.00 35.49     0.178 HD
ENDBRANCH   4   5
ENDBRANCH   3   4
ENDBRANCH   2   3
ENDBRANCH   1   2
END_RES ARG D 557
BEGIN_RES GLU D 570
REMARK  3 active torsions:
REMARK  status: ('A' for Active; 'I' for Inactive)
REMARK    5  A    between atoms: CA   and  CB  
REMARK    6  A    between atoms: CB   and  CG  
REMARK    7  A    between atoms: CG   and  CD  
ROOT
ATOM     14  CA  GLU D 570     -18.033  -6.348 -13.375  1.00 32.92     0.160 C 
ENDROOT
BRANCH  14  15
ATOM     15  CB  GLU D 570     -19.500  -6.345 -13.794  1.00 32.92     0.043 C 
BRANCH  15  16
ATOM     16  CG  GLU D 570     -20.440  -5.523 -12.989  1.00 32.92     0.100 C 
BRANCH  16  17
ATOM     17  CD  GLU D 570     -21.744  -5.251 -13.702  1.00 32.92     0.185 C 
ATOM     18  OE1 GLU D 570     -22.306  -4.151 -13.537  1.00 32.92    -0.647 OA
ATOM     19  OE2 GLU D 570     -22.217  -6.153 -14.420  1.00 32.92    -0.647 OA
ENDBRANCH  16  17
ENDBRANCH  15  16
ENDBRANCH  14  15
END_RES GLU D 570
ENDMDL
MODEL 3
REMARK VINA RESULT:      -1.0      3.830      3.830
REMARK  3 active torsions:
REMARK  status: ('A' for Active; 'I' for Inactive)
REMARK    1  A    between atoms: C_6  and  N_7 
REMARK    2  A    between atoms: N_9  and  C_11 
REMARK    3  A    between atoms: C_14  and  N_17 
ROOT
HETATM    1 CL   UNL     2     -29.861   7.464 -12.754  1.00  0.00     0.000 Cl
ENDROOT
TORSDOF 3
BEGIN_RES ARG D 557
REMARK  4 active torsions:
REMARK  status: ('A' for Active; 'I' for Inactive)
REMARK    1  A    between atoms: CA   and  CB  
REMARK    2  A    between atoms: CB   and  CG  
REMARK    3  A    between atoms: CG   and  CD  
REMARK    4  A    between atoms: CD   and  NE  
REMARK       I    between atoms: NE   and  CZ  
REMARK       I    between atoms: CZ   and  NH1 
REMARK       I    between atoms: CZ   and  NH2 
ROOT
ATOM      1  CA  ARG D 557     -26.217   2.705 -17.014  1.00 35.49     0.159 C 
ENDROOT
BRANCH   1   2
ATOM      2  CB  ARG D 557     -26.789   1.319 -17.183  1.00 35.49     0.034 C 
BRANCH   2   3
ATOM      3  CG  ARG D 557     -25.835   0.203 -17.162  1.00 35.49     0.027 C 
BRANCH   3   4
ATOM      4  CD  ARG D 557     -24.750   0.408 -16.176  1.00 35.49     0.116 C 
BRANCH   4   5
ATOM      5  NE  ARG D 557     -24.900  -0.437 -15.021  1.00 35.49    -0.212 N 
ATOM      6  CZ  ARG D 557     -24.088  -1.409 -14.668  1.00 35.49     0.666 C 
ATOM      7  NH1 ARG D 557     -23.018  -1.729 -15.373  1.00 35.49    -0.235 N 
ATOM      8  NH2 ARG D 557     -24.368  -2.059 -13.576  1.00 35.49    -0.235 N 
ATOM      9  HH  ARG D 557     -22.814  -1.313 -16.094  1.00 35.49     0.174 HD
ATOM     10  HH  ARG D 557     -22.523  -2.370 -15.093  1.00 35.49     0.174 HD
ATOM     11  HH  ARG D 557     -25.061  -1.825 -13.138  1.00 35.49     0.174 HD
ATOM     12  HH  ARG D 557     -23.865  -2.690 -13.315  1.00 35.49     0.174 HD
ATOM     13  HE  ARG D 557     -25.602  -0.348 -14.549  1.00 35.49     0.178 HD
ENDBRANCH   4   5
ENDBRANCH   3   4
ENDBRANCH   2   3
ENDBRANCH   1   2
END_RES ARG D 557
BEGIN_RES GLU D 570
REMARK  3 active torsions:
REMARK  status: ('A' for Active; 'I' for Inactive)
REMARK    5  A    between atoms: CA   and  CB  
REMARK    6  A    between atoms: CB   and  CG  
REMARK    7  A    between atoms: CG   and  CD  
ROOT
ATOM     14  CA  GLU D 570     -18.033  -6.348 -13.375  1.00 32.92     0.160 C 
ENDROOT
BRANCH  14  15
ATOM     15  CB  GLU D 570     -19.500  -6.345 -13.794  1.00 32.92     0.043 C 
BRANCH  15  16
ATOM     16  CG  GLU D 570     -20.441  -5.528 -12.985  1.00 32.92     0.100 C 
BRANCH  16  17
ATOM     17  CD  GLU D 570     -21.746  -5.256 -13.696  1.00 32.92     0.185 C 
ATOM     18  OE1 GLU D 570     -22.218  -6.128 -14.451  1.00 32.92    -0.647 OA
ATOM     19  OE2 GLU D 570     -22.294  -4.151 -13.510  1.00 32.92    -0.647 OA
ENDBRANCH  16  17
ENDBRANCH  15  16
ENDBRANCH  14  15
END_RES GLU D 570
ENDMDL
MODEL 4
REMARK VINA RESULT:      -1.0      4.973      5.060
REMARK  3 active torsions:
REMARK  status: ('A' for Active; 'I' for Inactive)
REMARK    1  A    between atoms: C_6  and  N_7 
REMARK    2  A    between atoms: N_9  and  C_11 
REMARK    3  A    between atoms: C_14  and  N_17 
ROOT
HETATM    1 CL   UNL     2     -22.267  -6.262  -1.708  1.00  0.00     0.000 Cl
ENDROOT
TORSDOF 3
BEGIN_RES ARG D 557
REMARK  4 active torsions:
REMARK  status: ('A' for Active; 'I' for Inactive)
REMARK    1  A    between atoms: CA   and  CB  
REMARK    2  A    between atoms: CB   and  CG  
REMARK    3  A    between atoms: CG   and  CD  
REMARK    4  A    between atoms: CD   and  NE  
REMARK       I    between atoms: NE   and  CZ  
REMARK       I    between atoms: CZ   and  NH1 
REMARK       I    between atoms: CZ   and  NH2 
ROOT
ATOM      1  CA  ARG D 557     -26.217   2.705 -17.014  1.00 35.49     0.159 C 
ENDROOT
BRANCH   1   2
ATOM      2  CB  ARG D 557     -26.789   1.319 -17.183  1.00 35.49     0.034 C 
BRANCH   2   3
ATOM      3  CG  ARG D 557     -25.835   0.204 -17.163  1.00 35.49     0.027 C 
BRANCH   3   4
ATOM      4  CD  ARG D 557     -24.753   0.404 -16.171  1.00 35.49     0.116 C 
BRANCH   4   5
ATOM      5  NE  ARG D 557     -24.908  -0.446 -15.020  1.00 35.49    -0.212 N 
ATOM      6  CZ  ARG D 557     -24.097  -1.418 -14.669  1.00 35.49     0.666 C 
ATOM      7  NH1 ARG D 557     -23.025  -1.736 -15.371  1.00 35.49    -0.235 N 
ATOM      8  NH2 ARG D 557     -24.381  -2.073 -13.581  1.00 35.49    -0.235 N 
ATOM      9  HH  ARG D 557     -22.817  -1.317 -16.089  1.00 35.49     0.174 HD
ATOM     10  HH  ARG D 557     -22.531  -2.378 -15.091  1.00 35.49     0.174 HD
ATOM     11  HH  ARG D 557     -25.076  -1.842 -13.144  1.00 35.49     0.174 HD
ATOM     12  HH  ARG D 557     -23.879  -2.705 -13.320  1.00 35.49     0.174 HD
ATOM     13  HE  ARG D 557     -25.612  -0.359 -14.552  1.00 35.49     0.178 HD
ENDBRANCH   4   5
ENDBRANCH   3   4
ENDBRANCH   2   3
ENDBRANCH   1   2
END_RES ARG D 557
BEGIN_RES GLU D 570
REMARK  3 active torsions:
REMARK  status: ('A' for Active; 'I' for Inactive)
REMARK    5  A    between atoms: CA   and  CB  
REMARK    6  A    between atoms: CB   and  CG  
REMARK    7  A    between atoms: CG   and  CD  
ROOT
ATOM     14  CA  GLU D 570     -18.033  -6.348 -13.375  1.00 32.92     0.160 C 
ENDROOT
BRANCH  14  15
ATOM     15  CB  GLU D 570     -19.500  -6.345 -13.794  1.00 32.92     0.043 C 
BRANCH  15  16
ATOM     16  CG  GLU D 570     -20.441  -5.527 -12.986  1.00 32.92     0.100 C 
BRANCH  16  17
ATOM     17  CD  GLU D 570     -21.743  -5.249 -13.701  1.00 32.92     0.185 C 
ATOM     18  OE1 GLU D 570     -22.311  -4.155 -13.519  1.00 32.92    -0.647 OA
ATOM     19  OE2 GLU D 570     -22.208  -6.141 -14.436  1.00 32.92    -0.647 OA
ENDBRANCH  16  17
ENDBRANCH  15  16
ENDBRANCH  14  15
END_RES GLU D 570
ENDMDL
MODEL 5
REMARK VINA RESULT:      -0.8      5.486      5.565
REMARK  3 active torsions:
REMARK  status: ('A' for Active; 'I' for Inactive)
REMARK    1  A    between atoms: C_6  and  N_7 
REMARK    2  A    between atoms: N_9  and  C_11 
REMARK    3  A    between atoms: C_14  and  N_17 
ROOT
HETATM    1 CL   UNL     2     -30.562 -15.329   1.433  1.00  0.00     0.000 Cl
ENDROOT
TORSDOF 3
BEGIN_RES ARG D 557
REMARK  4 active torsions:
REMARK  status: ('A' for Active; 'I' for Inactive)
REMARK    1  A    between atoms: CA   and  CB  
REMARK    2  A    between atoms: CB   and  CG  
REMARK    3  A    between atoms: CG   and  CD  
REMARK    4  A    between atoms: CD   and  NE  
REMARK       I    between atoms: NE   and  CZ  
REMARK       I    between atoms: CZ   and  NH1 
REMARK       I    between atoms: CZ   and  NH2 
ROOT
ATOM      1  CA  ARG D 557     -26.217   2.705 -17.014  1.00 35.49     0.159 C 
ENDROOT
BRANCH   1   2
ATOM      2  CB  ARG D 557     -26.789   1.319 -17.183  1.00 35.49     0.034 C 
BRANCH   2   3
ATOM      3  CG  ARG D 557     -25.834   0.204 -17.169  1.00 35.49     0.027 C 
BRANCH   3   4
ATOM      4  CD  ARG D 557     -24.744   0.407 -16.188  1.00 35.49     0.116 C 
BRANCH   4   5
ATOM      5  NE  ARG D 557     -24.892  -0.434 -15.030  1.00 35.49    -0.212 N 
ATOM      6  CZ  ARG D 557     -24.082  -1.407 -14.679  1.00 35.49     0.666 C 
ATOM      7  NH1 ARG D 557     -23.018  -1.735 -15.387  1.00 35.49    -0.235 N 
ATOM      8  NH2 ARG D 557     -24.360  -2.053 -13.583  1.00 35.49    -0.235 N 
ATOM      9  HH  ARG D 557     -22.815  -1.322 -16.110  1.00 35.49     0.174 HD
ATOM     10  HH  ARG D 557     -22.524  -2.377 -15.108  1.00 35.49     0.174 HD
ATOM     11  HH  ARG D 557     -25.050  -1.815 -13.142  1.00 35.49     0.174 HD
ATOM     12  HH  ARG D 557     -23.858  -2.685 -13.322  1.00 35.49     0.174 HD
ATOM     13  HE  ARG D 557     -25.592  -0.340 -14.556  1.00 35.49     0.178 HD
ENDBRANCH   4   5
ENDBRANCH   3   4
ENDBRANCH   2   3
ENDBRANCH   1   2
END_RES ARG D 557
BEGIN_RES GLU D 570
REMARK  3 active torsions:
REMARK  status: ('A' for Active; 'I' for Inactive)
REMARK    5  A    between atoms: CA   and  CB  
REMARK    6  A    between atoms: CB   and  CG  
REMARK    7  A    between atoms: CG   and  CD  
ROOT
ATOM     14  CA  GLU D 570     -18.033  -6.348 -13.375  1.00 32.92     0.160 C 
ENDROOT
BRANCH  14  15
ATOM     15  CB  GLU D 570     -19.500  -6.345 -13.794  1.00 32.92     0.043 C 
BRANCH  15  16
ATOM     16  CG  GLU D 570     -20.447  -5.555 -12.965  1.00 32.92     0.100 C 
BRANCH  16  17
ATOM     17  CD  GLU D 570     -21.735  -5.235 -13.686  1.00 32.92     0.185 C 
ATOM     18  OE1 GLU D 570     -22.249  -4.110 -13.536  1.00 32.92    -0.647 OA
ATOM     19  OE2 GLU D 570     -22.245  -6.124 -14.396  1.00 32.92    -0.647 OA
ENDBRANCH  16  17
ENDBRANCH  15  16
ENDBRANCH  14  15
END_RES GLU D 570
ENDMDL
MODEL 6
REMARK VINA RESULT:      -0.8      3.999      4.104
REMARK  3 active torsions:
REMARK  status: ('A' for Active; 'I' for Inactive)
REMARK    1  A    between atoms: C_6  and  N_7 
REMARK    2  A    between atoms: N_9  and  C_11 
REMARK    3  A    between atoms: C_14  and  N_17 
ROOT
HETATM    1 CL   UNL     2     -29.185   6.538   3.966  1.00  0.00     0.000 Cl
ENDROOT
TORSDOF 3
BEGIN_RES ARG D 557
REMARK  4 active torsions:
REMARK  status: ('A' for Active; 'I' for Inactive)
REMARK    1  A    between atoms: CA   and  CB  
REMARK    2  A    between atoms: CB   and  CG  
REMARK    3  A    between atoms: CG   and  CD  
REMARK    4  A    between atoms: CD   and  NE  
REMARK       I    between atoms: NE   and  CZ  
REMARK       I    between atoms: CZ   and  NH1 
REMARK       I    between atoms: CZ   and  NH2 
ROOT
ATOM      1  CA  ARG D 557     -26.217   2.705 -17.014  1.00 35.49     0.159 C 
ENDROOT
BRANCH   1   2
ATOM      2  CB  ARG D 557     -26.789   1.319 -17.183  1.00 35.49     0.034 C 
BRANCH   2   3
ATOM      3  CG  ARG D 557     -25.833   0.205 -17.181  1.00 35.49     0.027 C 
BRANCH   3   4
ATOM      4  CD  ARG D 557     -24.737   0.404 -16.206  1.00 35.49     0.116 C 
BRANCH   4   5
ATOM      5  NE  ARG D 557     -24.895  -0.420 -15.037  1.00 35.49    -0.212 N 
ATOM      6  CZ  ARG D 557     -24.101  -1.404 -14.677  1.00 35.49     0.666 C 
ATOM      7  NH1 ARG D 557     -23.046  -1.759 -15.387  1.00 35.49    -0.235 N 
ATOM      8  NH2 ARG D 557     -24.384  -2.031 -13.573  1.00 35.49    -0.235 N 
ATOM      9  HH  ARG D 557     -22.839  -1.359 -16.115  1.00 35.49     0.174 HD
ATOM     10  HH  ARG D 557     -22.563  -2.407 -15.101  1.00 35.49     0.174 HD
ATOM     11  HH  ARG D 557     -25.068  -1.775 -13.131  1.00 35.49     0.174 HD
ATOM     12  HH  ARG D 557     -23.893  -2.669 -13.306  1.00 35.49     0.174 HD
ATOM     13  HE  ARG D 557     -25.590  -0.308 -14.560  1.00 35.49     0.178 HD
ENDBRANCH   4   5
ENDBRANCH   3   4
ENDBRANCH   2   3
ENDBRANCH   1   2
END_RES ARG D 557
BEGIN_RES GLU D 570
REMARK  3 active torsions:
REMARK  status: ('A' for Active; 'I' for Inactive)
REMARK    5  A    between atoms: CA   and  CB  
REMARK    6  A    between atoms: CB   and  CG  
REMARK    7  A    between atoms: CG   and  CD  
ROOT
ATOM     14  CA  GLU D 570     -18.033  -6.348 -13.375  1.00 32.92     0.160 C 
ENDROOT
BRANCH  14  15
ATOM     15  CB  GLU D 570     -19.500  -6.345 -13.794  1.00 32.92     0.043 C 
BRANCH  15  16
ATOM     16  CG  GLU D 570     -20.443  -5.537 -12.979  1.00 32.92     0.100 C 
BRANCH  16  17
ATOM     17  CD  GLU D 570     -21.716  -5.195 -13.717  1.00 32.92     0.185 C 
ATOM     18  OE1 GLU D 570     -22.357  -4.180 -13.380  1.00 32.92    -0.647 OA
ATOM     19  OE2 GLU D 570     -22.086  -5.958 -14.630  1.00 32.92    -0.647 OA
ENDBRANCH  16  17
ENDBRANCH  15  16
ENDBRANCH  14  15
END_RES GLU D 570
ENDMDL
MODEL 7
REMARK VINA RESULT:      -0.8      4.090      4.195
REMARK  3 active torsions:
REMARK  status: ('A' for Active; 'I' for Inactive)
REMARK    1  A    between atoms: C_6  and  N_7 
REMARK    2  A    between atoms: N_9  and  C_11 
REMARK    3  A    between atoms: C_14  and  N_17 
ROOT
HETATM    1 CL   UNL     2     -24.895  -3.314  -9.733  1.00  0.00     0.000 Cl
ENDROOT
TORSDOF 3
BEGIN_RES ARG D 557
REMARK  4 active torsions:
REMARK  status: ('A' for Active; 'I' for Inactive)
REMARK    1  A    between atoms: CA   and  CB  
REMARK    2  A    between atoms: CB   and  CG  
REMARK    3  A    between atoms: CG   and  CD  
REMARK    4  A    between atoms: CD   and  NE  
REMARK       I    between atoms: NE   and  CZ  
REMARK       I    between atoms: CZ   and  NH1 
REMARK       I    between atoms: CZ   and  NH2 
ROOT
ATOM      1  CA  ARG D 557     -26.217   2.705 -17.014  1.00 35.49     0.159 C 
ENDROOT
BRANCH   1   2
ATOM      2  CB  ARG D 557     -26.789   1.319 -17.183  1.00 35.49     0.034 C 
BRANCH   2   3
ATOM      3  CG  ARG D 557     -25.835   0.203 -17.161  1.00 35.49     0.027 C 
BRANCH   3   4
ATOM      4  CD  ARG D 557     -24.751   0.407 -16.173  1.00 35.49     0.116 C 
BRANCH   4   5
ATOM      5  NE  ARG D 557     -24.903  -0.439 -15.018  1.00 35.49    -0.212 N 
ATOM      6  CZ  ARG D 557     -24.092  -1.411 -14.667  1.00 35.49     0.666 C 
ATOM      7  NH1 ARG D 557     -23.022  -1.731 -15.370  1.00 35.49    -0.235 N 
ATOM      8  NH2 ARG D 557     -24.373  -2.062 -13.575  1.00 35.49    -0.235 N 
ATOM      9  HH  ARG D 557     -22.816  -1.314 -16.091  1.00 35.49     0.174 HD
ATOM     10  HH  ARG D 557     -22.527  -2.373 -15.091  1.00 35.49     0.174 HD
ATOM     11  HH  ARG D 557     -25.066  -1.829 -13.137  1.00 35.49     0.174 HD
ATOM     12  HH  ARG D 557     -23.870  -2.693 -13.314  1.00 35.49     0.174 HD
ATOM     13  HE  ARG D 557     -25.606  -0.350 -14.548  1.00 35.49     0.178 HD
ENDBRANCH   4   5
ENDBRANCH   3   4
ENDBRANCH   2   3
ENDBRANCH   1   2
END_RES ARG D 557
BEGIN_RES GLU D 570
REMARK  3 active torsions:
REMARK  status: ('A' for Active; 'I' for Inactive)
REMARK    5  A    between atoms: CA   and  CB  
REMARK    6  A    between atoms: CB   and  CG  
REMARK    7  A    between atoms: CG   and  CD  
ROOT
ATOM     14  CA  GLU D 570     -18.033  -6.348 -13.375  1.00 32.92     0.160 C 
ENDROOT
BRANCH  14  15
ATOM     15  CB  GLU D 570     -19.500  -6.345 -13.794  1.00 32.92     0.043 C 
BRANCH  15  16
ATOM     16  CG  GLU D 570     -20.441  -5.527 -12.986  1.00 32.92     0.100 C 
BRANCH  16  17
ATOM     17  CD  GLU D 570     -21.745  -5.252 -13.699  1.00 32.92     0.185 C 
ATOM     18  OE1 GLU D 570     -22.313  -4.158 -13.520  1.00 32.92    -0.647 OA
ATOM     19  OE2 GLU D 570     -22.211  -6.148 -14.431  1.00 32.92    -0.647 OA
ENDBRANCH  16  17
ENDBRANCH  15  16
ENDBRANCH  14  15
END_RES GLU D 570
ENDMDL
MODEL 8
REMARK VINA RESULT:      -0.8      4.865      4.944
REMARK  3 active torsions:
REMARK  status: ('A' for Active; 'I' for Inactive)
REMARK    1  A    between atoms: C_6  and  N_7 
REMARK    2  A    between atoms: N_9  and  C_11 
REMARK    3  A    between atoms: C_14  and  N_17 
ROOT
HETATM    1 CL   UNL     2     -30.320   2.784 -18.539  1.00  0.00     0.000 Cl
ENDROOT
TORSDOF 3
BEGIN_RES ARG D 557
REMARK  4 active torsions:
REMARK  status: ('A' for Active; 'I' for Inactive)
REMARK    1  A    between atoms: CA   and  CB  
REMARK    2  A    between atoms: CB   and  CG  
REMARK    3  A    between atoms: CG   and  CD  
REMARK    4  A    between atoms: CD   and  NE  
REMARK       I    between atoms: NE   and  CZ  
REMARK       I    between atoms: CZ   and  NH1 
REMARK       I    between atoms: CZ   and  NH2 
ROOT
ATOM      1  CA  ARG D 557     -26.217   2.705 -17.014  1.00 35.49     0.159 C 
ENDROOT
BRANCH   1   2
ATOM      2  CB  ARG D 557     -26.789   1.319 -17.183  1.00 35.49     0.034 C 
BRANCH   2   3
ATOM      3  CG  ARG D 557     -25.933   0.197 -16.778  1.00 35.49     0.027 C 
BRANCH   3   4
ATOM      4  CD  ARG D 557     -26.689  -0.864 -16.075  1.00 35.49     0.116 C 
BRANCH   4   5
ATOM      5  NE  ARG D 557     -25.943  -1.428 -14.981  1.00 35.49    -0.212 N 
ATOM      6  CZ  ARG D 557     -25.913  -2.698 -14.645  1.00 35.49     0.666 C 
ATOM      7  NH1 ARG D 557     -26.601  -3.619 -15.293  1.00 35.49    -0.235 N 
ATOM      8  NH2 ARG D 557     -25.163  -3.034 -13.636  1.00 35.49    -0.235 N 
ATOM      9  HH  ARG D 557     -27.100  -3.420 -15.961  1.00 35.49     0.174 HD
ATOM     10  HH  ARG D 557     -26.541  -4.432 -15.030  1.00 35.49     0.174 HD
ATOM     11  HH  ARG D 557     -24.723  -2.419 -13.241  1.00 35.49     0.174 HD
ATOM     12  HH  ARG D 557     -25.115  -3.845 -13.392  1.00 35.49     0.174 HD
ATOM     13  HE  ARG D 557     -25.527  -0.895 -14.465  1.00 35.49     0.178 HD
ENDBRANCH   4   5
ENDBRANCH   3   4
ENDBRANCH   2   3
ENDBRANCH   1   2
END_RES ARG D 557
BEGIN_RES GLU D 570
REMARK  3 active torsions:
REMARK  status: ('A' for Active; 'I' for Inactive)
REMARK    5  A    between atoms: CA   and  CB  
REMARK    6  A    between atoms: CB   and  CG  
REMARK    7  A    between atoms: CG   and  CD  
ROOT
ATOM     14  CA  GLU D 570     -18.033  -6.348 -13.375  1.00 32.92     0.160 C 
ENDROOT
BRANCH  14  15
ATOM     15  CB  GLU D 570     -19.500  -6.345 -13.794  1.00 32.92     0.043 C 
BRANCH  15  16
ATOM     16  CG  GLU D 570     -20.450  -5.568 -12.956  1.00 32.92     0.100 C 
BRANCH  16  17
ATOM     17  CD  GLU D 570     -21.690  -5.145 -13.708  1.00 32.92     0.185 C 
ATOM     18  OE1 GLU D 570     -21.662  -5.117 -14.954  1.00 32.92    -0.647 OA
ATOM     19  OE2 GLU D 570     -22.695  -4.823 -13.045  1.00 32.92    -0.647 OA
ENDBRANCH  16  17
ENDBRANCH  15  16
ENDBRANCH  14  15
END_RES GLU D 570
ENDMDL
MODEL 9
REMARK VINA RESULT:      -0.8      3.037      3.132
REMARK  3 active torsions:
REMARK  status: ('A' for Active; 'I' for Inactive)
REMARK    1  A    between atoms: C_6  and  N_7 
REMARK    2  A    between atoms: N_9  and  C_11 
REMARK    3  A    between atoms: C_14  and  N_17 
ROOT
HETATM    1 CL   UNL     2     -34.845  -7.423  -9.792  1.00  0.00     0.000 Cl
ENDROOT
TORSDOF 3
BEGIN_RES ARG D 557
REMARK  4 active torsions:
REMARK  status: ('A' for Active; 'I' for Inactive)
REMARK    1  A    between atoms: CA   and  CB  
REMARK    2  A    between atoms: CB   and  CG  
REMARK    3  A    between atoms: CG   and  CD  
REMARK    4  A    between atoms: CD   and  NE  
REMARK       I    between atoms: NE   and  CZ  
REMARK       I    between atoms: CZ   and  NH1 
REMARK       I    between atoms: CZ   and  NH2 
ROOT
ATOM      1  CA  ARG D 557     -26.217   2.705 -17.014  1.00 35.49     0.159 C 
ENDROOT
BRANCH   1   2
ATOM      2  CB  ARG D 557     -26.789   1.319 -17.183  1.00 35.49     0.034 C 
BRANCH   2   3
ATOM      3  CG  ARG D 557     -25.862   0.195 -17.003  1.00 35.49     0.027 C 
BRANCH   3   4
ATOM      4  CD  ARG D 557     -26.264  -0.695 -15.890  1.00 35.49     0.116 C 
BRANCH   4   5
ATOM      5  NE  ARG D 557     -25.202  -0.887 -14.939  1.00 35.49    -0.212 N 
ATOM      6  CZ  ARG D 557     -24.892  -2.022 -14.351  1.00 35.49     0.666 C 
ATOM      7  NH1 ARG D 557     -25.559  -3.140 -14.572  1.00 35.49    -0.235 N 
ATOM      8  NH2 ARG D 557     -23.883  -2.017 -13.530  1.00 35.49    -0.235 N 
ATOM      9  HH  ARG D 557     -26.225  -3.166 -15.110  1.00 35.49     0.174 HD
ATOM     10  HH  ARG D 557     -25.310  -3.850 -14.163  1.00 35.49     0.174 HD
ATOM     11  HH  ARG D 557     -23.466  -1.282 -13.412  1.00 35.49     0.174 HD
ATOM     12  HH  ARG D 557     -23.651  -2.730 -13.135  1.00 35.49     0.174 HD
ATOM     13  HE  ARG D 557     -24.766  -0.203 -14.683  1.00 35.49     0.178 HD
ENDBRANCH   4   5
ENDBRANCH   3   4
ENDBRANCH   2   3
ENDBRANCH   1   2
END_RES ARG D 557
BEGIN_RES GLU D 570
REMARK  3 active torsions:
REMARK  status: ('A' for Active; 'I' for Inactive)
REMARK    5  A    between atoms: CA   and  CB  
REMARK    6  A    between atoms: CB   and  CG  
REMARK    7  A    between atoms: CG   and  CD  
ROOT
ATOM     14  CA  GLU D 570     -18.033  -6.348 -13.375  1.00 32.92     0.160 C 
ENDROOT
BRANCH  14  15
ATOM     15  CB  GLU D 570     -19.500  -6.345 -13.794  1.00 32.92     0.043 C 
BRANCH  15  16
ATOM     16  CG  GLU D 570     -20.448  -5.558 -12.963  1.00 32.92     0.100 C 
BRANCH  16  17
ATOM     17  CD  GLU D 570     -21.679  -5.125 -13.724  1.00 32.92     0.185 C 
ATOM     18  OE1 GLU D 570     -21.639  -5.084 -14.968  1.00 32.92    -0.647 OA
ATOM     19  OE2 GLU D 570     -22.691  -4.809 -13.067  1.00 32.92    -0.647 OA
ENDBRANCH  16  17
ENDBRANCH  15  16
ENDBRANCH  14  15
END_RES GLU D 570
ENDMDL
