MODEL 1
REMARK VINA RESULT:      -3.9      0.000      0.000
REMARK  4 active torsions:
REMARK  status: ('A' for Active; 'I' for Inactive)
REMARK    1  A    between atoms: C_2  and  C_3 
REMARK    2  A    between atoms: C_2  and  C_5 
REMARK    3  A    between atoms: C_3  and  O_4 
REMARK    4  A    between atoms: C_5  and  O_6 
ROOT
HETATM    1  C   UNL     1     -22.029  -3.793 -10.115  1.00  0.00     0.014 C 
HETATM    2  C   UNL     1     -23.216  -3.650  -9.160  1.00  0.00     0.029 C 
ENDROOT
BRANCH   2   3
HETATM    3  C   UNL     1     -24.508  -4.173  -9.800  1.00  0.00     0.170 C 
BRANCH   3   4
HETATM    4  O   UNL     1     -25.562  -3.229  -9.638  1.00  0.00    -0.400 OA
HETATM    5  H   UNL     1     -25.930  -3.047 -10.520  1.00  0.00     0.209 HD
ENDBRANCH   3   4
ENDBRANCH   2   3
BRANCH   2   6
HETATM    6  C   UNL     1     -22.922  -4.377  -7.846  1.00  0.00     0.170 C 
BRANCH   6   7
HETATM    7  O   UNL     1     -24.047  -4.323  -6.976  1.00  0.00    -0.400 OA
HETATM    8  H   UNL     1     -24.792  -3.954  -7.478  1.00  0.00     0.209 HD
ENDBRANCH   6   7
ENDBRANCH   2   6
TORSDOF 4
BEGIN_RES ARG D 557
REMARK  4 active torsions:
REMARK  status: ('A' for Active; 'I' for Inactive)
REMARK    1  A    between atoms: CA   and  CB  
REMARK    2  A    between atoms: CB   and  CG  
REMARK    3  A    between atoms: CG   and  CD  
REMARK    4  A    between atoms: CD   and  NE  
REMARK       I    between atoms: NE   and  CZ  
REMARK       I    between atoms: CZ   and  NH1 
REMARK       I    between atoms: CZ   and  NH2 
ROOT
ATOM      1  CA  ARG D 557     -26.217   2.705 -17.014  1.00 35.49     0.159 C 
ENDROOT
BRANCH   1   2
ATOM      2  CB  ARG D 557     -26.789   1.319 -17.183  1.00 35.49     0.034 C 
BRANCH   2   3
ATOM      3  CG  ARG D 557     -25.834   0.205 -17.175  1.00 35.49     0.027 C 
BRANCH   3   4
ATOM      4  CD  ARG D 557     -24.739   0.406 -16.199  1.00 35.49     0.116 C 
BRANCH   4   5
ATOM      5  NE  ARG D 557     -24.887  -0.431 -15.037  1.00 35.49    -0.212 N 
ATOM      6  CZ  ARG D 557     -24.073  -1.398 -14.679  1.00 35.49     0.666 C 
ATOM      7  NH1 ARG D 557     -23.004  -1.722 -15.382  1.00 35.49    -0.235 N 
ATOM      8  NH2 ARG D 557     -24.352  -2.041 -13.582  1.00 35.49    -0.235 N 
ATOM      9  HH  ARG D 557     -22.801  -1.311 -16.106  1.00 35.49     0.174 HD
ATOM     10  HH  ARG D 557     -22.508  -2.361 -15.098  1.00 35.49     0.174 HD
ATOM     11  HH  ARG D 557     -25.045  -1.806 -13.145  1.00 35.49     0.174 HD
ATOM     12  HH  ARG D 557     -23.847  -2.669 -13.317  1.00 35.49     0.174 HD
ATOM     13  HE  ARG D 557     -25.589  -0.339 -14.566  1.00 35.49     0.178 HD
ENDBRANCH   4   5
ENDBRANCH   3   4
ENDBRANCH   2   3
ENDBRANCH   1   2
END_RES ARG D 557
BEGIN_RES GLU D 570
REMARK  3 active torsions:
REMARK  status: ('A' for Active; 'I' for Inactive)
REMARK    5  A    between atoms: CA   and  CB  
REMARK    6  A    between atoms: CB   and  CG  
REMARK    7  A    between atoms: CG   and  CD  
ROOT
ATOM     14  CA  GLU D 570     -18.033  -6.348 -13.375  1.00 32.92     0.160 C 
ENDROOT
BRANCH  14  15
ATOM     15  CB  GLU D 570     -19.500  -6.345 -13.794  1.00 32.92     0.043 C 
BRANCH  15  16
ATOM     16  CG  GLU D 570     -20.439  -5.520 -12.991  1.00 32.92     0.100 C 
BRANCH  16  17
ATOM     17  CD  GLU D 570     -21.739  -5.240 -13.709  1.00 32.92     0.185 C 
ATOM     18  OE1 GLU D 570     -22.281  -4.127 -13.568  1.00 32.92    -0.647 OA
ATOM     19  OE2 GLU D 570     -22.229  -6.150 -14.408  1.00 32.92    -0.647 OA
ENDBRANCH  16  17
ENDBRANCH  15  16
ENDBRANCH  14  15
END_RES GLU D 570
ENDMDL
MODEL 2
REMARK VINA RESULT:      -3.9      9.036     11.006
REMARK  4 active torsions:
REMARK  status: ('A' for Active; 'I' for Inactive)
REMARK    1  A    between atoms: C_2  and  C_3 
REMARK    2  A    between atoms: C_2  and  C_5 
REMARK    3  A    between atoms: C_3  and  O_4 
REMARK    4  A    between atoms: C_5  and  O_6 
ROOT
HETATM    1  C   UNL     1     -29.696 -16.766 -21.257  1.00  0.00     0.014 C 
HETATM    2  C   UNL     1     -30.641 -15.645 -20.819  1.00  0.00     0.029 C 
ENDROOT
BRANCH   2   3
HETATM    3  C   UNL     1     -29.861 -14.447 -20.265  1.00  0.00     0.170 C 
BRANCH   3   4
HETATM    4  O   UNL     1     -30.640 -13.748 -19.300  1.00  0.00    -0.400 OA
HETATM    5  H   UNL     1     -31.471 -14.239 -19.183  1.00  0.00     0.209 HD
ENDBRANCH   3   4
ENDBRANCH   2   3
BRANCH   2   6
HETATM    6  C   UNL     1     -31.533 -15.224 -21.989  1.00  0.00     0.170 C 
BRANCH   6   7
HETATM    7  O   UNL     1     -31.460 -13.820 -22.201  1.00  0.00    -0.400 OA
HETATM    8  H   UNL     1     -31.487 -13.387 -21.332  1.00  0.00     0.209 HD
ENDBRANCH   6   7
ENDBRANCH   2   6
TORSDOF 4
BEGIN_RES ARG D 557
REMARK  4 active torsions:
REMARK  status: ('A' for Active; 'I' for Inactive)
REMARK    1  A    between atoms: CA   and  CB  
REMARK    2  A    between atoms: CB   and  CG  
REMARK    3  A    between atoms: CG   and  CD  
REMARK    4  A    between atoms: CD   and  NE  
REMARK       I    between atoms: NE   and  CZ  
REMARK       I    between atoms: CZ   and  NH1 
REMARK       I    between atoms: CZ   and  NH2 
ROOT
ATOM      1  CA  ARG D 557     -26.217   2.705 -17.014  1.00 35.49     0.159 C 
ENDROOT
BRANCH   1   2
ATOM      2  CB  ARG D 557     -26.789   1.319 -17.183  1.00 35.49     0.034 C 
BRANCH   2   3
ATOM      3  CG  ARG D 557     -25.834   0.204 -17.171  1.00 35.49     0.027 C 
BRANCH   3   4
ATOM      4  CD  ARG D 557     -24.738   0.410 -16.196  1.00 35.49     0.116 C 
BRANCH   4   5
ATOM      5  NE  ARG D 557     -24.883  -0.426 -15.033  1.00 35.49    -0.212 N 
ATOM      6  CZ  ARG D 557     -24.069  -1.394 -14.678  1.00 35.49     0.666 C 
ATOM      7  NH1 ARG D 557     -23.004  -1.721 -15.386  1.00 35.49    -0.235 N 
ATOM      8  NH2 ARG D 557     -24.343  -2.036 -13.579  1.00 35.49    -0.235 N 
ATOM      9  HH  ARG D 557     -22.803  -1.311 -16.111  1.00 35.49     0.174 HD
ATOM     10  HH  ARG D 557     -22.508  -2.360 -15.103  1.00 35.49     0.174 HD
ATOM     11  HH  ARG D 557     -25.034  -1.798 -13.139  1.00 35.49     0.174 HD
ATOM     12  HH  ARG D 557     -23.839  -2.664 -13.315  1.00 35.49     0.174 HD
ATOM     13  HE  ARG D 557     -25.582  -0.332 -14.559  1.00 35.49     0.178 HD
ENDBRANCH   4   5
ENDBRANCH   3   4
ENDBRANCH   2   3
ENDBRANCH   1   2
END_RES ARG D 557
BEGIN_RES GLU D 570
REMARK  3 active torsions:
REMARK  status: ('A' for Active; 'I' for Inactive)
REMARK    5  A    between atoms: CA   and  CB  
REMARK    6  A    between atoms: CB   and  CG  
REMARK    7  A    between atoms: CG   and  CD  
ROOT
ATOM     14  CA  GLU D 570     -18.033  -6.348 -13.375  1.00 32.92     0.160 C 
ENDROOT
BRANCH  14  15
ATOM     15  CB  GLU D 570     -19.500  -6.345 -13.794  1.00 32.92     0.043 C 
BRANCH  15  16
ATOM     16  CG  GLU D 570     -20.440  -5.523 -12.989  1.00 32.92     0.100 C 
BRANCH  16  17
ATOM     17  CD  GLU D 570     -21.751  -5.266 -13.695  1.00 32.92     0.185 C 
ATOM     18  OE1 GLU D 570     -22.232  -6.156 -14.422  1.00 32.92    -0.647 OA
ATOM     19  OE2 GLU D 570     -22.295  -4.155 -13.532  1.00 32.92    -0.647 OA
ENDBRANCH  16  17
ENDBRANCH  15  16
ENDBRANCH  14  15
END_RES GLU D 570
ENDMDL
MODEL 3
REMARK VINA RESULT:      -3.8      1.494      1.979
REMARK  4 active torsions:
REMARK  status: ('A' for Active; 'I' for Inactive)
REMARK    1  A    between atoms: C_2  and  C_3 
REMARK    2  A    between atoms: C_2  and  C_5 
REMARK    3  A    between atoms: C_3  and  O_4 
REMARK    4  A    between atoms: C_5  and  O_6 
ROOT
HETATM    1  C   UNL     1     -23.023  -4.269  -8.041  1.00  0.00     0.014 C 
HETATM    2  C   UNL     1     -23.109  -4.207  -9.567  1.00  0.00     0.029 C 
ENDROOT
BRANCH   2   3
HETATM    3  C   UNL     1     -24.288  -3.336 -10.021  1.00  0.00     0.170 C 
BRANCH   3   4
HETATM    4  O   UNL     1     -24.656  -3.655 -11.359  1.00  0.00    -0.400 OA
HETATM    5  H   UNL     1     -25.610  -3.487 -11.448  1.00  0.00     0.209 HD
ENDBRANCH   3   4
ENDBRANCH   2   3
BRANCH   2   6
HETATM    6  C   UNL     1     -21.791  -3.689 -10.147  1.00  0.00     0.170 C 
BRANCH   6   7
HETATM    7  O   UNL     1     -22.029  -2.802 -11.232  1.00  0.00    -0.400 OA
HETATM    8  H   UNL     1     -21.339  -2.956 -11.898  1.00  0.00     0.209 HD
ENDBRANCH   6   7
ENDBRANCH   2   6
TORSDOF 4
BEGIN_RES ARG D 557
REMARK  4 active torsions:
REMARK  status: ('A' for Active; 'I' for Inactive)
REMARK    1  A    between atoms: CA   and  CB  
REMARK    2  A    between atoms: CB   and  CG  
REMARK    3  A    between atoms: CG   and  CD  
REMARK    4  A    between atoms: CD   and  NE  
REMARK       I    between atoms: NE   and  CZ  
REMARK       I    between atoms: CZ   and  NH1 
REMARK       I    between atoms: CZ   and  NH2 
ROOT
ATOM      1  CA  ARG D 557     -26.217   2.705 -17.014  1.00 35.49     0.159 C 
ENDROOT
BRANCH   1   2
ATOM      2  CB  ARG D 557     -26.789   1.319 -17.183  1.00 35.49     0.034 C 
BRANCH   2   3
ATOM      3  CG  ARG D 557     -25.855   0.196 -17.036  1.00 35.49     0.027 C 
BRANCH   3   4
ATOM      4  CD  ARG D 557     -26.196  -0.675 -15.888  1.00 35.49     0.116 C 
BRANCH   4   5
ATOM      5  NE  ARG D 557     -25.097  -0.817 -14.970  1.00 35.49    -0.212 N 
ATOM      6  CZ  ARG D 557     -24.746  -1.926 -14.358  1.00 35.49     0.666 C 
ATOM      7  NH1 ARG D 557     -25.399  -3.062 -14.519  1.00 35.49    -0.235 N 
ATOM      8  NH2 ARG D 557     -23.708  -1.877 -13.575  1.00 35.49    -0.235 N 
ATOM      9  HH  ARG D 557     -26.084  -3.118 -15.031  1.00 35.49     0.174 HD
ATOM     10  HH  ARG D 557     -25.123  -3.754 -14.096  1.00 35.49     0.174 HD
ATOM     11  HH  ARG D 557     -23.301  -1.132 -13.496  1.00 35.49     0.174 HD
ATOM     12  HH  ARG D 557     -23.449  -2.573 -13.166  1.00 35.49     0.174 HD
ATOM     13  HE  ARG D 557     -24.665  -0.118 -14.752  1.00 35.49     0.178 HD
ENDBRANCH   4   5
ENDBRANCH   3   4
ENDBRANCH   2   3
ENDBRANCH   1   2
END_RES ARG D 557
BEGIN_RES GLU D 570
REMARK  3 active torsions:
REMARK  status: ('A' for Active; 'I' for Inactive)
REMARK    5  A    between atoms: CA   and  CB  
REMARK    6  A    between atoms: CB   and  CG  
REMARK    7  A    between atoms: CG   and  CD  
ROOT
ATOM     14  CA  GLU D 570     -18.033  -6.348 -13.375  1.00 32.92     0.160 C 
ENDROOT
BRANCH  14  15
ATOM     15  CB  GLU D 570     -19.500  -6.345 -13.794  1.00 32.92     0.043 C 
BRANCH  15  16
ATOM     16  CG  GLU D 570     -20.421  -5.443 -13.055  1.00 32.92     0.100 C 
BRANCH  16  17
ATOM     17  CD  GLU D 570     -21.635  -5.049 -13.865  1.00 32.92     0.185 C 
ATOM     18  OE1 GLU D 570     -21.544  -4.999 -15.106  1.00 32.92    -0.647 OA
ATOM     19  OE2 GLU D 570     -22.682  -4.770 -13.249  1.00 32.92    -0.647 OA
ENDBRANCH  16  17
ENDBRANCH  15  16
ENDBRANCH  14  15
END_RES GLU D 570
ENDMDL
MODEL 4
REMARK VINA RESULT:      -3.7      2.037      2.685
REMARK  4 active torsions:
REMARK  status: ('A' for Active; 'I' for Inactive)
REMARK    1  A    between atoms: C_2  and  C_3 
REMARK    2  A    between atoms: C_2  and  C_5 
REMARK    3  A    between atoms: C_3  and  O_4 
REMARK    4  A    between atoms: C_5  and  O_6 
ROOT
HETATM    1  C   UNL     1     -22.594  -3.854  -8.832  1.00  0.00     0.014 C 
HETATM    2  C   UNL     1     -22.679  -3.735 -10.355  1.00  0.00     0.029 C 
ENDROOT
BRANCH   2   3
HETATM    3  C   UNL     1     -21.291  -3.842 -10.999  1.00  0.00     0.170 C 
BRANCH   3   4
HETATM    4  O   UNL     1     -21.275  -3.186 -12.262  1.00  0.00    -0.400 OA
HETATM    5  H   UNL     1     -21.023  -2.259 -12.108  1.00  0.00     0.209 HD
ENDBRANCH   3   4
ENDBRANCH   2   3
BRANCH   2   6
HETATM    6  C   UNL     1     -23.625  -4.801 -10.913  1.00  0.00     0.170 C 
BRANCH   6   7
HETATM    7  O   UNL     1     -23.759  -4.671 -12.322  1.00  0.00    -0.400 OA
HETATM    8  H   UNL     1     -24.677  -4.420 -12.511  1.00  0.00     0.209 HD
ENDBRANCH   6   7
ENDBRANCH   2   6
TORSDOF 4
BEGIN_RES ARG D 557
REMARK  4 active torsions:
REMARK  status: ('A' for Active; 'I' for Inactive)
REMARK    1  A    between atoms: CA   and  CB  
REMARK    2  A    between atoms: CB   and  CG  
REMARK    3  A    between atoms: CG   and  CD  
REMARK    4  A    between atoms: CD   and  NE  
REMARK       I    between atoms: NE   and  CZ  
REMARK       I    between atoms: CZ   and  NH1 
REMARK       I    between atoms: CZ   and  NH2 
ROOT
ATOM      1  CA  ARG D 557     -26.217   2.705 -17.014  1.00 35.49     0.159 C 
ENDROOT
BRANCH   1   2
ATOM      2  CB  ARG D 557     -26.789   1.319 -17.183  1.00 35.49     0.034 C 
BRANCH   2   3
ATOM      3  CG  ARG D 557     -25.860   0.195 -17.013  1.00 35.49     0.027 C 
BRANCH   3   4
ATOM      4  CD  ARG D 557     -26.243  -0.689 -15.889  1.00 35.49     0.116 C 
BRANCH   4   5
ATOM      5  NE  ARG D 557     -25.172  -0.861 -14.944  1.00 35.49    -0.212 N 
ATOM      6  CZ  ARG D 557     -24.848  -1.986 -14.346  1.00 35.49     0.666 C 
ATOM      7  NH1 ARG D 557     -25.507  -3.112 -14.548  1.00 35.49    -0.235 N 
ATOM      8  NH2 ARG D 557     -23.832  -1.963 -13.533  1.00 35.49    -0.235 N 
ATOM      9  HH  ARG D 557     -26.178  -3.150 -15.080  1.00 35.49     0.174 HD
ATOM     10  HH  ARG D 557     -25.249  -3.815 -14.132  1.00 35.49     0.174 HD
ATOM     11  HH  ARG D 557     -23.421  -1.223 -13.428  1.00 35.49     0.174 HD
ATOM     12  HH  ARG D 557     -23.591  -2.670 -13.132  1.00 35.49     0.174 HD
ATOM     13  HE  ARG D 557     -24.740  -0.170 -14.700  1.00 35.49     0.178 HD
ENDBRANCH   4   5
ENDBRANCH   3   4
ENDBRANCH   2   3
ENDBRANCH   1   2
END_RES ARG D 557
BEGIN_RES GLU D 570
REMARK  3 active torsions:
REMARK  status: ('A' for Active; 'I' for Inactive)
REMARK    5  A    between atoms: CA   and  CB  
REMARK    6  A    between atoms: CB   and  CG  
REMARK    7  A    between atoms: CG   and  CD  
ROOT
ATOM     14  CA  GLU D 570     -18.033  -6.348 -13.375  1.00 32.92     0.160 C 
ENDROOT
BRANCH  14  15
ATOM     15  CB  GLU D 570     -19.500  -6.345 -13.794  1.00 32.92     0.043 C 
BRANCH  15  16
ATOM     16  CG  GLU D 570     -19.801  -6.108 -15.229  1.00 32.92     0.100 C 
BRANCH  16  17
ATOM     17  CD  GLU D 570     -21.104  -5.373 -15.445  1.00 32.92     0.185 C 
ATOM     18  OE1 GLU D 570     -21.465  -5.110 -16.608  1.00 32.92    -0.647 OA
ATOM     19  OE2 GLU D 570     -21.762  -5.042 -14.439  1.00 32.92    -0.647 OA
ENDBRANCH  16  17
ENDBRANCH  15  16
ENDBRANCH  14  15
END_RES GLU D 570
ENDMDL
MODEL 5
REMARK VINA RESULT:      -3.7      3.694      4.423
REMARK  4 active torsions:
REMARK  status: ('A' for Active; 'I' for Inactive)
REMARK    1  A    between atoms: C_2  and  C_3 
REMARK    2  A    between atoms: C_2  and  C_5 
REMARK    3  A    between atoms: C_3  and  O_4 
REMARK    4  A    between atoms: C_5  and  O_6 
ROOT
HETATM    1  C   UNL     1     -22.651  -2.562 -12.301  1.00  0.00     0.014 C 
HETATM    2  C   UNL     1     -23.754  -2.797 -13.334  1.00  0.00     0.029 C 
ENDROOT
BRANCH   2   3
HETATM    3  C   UNL     1     -23.462  -2.045 -14.638  1.00  0.00     0.170 C 
BRANCH   3   4
HETATM    4  O   UNL     1     -22.340  -2.616 -15.304  1.00  0.00    -0.400 OA
HETATM    5  H   UNL     1     -22.423  -2.406 -16.250  1.00  0.00     0.209 HD
ENDBRANCH   3   4
ENDBRANCH   2   3
BRANCH   2   6
HETATM    6  C   UNL     1     -23.920  -4.297 -13.592  1.00  0.00     0.170 C 
BRANCH   6   7
HETATM    7  O   UNL     1     -24.266  -4.541 -14.950  1.00  0.00    -0.400 OA
HETATM    8  H   UNL     1     -23.582  -4.136 -15.508  1.00  0.00     0.209 HD
ENDBRANCH   6   7
ENDBRANCH   2   6
TORSDOF 4
BEGIN_RES ARG D 557
REMARK  4 active torsions:
REMARK  status: ('A' for Active; 'I' for Inactive)
REMARK    1  A    between atoms: CA   and  CB  
REMARK    2  A    between atoms: CB   and  CG  
REMARK    3  A    between atoms: CG   and  CD  
REMARK    4  A    between atoms: CD   and  NE  
REMARK       I    between atoms: NE   and  CZ  
REMARK       I    between atoms: CZ   and  NH1 
REMARK       I    between atoms: CZ   and  NH2 
ROOT
ATOM      1  CA  ARG D 557     -26.217   2.705 -17.014  1.00 35.49     0.159 C 
ENDROOT
BRANCH   1   2
ATOM      2  CB  ARG D 557     -26.789   1.319 -17.183  1.00 35.49     0.034 C 
BRANCH   2   3
ATOM      3  CG  ARG D 557     -28.229   1.164 -16.941  1.00 35.49     0.027 C 
BRANCH   3   4
ATOM      4  CD  ARG D 557     -28.647  -0.256 -16.915  1.00 35.49     0.116 C 
BRANCH   4   5
ATOM      5  NE  ARG D 557     -27.708  -1.085 -16.206  1.00 35.49    -0.212 N 
ATOM      6  CZ  ARG D 557     -27.635  -2.395 -16.276  1.00 35.49     0.666 C 
ATOM      7  NH1 ARG D 557     -28.455  -3.113 -17.022  1.00 35.49    -0.235 N 
ATOM      8  NH2 ARG D 557     -26.706  -2.983 -15.579  1.00 35.49    -0.235 N 
ATOM      9  HH  ARG D 557     -29.073  -2.747 -17.490  1.00 35.49     0.174 HD
ATOM     10  HH  ARG D 557     -28.358  -3.964 -17.030  1.00 35.49     0.174 HD
ATOM     11  HH  ARG D 557     -26.186  -2.494 -15.113  1.00 35.49     0.174 HD
ATOM     12  HH  ARG D 557     -26.625  -3.827 -15.602  1.00 35.49     0.174 HD
ATOM     13  HE  ARG D 557     -27.189  -0.711 -15.646  1.00 35.49     0.178 HD
ENDBRANCH   4   5
ENDBRANCH   3   4
ENDBRANCH   2   3
ENDBRANCH   1   2
END_RES ARG D 557
BEGIN_RES GLU D 570
REMARK  3 active torsions:
REMARK  status: ('A' for Active; 'I' for Inactive)
REMARK    5  A    between atoms: CA   and  CB  
REMARK    6  A    between atoms: CB   and  CG  
REMARK    7  A    between atoms: CG   and  CD  
ROOT
ATOM     14  CA  GLU D 570     -18.033  -6.348 -13.375  1.00 32.92     0.160 C 
ENDROOT
BRANCH  14  15
ATOM     15  CB  GLU D 570     -19.500  -6.345 -13.794  1.00 32.92     0.043 C 
BRANCH  15  16
ATOM     16  CG  GLU D 570     -19.797  -6.266 -15.248  1.00 32.92     0.100 C 
BRANCH  16  17
ATOM     17  CD  GLU D 570     -21.262  -6.044 -15.539  1.00 32.92     0.185 C 
ATOM     18  OE1 GLU D 570     -22.104  -6.802 -15.019  1.00 32.92    -0.647 OA
ATOM     19  OE2 GLU D 570     -21.571  -5.114 -16.309  1.00 32.92    -0.647 OA
ENDBRANCH  16  17
ENDBRANCH  15  16
ENDBRANCH  14  15
END_RES GLU D 570
ENDMDL
MODEL 6
REMARK VINA RESULT:      -3.5      1.787      2.156
REMARK  4 active torsions:
REMARK  status: ('A' for Active; 'I' for Inactive)
REMARK    1  A    between atoms: C_2  and  C_3 
REMARK    2  A    between atoms: C_2  and  C_5 
REMARK    3  A    between atoms: C_3  and  O_4 
REMARK    4  A    between atoms: C_5  and  O_6 
ROOT
HETATM    1  C   UNL     1     -21.450  -4.047 -10.857  1.00  0.00     0.014 C 
HETATM    2  C   UNL     1     -22.764  -3.634 -10.192  1.00  0.00     0.029 C 
ENDROOT
BRANCH   2   3
HETATM    3  C   UNL     1     -23.972  -4.194 -10.953  1.00  0.00     0.170 C 
BRANCH   3   4
HETATM    4  O   UNL     1     -25.017  -3.229 -11.011  1.00  0.00    -0.400 OA
HETATM    5  H   UNL     1     -24.621  -2.385 -11.288  1.00  0.00     0.209 HD
ENDBRANCH   3   4
ENDBRANCH   2   3
BRANCH   2   6
HETATM    6  C   UNL     1     -22.779  -4.090  -8.730  1.00  0.00     0.170 C 
BRANCH   6   7
HETATM    7  O   UNL     1     -24.063  -3.893  -8.152  1.00  0.00    -0.400 OA
HETATM    8  H   UNL     1     -24.728  -4.143  -8.815  1.00  0.00     0.209 HD
ENDBRANCH   6   7
ENDBRANCH   2   6
TORSDOF 4
BEGIN_RES ARG D 557
REMARK  4 active torsions:
REMARK  status: ('A' for Active; 'I' for Inactive)
REMARK    1  A    between atoms: CA   and  CB  
REMARK    2  A    between atoms: CB   and  CG  
REMARK    3  A    between atoms: CG   and  CD  
REMARK    4  A    between atoms: CD   and  NE  
REMARK       I    between atoms: NE   and  CZ  
REMARK       I    between atoms: CZ   and  NH1 
REMARK       I    between atoms: CZ   and  NH2 
ROOT
ATOM      1  CA  ARG D 557     -26.217   2.705 -17.014  1.00 35.49     0.159 C 
ENDROOT
BRANCH   1   2
ATOM      2  CB  ARG D 557     -26.789   1.319 -17.183  1.00 35.49     0.034 C 
BRANCH   2   3
ATOM      3  CG  ARG D 557     -25.857   0.196 -17.026  1.00 35.49     0.027 C 
BRANCH   3   4
ATOM      4  CD  ARG D 557     -26.191  -0.657 -15.863  1.00 35.49     0.116 C 
BRANCH   4   5
ATOM      5  NE  ARG D 557     -25.062  -0.854 -14.993  1.00 35.49    -0.212 N 
ATOM      6  CZ  ARG D 557     -24.842  -1.915 -14.248  1.00 35.49     0.666 C 
ATOM      7  NH1 ARG D 557     -25.674  -2.939 -14.210  1.00 35.49    -0.235 N 
ATOM      8  NH2 ARG D 557     -23.754  -1.933 -13.535  1.00 35.49    -0.235 N 
ATOM      9  HH  ARG D 557     -26.396  -2.950 -14.672  1.00 35.49     0.174 HD
ATOM     10  HH  ARG D 557     -25.478  -3.605 -13.707  1.00 35.49     0.174 HD
ATOM     11  HH  ARG D 557     -23.231  -1.260 -13.586  1.00 35.49     0.174 HD
ATOM     12  HH  ARG D 557     -23.576  -2.602 -13.045  1.00 35.49     0.174 HD
ATOM     13  HE  ARG D 557     -24.512  -0.212 -14.900  1.00 35.49     0.178 HD
ENDBRANCH   4   5
ENDBRANCH   3   4
ENDBRANCH   2   3
ENDBRANCH   1   2
END_RES ARG D 557
BEGIN_RES GLU D 570
REMARK  3 active torsions:
REMARK  status: ('A' for Active; 'I' for Inactive)
REMARK    5  A    between atoms: CA   and  CB  
REMARK    6  A    between atoms: CB   and  CG  
REMARK    7  A    between atoms: CG   and  CD  
ROOT
ATOM     14  CA  GLU D 570     -18.033  -6.348 -13.375  1.00 32.92     0.160 C 
ENDROOT
BRANCH  14  15
ATOM     15  CB  GLU D 570     -19.500  -6.345 -13.794  1.00 32.92     0.043 C 
BRANCH  15  16
ATOM     16  CG  GLU D 570     -20.095  -7.641 -14.211  1.00 32.92     0.100 C 
BRANCH  16  17
ATOM     17  CD  GLU D 570     -20.649  -7.610 -15.617  1.00 32.92     0.185 C 
ATOM     18  OE1 GLU D 570     -21.161  -8.643 -16.089  1.00 32.92    -0.647 OA
ATOM     19  OE2 GLU D 570     -20.554  -6.545 -16.259  1.00 32.92    -0.647 OA
ENDBRANCH  16  17
ENDBRANCH  15  16
ENDBRANCH  14  15
END_RES GLU D 570
ENDMDL
MODEL 7
REMARK VINA RESULT:      -3.5      2.443      3.147
REMARK  4 active torsions:
REMARK  status: ('A' for Active; 'I' for Inactive)
REMARK    1  A    between atoms: C_2  and  C_3 
REMARK    2  A    between atoms: C_2  and  C_5 
REMARK    3  A    between atoms: C_3  and  O_4 
REMARK    4  A    between atoms: C_5  and  O_6 
ROOT
HETATM    1  C   UNL     1     -22.240  -4.043 -10.443  1.00  0.00     0.014 C 
HETATM    2  C   UNL     1     -23.724  -3.847 -10.760  1.00  0.00     0.029 C 
ENDROOT
BRANCH   2   3
HETATM    3  C   UNL     1     -24.486  -3.314  -9.541  1.00  0.00     0.170 C 
BRANCH   3   4
HETATM    4  O   UNL     1     -25.887  -3.292  -9.797  1.00  0.00    -0.400 OA
HETATM    5  H   UNL     1     -26.007  -3.230 -10.760  1.00  0.00     0.209 HD
ENDBRANCH   3   4
ENDBRANCH   2   3
BRANCH   2   6
HETATM    6  C   UNL     1     -23.886  -2.912 -11.960  1.00  0.00     0.170 C 
BRANCH   6   7
HETATM    7  O   UNL     1     -25.127  -3.141 -12.616  1.00  0.00    -0.400 OA
HETATM    8  H   UNL     1     -25.834  -3.028 -11.961  1.00  0.00     0.209 HD
ENDBRANCH   6   7
ENDBRANCH   2   6
TORSDOF 4
BEGIN_RES ARG D 557
REMARK  4 active torsions:
REMARK  status: ('A' for Active; 'I' for Inactive)
REMARK    1  A    between atoms: CA   and  CB  
REMARK    2  A    between atoms: CB   and  CG  
REMARK    3  A    between atoms: CG   and  CD  
REMARK    4  A    between atoms: CD   and  NE  
REMARK       I    between atoms: NE   and  CZ  
REMARK       I    between atoms: CZ   and  NH1 
REMARK       I    between atoms: CZ   and  NH2 
ROOT
ATOM      1  CA  ARG D 557     -26.217   2.705 -17.014  1.00 35.49     0.159 C 
ENDROOT
BRANCH   1   2
ATOM      2  CB  ARG D 557     -26.789   1.319 -17.183  1.00 35.49     0.034 C 
BRANCH   2   3
ATOM      3  CG  ARG D 557     -28.227   1.163 -16.934  1.00 35.49     0.027 C 
BRANCH   3   4
ATOM      4  CD  ARG D 557     -28.608  -0.247 -16.691  1.00 35.49     0.116 C 
BRANCH   4   5
ATOM      5  NE  ARG D 557     -27.585  -0.971 -15.983  1.00 35.49    -0.212 N 
ATOM      6  CZ  ARG D 557     -27.379  -2.268 -16.045  1.00 35.49     0.666 C 
ATOM      7  NH1 ARG D 557     -28.127  -3.070 -16.779  1.00 35.49    -0.235 N 
ATOM      8  NH2 ARG D 557     -26.390  -2.752 -15.351  1.00 35.49    -0.235 N 
ATOM      9  HH  ARG D 557     -28.782  -2.773 -17.245  1.00 35.49     0.174 HD
ATOM     10  HH  ARG D 557     -27.944  -3.907 -16.782  1.00 35.49     0.174 HD
ATOM     11  HH  ARG D 557     -25.920  -2.209 -14.892  1.00 35.49     0.174 HD
ATOM     12  HH  ARG D 557     -26.224  -3.583 -15.368  1.00 35.49     0.174 HD
ATOM     13  HE  ARG D 557     -27.103  -0.542 -15.430  1.00 35.49     0.178 HD
ENDBRANCH   4   5
ENDBRANCH   3   4
ENDBRANCH   2   3
ENDBRANCH   1   2
END_RES ARG D 557
BEGIN_RES GLU D 570
REMARK  3 active torsions:
REMARK  status: ('A' for Active; 'I' for Inactive)
REMARK    5  A    between atoms: CA   and  CB  
REMARK    6  A    between atoms: CB   and  CG  
REMARK    7  A    between atoms: CG   and  CD  
ROOT
ATOM     14  CA  GLU D 570     -18.033  -6.348 -13.375  1.00 32.92     0.160 C 
ENDROOT
BRANCH  14  15
ATOM     15  CB  GLU D 570     -19.500  -6.345 -13.794  1.00 32.92     0.043 C 
BRANCH  15  16
ATOM     16  CG  GLU D 570     -19.804  -6.059 -15.220  1.00 32.92     0.100 C 
BRANCH  16  17
ATOM     17  CD  GLU D 570     -21.261  -5.737 -15.459  1.00 32.92     0.185 C 
ATOM     18  OE1 GLU D 570     -21.558  -4.862 -16.295  1.00 32.92    -0.647 OA
ATOM     19  OE2 GLU D 570     -22.113  -6.354 -14.791  1.00 32.92    -0.647 OA
ENDBRANCH  16  17
ENDBRANCH  15  16
ENDBRANCH  14  15
END_RES GLU D 570
ENDMDL
MODEL 8
REMARK VINA RESULT:      -3.5      9.146     11.049
REMARK  4 active torsions:
REMARK  status: ('A' for Active; 'I' for Inactive)
REMARK    1  A    between atoms: C_2  and  C_3 
REMARK    2  A    between atoms: C_2  and  C_5 
REMARK    3  A    between atoms: C_3  and  O_4 
REMARK    4  A    between atoms: C_5  and  O_6 
ROOT
HETATM    1  C   UNL     1     -29.535 -16.675 -21.399  1.00  0.00     0.014 C 
HETATM    2  C   UNL     1     -29.964 -15.212 -21.532  1.00  0.00     0.029 C 
ENDROOT
BRANCH   2   3
HETATM    3  C   UNL     1     -31.432 -15.101 -21.961  1.00  0.00     0.170 C 
BRANCH   3   4
HETATM    4  O   UNL     1     -31.699 -13.808 -22.495  1.00  0.00    -0.400 OA
HETATM    5  H   UNL     1     -31.645 -13.171 -21.761  1.00  0.00     0.209 HD
ENDBRANCH   3   4
ENDBRANCH   2   3
BRANCH   2   6
HETATM    6  C   UNL     1     -29.720 -14.472 -20.214  1.00  0.00     0.170 C 
BRANCH   6   7
HETATM    7  O   UNL     1     -30.950 -14.183 -19.562  1.00  0.00    -0.400 OA
HETATM    8  H   UNL     1     -30.931 -13.250 -19.292  1.00  0.00     0.209 HD
ENDBRANCH   6   7
ENDBRANCH   2   6
TORSDOF 4
BEGIN_RES ARG D 557
REMARK  4 active torsions:
REMARK  status: ('A' for Active; 'I' for Inactive)
REMARK    1  A    between atoms: CA   and  CB  
REMARK    2  A    between atoms: CB   and  CG  
REMARK    3  A    between atoms: CG   and  CD  
REMARK    4  A    between atoms: CD   and  NE  
REMARK       I    between atoms: NE   and  CZ  
REMARK       I    between atoms: CZ   and  NH1 
REMARK       I    between atoms: CZ   and  NH2 
ROOT
ATOM      1  CA  ARG D 557     -26.217   2.705 -17.014  1.00 35.49     0.159 C 
ENDROOT
BRANCH   1   2
ATOM      2  CB  ARG D 557     -26.789   1.319 -17.183  1.00 35.49     0.034 C 
BRANCH   2   3
ATOM      3  CG  ARG D 557     -25.941   0.198 -16.760  1.00 35.49     0.027 C 
BRANCH   3   4
ATOM      4  CD  ARG D 557     -26.720  -0.897 -16.140  1.00 35.49     0.116 C 
BRANCH   4   5
ATOM      5  NE  ARG D 557     -26.015  -1.513 -15.046  1.00 35.49    -0.212 N 
ATOM      6  CZ  ARG D 557     -26.052  -2.788 -14.730  1.00 35.49     0.666 C 
ATOM      7  NH1 ARG D 557     -26.778  -3.664 -15.399  1.00 35.49    -0.235 N 
ATOM      8  NH2 ARG D 557     -25.331  -3.176 -13.718  1.00 35.49    -0.235 N 
ATOM      9  HH  ARG D 557     -27.258  -3.431 -16.070  1.00 35.49     0.174 HD
ATOM     10  HH  ARG D 557     -26.760  -4.483 -15.148  1.00 35.49     0.174 HD
ATOM     11  HH  ARG D 557     -24.866  -2.589 -13.309  1.00 35.49     0.174 HD
ATOM     12  HH  ARG D 557     -25.326  -3.992 -13.486  1.00 35.49     0.174 HD
ATOM     13  HE  ARG D 557     -25.580  -1.009 -14.518  1.00 35.49     0.178 HD
ENDBRANCH   4   5
ENDBRANCH   3   4
ENDBRANCH   2   3
ENDBRANCH   1   2
END_RES ARG D 557
BEGIN_RES GLU D 570
REMARK  3 active torsions:
REMARK  status: ('A' for Active; 'I' for Inactive)
REMARK    5  A    between atoms: CA   and  CB  
REMARK    6  A    between atoms: CB   and  CG  
REMARK    7  A    between atoms: CG   and  CD  
ROOT
ATOM     14  CA  GLU D 570     -18.033  -6.348 -13.375  1.00 32.92     0.160 C 
ENDROOT
BRANCH  14  15
ATOM     15  CB  GLU D 570     -19.500  -6.345 -13.794  1.00 32.92     0.043 C 
BRANCH  15  16
ATOM     16  CG  GLU D 570     -20.448  -5.558 -12.963  1.00 32.92     0.100 C 
BRANCH  16  17
ATOM     17  CD  GLU D 570     -21.702  -5.167 -13.710  1.00 32.92     0.185 C 
ATOM     18  OE1 GLU D 570     -22.721  -4.860 -13.062  1.00 32.92    -0.647 OA
ATOM     19  OE2 GLU D 570     -21.669  -5.184 -14.956  1.00 32.92    -0.647 OA
ENDBRANCH  16  17
ENDBRANCH  15  16
ENDBRANCH  14  15
END_RES GLU D 570
ENDMDL
MODEL 9
REMARK VINA RESULT:      -3.5      4.626      6.642
REMARK  4 active torsions:
REMARK  status: ('A' for Active; 'I' for Inactive)
REMARK    1  A    between atoms: C_2  and  C_3 
REMARK    2  A    between atoms: C_2  and  C_5 
REMARK    3  A    between atoms: C_3  and  O_4 
REMARK    4  A    between atoms: C_5  and  O_6 
ROOT
HETATM    1  C   UNL     1     -28.385  -5.638 -18.521  1.00  0.00     0.014 C 
HETATM    2  C   UNL     1     -29.730  -5.125 -18.001  1.00  0.00     0.029 C 
ENDROOT
BRANCH   2   3
HETATM    3  C   UNL     1     -30.239  -5.984 -16.837  1.00  0.00     0.170 C 
BRANCH   3   4
HETATM    4  O   UNL     1     -31.135  -5.238 -16.020  1.00  0.00    -0.400 OA
HETATM    5  H   UNL     1     -31.952  -5.103 -16.530  1.00  0.00     0.209 HD
ENDBRANCH   3   4
ENDBRANCH   2   3
BRANCH   2   6
HETATM    6  C   UNL     1     -29.607  -3.657 -17.586  1.00  0.00     0.170 C 
BRANCH   6   7
HETATM    7  O   UNL     1     -30.789  -2.938 -17.914  1.00  0.00    -0.400 OA
HETATM    8  H   UNL     1     -30.990  -2.344 -17.172  1.00  0.00     0.209 HD
ENDBRANCH   6   7
ENDBRANCH   2   6
TORSDOF 4
BEGIN_RES ARG D 557
REMARK  4 active torsions:
REMARK  status: ('A' for Active; 'I' for Inactive)
REMARK    1  A    between atoms: CA   and  CB  
REMARK    2  A    between atoms: CB   and  CG  
REMARK    3  A    between atoms: CG   and  CD  
REMARK    4  A    between atoms: CD   and  NE  
REMARK       I    between atoms: NE   and  CZ  
REMARK       I    between atoms: CZ   and  NH1 
REMARK       I    between atoms: CZ   and  NH2 
ROOT
ATOM      1  CA  ARG D 557     -26.217   2.705 -17.014  1.00 35.49     0.159 C 
ENDROOT
BRANCH   1   2
ATOM      2  CB  ARG D 557     -26.789   1.319 -17.183  1.00 35.49     0.034 C 
BRANCH   2   3
ATOM      3  CG  ARG D 557     -25.835   0.204 -17.166  1.00 35.49     0.027 C 
BRANCH   3   4
ATOM      4  CD  ARG D 557     -24.743   0.410 -16.187  1.00 35.49     0.116 C 
BRANCH   4   5
ATOM      5  NE  ARG D 557     -24.890  -0.429 -15.027  1.00 35.49    -0.212 N 
ATOM      6  CZ  ARG D 557     -24.078  -1.400 -14.674  1.00 35.49     0.666 C 
ATOM      7  NH1 ARG D 557     -23.012  -1.726 -15.381  1.00 35.49    -0.235 N 
ATOM      8  NH2 ARG D 557     -24.354  -2.045 -13.577  1.00 35.49    -0.235 N 
ATOM      9  HH  ARG D 557     -22.810  -1.314 -16.105  1.00 35.49     0.174 HD
ATOM     10  HH  ARG D 557     -22.517  -2.367 -15.100  1.00 35.49     0.174 HD
ATOM     11  HH  ARG D 557     -25.045  -1.808 -13.137  1.00 35.49     0.174 HD
ATOM     12  HH  ARG D 557     -23.851  -2.675 -13.315  1.00 35.49     0.174 HD
ATOM     13  HE  ARG D 557     -25.590  -0.337 -14.553  1.00 35.49     0.178 HD
ENDBRANCH   4   5
ENDBRANCH   3   4
ENDBRANCH   2   3
ENDBRANCH   1   2
END_RES ARG D 557
BEGIN_RES GLU D 570
REMARK  3 active torsions:
REMARK  status: ('A' for Active; 'I' for Inactive)
REMARK    5  A    between atoms: CA   and  CB  
REMARK    6  A    between atoms: CB   and  CG  
REMARK    7  A    between atoms: CG   and  CD  
ROOT
ATOM     14  CA  GLU D 570     -18.033  -6.348 -13.375  1.00 32.92     0.160 C 
ENDROOT
BRANCH  14  15
ATOM     15  CB  GLU D 570     -19.500  -6.345 -13.794  1.00 32.92     0.043 C 
BRANCH  15  16
ATOM     16  CG  GLU D 570     -20.442  -5.531 -12.983  1.00 32.92     0.100 C 
BRANCH  16  17
ATOM     17  CD  GLU D 570     -21.738  -5.239 -13.703  1.00 32.92     0.185 C 
ATOM     18  OE1 GLU D 570     -22.299  -4.141 -13.518  1.00 32.92    -0.647 OA
ATOM     19  OE2 GLU D 570     -22.207  -6.124 -14.445  1.00 32.92    -0.647 OA
ENDBRANCH  16  17
ENDBRANCH  15  16
ENDBRANCH  14  15
END_RES GLU D 570
ENDMDL
