MODEL 1
REMARK VINA RESULT:      -1.2      0.000      0.000
REMARK  20 active torsions:
REMARK  status: ('A' for Active; 'I' for Inactive)
REMARK    1  A    between atoms: C_1  and  C_2 
REMARK    2  A    between atoms: C_1  and  O_13 
REMARK    3  A    between atoms: C_2  and  C_3 
REMARK    4  A    between atoms: C_2  and  O_12 
REMARK    5  A    between atoms: C_3  and  C_4 
REMARK    6  A    between atoms: C_3  and  O_11 
REMARK    7  A    between atoms: C_4  and  C_5 
REMARK    8  A    between atoms: C_4  and  O_10 
REMARK    9  A    between atoms: C_5  and  C_6 
REMARK   10  A    between atoms: C_5  and  O_9 
REMARK   11  A    between atoms: C_19  and  C_20 
REMARK   12  A    between atoms: C_19  and  O_31 
REMARK   13  A    between atoms: C_20  and  C_21 
REMARK   14  A    between atoms: C_20  and  O_30 
REMARK   15  A    between atoms: C_21  and  C_22 
REMARK   16  A    between atoms: C_21  and  O_29 
REMARK   17  A    between atoms: C_22  and  C_23 
REMARK   18  A    between atoms: C_22  and  O_28 
REMARK   19  A    between atoms: C_23  and  C_24 
REMARK   20  A    between atoms: C_23  and  O_27 
ROOT
HETATM    1 CA   UNL     3      -9.113   5.877 -17.202  1.00  0.00     0.000 Ca
ENDROOT
TORSDOF 20
BEGIN_RES ARG D 557
REMARK  4 active torsions:
REMARK  status: ('A' for Active; 'I' for Inactive)
REMARK    1  A    between atoms: CA   and  CB  
REMARK    2  A    between atoms: CB   and  CG  
REMARK    3  A    between atoms: CG   and  CD  
REMARK    4  A    between atoms: CD   and  NE  
REMARK       I    between atoms: NE   and  CZ  
REMARK       I    between atoms: CZ   and  NH1 
REMARK       I    between atoms: CZ   and  NH2 
ROOT
ATOM      1  CA  ARG D 557     -26.217   2.705 -17.014  1.00 35.49     0.159 C 
ENDROOT
BRANCH   1   2
ATOM      2  CB  ARG D 557     -26.789   1.319 -17.183  1.00 35.49     0.034 C 
BRANCH   2   3
ATOM      3  CG  ARG D 557     -25.835   0.204 -17.163  1.00 35.49     0.027 C 
BRANCH   3   4
ATOM      4  CD  ARG D 557     -24.748   0.409 -16.178  1.00 35.49     0.116 C 
BRANCH   4   5
ATOM      5  NE  ARG D 557     -24.893  -0.441 -15.025  1.00 35.49    -0.212 N 
ATOM      6  CZ  ARG D 557     -24.076  -1.410 -14.677  1.00 35.49     0.666 C 
ATOM      7  NH1 ARG D 557     -23.007  -1.724 -15.385  1.00 35.49    -0.235 N 
ATOM      8  NH2 ARG D 557     -24.352  -2.064 -13.587  1.00 35.49    -0.235 N 
ATOM      9  HH  ARG D 557     -22.805  -1.305 -16.104  1.00 35.49     0.174 HD
ATOM     10  HH  ARG D 557     -22.509  -2.364 -15.107  1.00 35.49     0.174 HD
ATOM     11  HH  ARG D 557     -25.045  -1.835 -13.147  1.00 35.49     0.174 HD
ATOM     12  HH  ARG D 557     -23.846  -2.694 -13.328  1.00 35.49     0.174 HD
ATOM     13  HE  ARG D 557     -25.595  -0.356 -14.553  1.00 35.49     0.178 HD
ENDBRANCH   4   5
ENDBRANCH   3   4
ENDBRANCH   2   3
ENDBRANCH   1   2
END_RES ARG D 557
BEGIN_RES GLU D 570
REMARK  3 active torsions:
REMARK  status: ('A' for Active; 'I' for Inactive)
REMARK    5  A    between atoms: CA   and  CB  
REMARK    6  A    between atoms: CB   and  CG  
REMARK    7  A    between atoms: CG   and  CD  
ROOT
ATOM     14  CA  GLU D 570     -18.033  -6.348 -13.375  1.00 32.92     0.160 C 
ENDROOT
BRANCH  14  15
ATOM     15  CB  GLU D 570     -19.500  -6.345 -13.794  1.00 32.92     0.043 C 
BRANCH  15  16
ATOM     16  CG  GLU D 570     -20.442  -5.533 -12.981  1.00 32.92     0.100 C 
BRANCH  16  17
ATOM     17  CD  GLU D 570     -21.739  -5.240 -13.700  1.00 32.92     0.185 C 
ATOM     18  OE1 GLU D 570     -22.211  -6.098 -14.471  1.00 32.92    -0.647 OA
ATOM     19  OE2 GLU D 570     -22.279  -4.134 -13.503  1.00 32.92    -0.647 OA
ENDBRANCH  16  17
ENDBRANCH  15  16
ENDBRANCH  14  15
END_RES GLU D 570
ENDMDL
MODEL 2
REMARK VINA RESULT:      -1.1      6.826      6.889
REMARK  20 active torsions:
REMARK  status: ('A' for Active; 'I' for Inactive)
REMARK    1  A    between atoms: C_1  and  C_2 
REMARK    2  A    between atoms: C_1  and  O_13 
REMARK    3  A    between atoms: C_2  and  C_3 
REMARK    4  A    between atoms: C_2  and  O_12 
REMARK    5  A    between atoms: C_3  and  C_4 
REMARK    6  A    between atoms: C_3  and  O_11 
REMARK    7  A    between atoms: C_4  and  C_5 
REMARK    8  A    between atoms: C_4  and  O_10 
REMARK    9  A    between atoms: C_5  and  C_6 
REMARK   10  A    between atoms: C_5  and  O_9 
REMARK   11  A    between atoms: C_19  and  C_20 
REMARK   12  A    between atoms: C_19  and  O_31 
REMARK   13  A    between atoms: C_20  and  C_21 
REMARK   14  A    between atoms: C_20  and  O_30 
REMARK   15  A    between atoms: C_21  and  C_22 
REMARK   16  A    between atoms: C_21  and  O_29 
REMARK   17  A    between atoms: C_22  and  C_23 
REMARK   18  A    between atoms: C_22  and  O_28 
REMARK   19  A    between atoms: C_23  and  C_24 
REMARK   20  A    between atoms: C_23  and  O_27 
ROOT
HETATM    1 CA   UNL     3     -25.058  -4.839  -5.228  1.00  0.00     0.000 Ca
ENDROOT
TORSDOF 20
BEGIN_RES ARG D 557
REMARK  4 active torsions:
REMARK  status: ('A' for Active; 'I' for Inactive)
REMARK    1  A    between atoms: CA   and  CB  
REMARK    2  A    between atoms: CB   and  CG  
REMARK    3  A    between atoms: CG   and  CD  
REMARK    4  A    between atoms: CD   and  NE  
REMARK       I    between atoms: NE   and  CZ  
REMARK       I    between atoms: CZ   and  NH1 
REMARK       I    between atoms: CZ   and  NH2 
ROOT
ATOM      1  CA  ARG D 557     -26.217   2.705 -17.014  1.00 35.49     0.159 C 
ENDROOT
BRANCH   1   2
ATOM      2  CB  ARG D 557     -26.789   1.319 -17.183  1.00 35.49     0.034 C 
BRANCH   2   3
ATOM      3  CG  ARG D 557     -25.835   0.204 -17.163  1.00 35.49     0.027 C 
BRANCH   3   4
ATOM      4  CD  ARG D 557     -24.748   0.409 -16.178  1.00 35.49     0.116 C 
BRANCH   4   5
ATOM      5  NE  ARG D 557     -24.897  -0.436 -15.022  1.00 35.49    -0.212 N 
ATOM      6  CZ  ARG D 557     -24.083  -1.406 -14.670  1.00 35.49     0.666 C 
ATOM      7  NH1 ARG D 557     -23.013  -1.725 -15.375  1.00 35.49    -0.235 N 
ATOM      8  NH2 ARG D 557     -24.361  -2.056 -13.578  1.00 35.49    -0.235 N 
ATOM      9  HH  ARG D 557     -22.810  -1.310 -16.096  1.00 35.49     0.174 HD
ATOM     10  HH  ARG D 557     -22.517  -2.366 -15.095  1.00 35.49     0.174 HD
ATOM     11  HH  ARG D 557     -25.055  -1.823 -13.139  1.00 35.49     0.174 HD
ATOM     12  HH  ARG D 557     -23.857  -2.686 -13.316  1.00 35.49     0.174 HD
ATOM     13  HE  ARG D 557     -25.599  -0.348 -14.551  1.00 35.49     0.178 HD
ENDBRANCH   4   5
ENDBRANCH   3   4
ENDBRANCH   2   3
ENDBRANCH   1   2
END_RES ARG D 557
BEGIN_RES GLU D 570
REMARK  3 active torsions:
REMARK  status: ('A' for Active; 'I' for Inactive)
REMARK    5  A    between atoms: CA   and  CB  
REMARK    6  A    between atoms: CB   and  CG  
REMARK    7  A    between atoms: CG   and  CD  
ROOT
ATOM     14  CA  GLU D 570     -18.033  -6.348 -13.375  1.00 32.92     0.160 C 
ENDROOT
BRANCH  14  15
ATOM     15  CB  GLU D 570     -19.500  -6.345 -13.794  1.00 32.92     0.043 C 
BRANCH  15  16
ATOM     16  CG  GLU D 570     -20.441  -5.529 -12.984  1.00 32.92     0.100 C 
BRANCH  16  17
ATOM     17  CD  GLU D 570     -21.742  -5.246 -13.700  1.00 32.92     0.185 C 
ATOM     18  OE1 GLU D 570     -22.294  -4.141 -13.538  1.00 32.92    -0.647 OA
ATOM     19  OE2 GLU D 570     -22.222  -6.146 -14.418  1.00 32.92    -0.647 OA
ENDBRANCH  16  17
ENDBRANCH  15  16
ENDBRANCH  14  15
END_RES GLU D 570
ENDMDL
MODEL 3
REMARK VINA RESULT:      -1.0      8.184      8.244
REMARK  20 active torsions:
REMARK  status: ('A' for Active; 'I' for Inactive)
REMARK    1  A    between atoms: C_1  and  C_2 
REMARK    2  A    between atoms: C_1  and  O_13 
REMARK    3  A    between atoms: C_2  and  C_3 
REMARK    4  A    between atoms: C_2  and  O_12 
REMARK    5  A    between atoms: C_3  and  C_4 
REMARK    6  A    between atoms: C_3  and  O_11 
REMARK    7  A    between atoms: C_4  and  C_5 
REMARK    8  A    between atoms: C_4  and  O_10 
REMARK    9  A    between atoms: C_5  and  C_6 
REMARK   10  A    between atoms: C_5  and  O_9 
REMARK   11  A    between atoms: C_19  and  C_20 
REMARK   12  A    between atoms: C_19  and  O_31 
REMARK   13  A    between atoms: C_20  and  C_21 
REMARK   14  A    between atoms: C_20  and  O_30 
REMARK   15  A    between atoms: C_21  and  C_22 
REMARK   16  A    between atoms: C_21  and  O_29 
REMARK   17  A    between atoms: C_22  and  C_23 
REMARK   18  A    between atoms: C_22  and  O_28 
REMARK   19  A    between atoms: C_23  and  C_24 
REMARK   20  A    between atoms: C_23  and  O_27 
ROOT
HETATM    1 CA   UNL     3     -27.144 -13.728 -13.116  1.00  0.00     0.000 Ca
ENDROOT
TORSDOF 20
BEGIN_RES ARG D 557
REMARK  4 active torsions:
REMARK  status: ('A' for Active; 'I' for Inactive)
REMARK    1  A    between atoms: CA   and  CB  
REMARK    2  A    between atoms: CB   and  CG  
REMARK    3  A    between atoms: CG   and  CD  
REMARK    4  A    between atoms: CD   and  NE  
REMARK       I    between atoms: NE   and  CZ  
REMARK       I    between atoms: CZ   and  NH1 
REMARK       I    between atoms: CZ   and  NH2 
ROOT
ATOM      1  CA  ARG D 557     -26.217   2.705 -17.014  1.00 35.49     0.159 C 
ENDROOT
BRANCH   1   2
ATOM      2  CB  ARG D 557     -26.789   1.319 -17.183  1.00 35.49     0.034 C 
BRANCH   2   3
ATOM      3  CG  ARG D 557     -25.860   0.195 -17.011  1.00 35.49     0.027 C 
BRANCH   3   4
ATOM      4  CD  ARG D 557     -26.253  -0.696 -15.895  1.00 35.49     0.116 C 
BRANCH   4   5
ATOM      5  NE  ARG D 557     -25.182  -0.891 -14.954  1.00 35.49    -0.212 N 
ATOM      6  CZ  ARG D 557     -24.870  -2.027 -14.370  1.00 35.49     0.666 C 
ATOM      7  NH1 ARG D 557     -25.542  -3.142 -14.585  1.00 35.49    -0.235 N 
ATOM      8  NH2 ARG D 557     -23.852  -2.025 -13.559  1.00 35.49    -0.235 N 
ATOM      9  HH  ARG D 557     -26.214  -3.167 -15.116  1.00 35.49     0.174 HD
ATOM     10  HH  ARG D 557     -25.292  -3.853 -14.178  1.00 35.49     0.174 HD
ATOM     11  HH  ARG D 557     -23.433  -1.291 -13.446  1.00 35.49     0.174 HD
ATOM     12  HH  ARG D 557     -23.619  -2.739 -13.167  1.00 35.49     0.174 HD
ATOM     13  HE  ARG D 557     -24.742  -0.208 -14.702  1.00 35.49     0.178 HD
ENDBRANCH   4   5
ENDBRANCH   3   4
ENDBRANCH   2   3
ENDBRANCH   1   2
END_RES ARG D 557
BEGIN_RES GLU D 570
REMARK  3 active torsions:
REMARK  status: ('A' for Active; 'I' for Inactive)
REMARK    5  A    between atoms: CA   and  CB  
REMARK    6  A    between atoms: CB   and  CG  
REMARK    7  A    between atoms: CG   and  CD  
ROOT
ATOM     14  CA  GLU D 570     -18.033  -6.348 -13.375  1.00 32.92     0.160 C 
ENDROOT
BRANCH  14  15
ATOM     15  CB  GLU D 570     -19.500  -6.345 -13.794  1.00 32.92     0.043 C 
BRANCH  15  16
ATOM     16  CG  GLU D 570     -20.446  -5.552 -12.967  1.00 32.92     0.100 C 
BRANCH  16  17
ATOM     17  CD  GLU D 570     -21.672  -5.111 -13.734  1.00 32.92     0.185 C 
ATOM     18  OE1 GLU D 570     -22.719  -4.860 -13.108  1.00 32.92    -0.647 OA
ATOM     19  OE2 GLU D 570     -21.588  -5.033 -14.975  1.00 32.92    -0.647 OA
ENDBRANCH  16  17
ENDBRANCH  15  16
ENDBRANCH  14  15
END_RES GLU D 570
ENDMDL
MODEL 4
REMARK VINA RESULT:      -0.9      4.645      4.738
REMARK  20 active torsions:
REMARK  status: ('A' for Active; 'I' for Inactive)
REMARK    1  A    between atoms: C_1  and  C_2 
REMARK    2  A    between atoms: C_1  and  O_13 
REMARK    3  A    between atoms: C_2  and  C_3 
REMARK    4  A    between atoms: C_2  and  O_12 
REMARK    5  A    between atoms: C_3  and  C_4 
REMARK    6  A    between atoms: C_3  and  O_11 
REMARK    7  A    between atoms: C_4  and  C_5 
REMARK    8  A    between atoms: C_4  and  O_10 
REMARK    9  A    between atoms: C_5  and  C_6 
REMARK   10  A    between atoms: C_5  and  O_9 
REMARK   11  A    between atoms: C_19  and  C_20 
REMARK   12  A    between atoms: C_19  and  O_31 
REMARK   13  A    between atoms: C_20  and  C_21 
REMARK   14  A    between atoms: C_20  and  O_30 
REMARK   15  A    between atoms: C_21  and  C_22 
REMARK   16  A    between atoms: C_21  and  O_29 
REMARK   17  A    between atoms: C_22  and  C_23 
REMARK   18  A    between atoms: C_22  and  O_28 
REMARK   19  A    between atoms: C_23  and  C_24 
REMARK   20  A    between atoms: C_23  and  O_27 
ROOT
HETATM    1 CA   UNL     3     -21.029  -2.557 -12.282  1.00  0.00     0.000 Ca
ENDROOT
TORSDOF 20
BEGIN_RES ARG D 557
REMARK  4 active torsions:
REMARK  status: ('A' for Active; 'I' for Inactive)
REMARK    1  A    between atoms: CA   and  CB  
REMARK    2  A    between atoms: CB   and  CG  
REMARK    3  A    between atoms: CG   and  CD  
REMARK    4  A    between atoms: CD   and  NE  
REMARK       I    between atoms: NE   and  CZ  
REMARK       I    between atoms: CZ   and  NH1 
REMARK       I    between atoms: CZ   and  NH2 
ROOT
ATOM      1  CA  ARG D 557     -26.217   2.705 -17.014  1.00 35.49     0.159 C 
ENDROOT
BRANCH   1   2
ATOM      2  CB  ARG D 557     -26.789   1.319 -17.183  1.00 35.49     0.034 C 
BRANCH   2   3
ATOM      3  CG  ARG D 557     -25.836   0.203 -17.157  1.00 35.49     0.027 C 
BRANCH   3   4
ATOM      4  CD  ARG D 557     -24.754   0.408 -16.166  1.00 35.49     0.116 C 
BRANCH   4   5
ATOM      5  NE  ARG D 557     -24.908  -0.439 -15.012  1.00 35.49    -0.212 N 
ATOM      6  CZ  ARG D 557     -24.098  -1.412 -14.660  1.00 35.49     0.666 C 
ATOM      7  NH1 ARG D 557     -23.028  -1.733 -15.364  1.00 35.49    -0.235 N 
ATOM      8  NH2 ARG D 557     -24.380  -2.063 -13.570  1.00 35.49    -0.235 N 
ATOM      9  HH  ARG D 557     -22.821  -1.316 -16.084  1.00 35.49     0.174 HD
ATOM     10  HH  ARG D 557     -22.534  -2.375 -15.084  1.00 35.49     0.174 HD
ATOM     11  HH  ARG D 557     -25.074  -1.829 -13.132  1.00 35.49     0.174 HD
ATOM     12  HH  ARG D 557     -23.879  -2.695 -13.309  1.00 35.49     0.174 HD
ATOM     13  HE  ARG D 557     -25.611  -0.349 -14.542  1.00 35.49     0.178 HD
ENDBRANCH   4   5
ENDBRANCH   3   4
ENDBRANCH   2   3
ENDBRANCH   1   2
END_RES ARG D 557
BEGIN_RES GLU D 570
REMARK  3 active torsions:
REMARK  status: ('A' for Active; 'I' for Inactive)
REMARK    5  A    between atoms: CA   and  CB  
REMARK    6  A    between atoms: CB   and  CG  
REMARK    7  A    between atoms: CG   and  CD  
ROOT
ATOM     14  CA  GLU D 570     -18.033  -6.348 -13.375  1.00 32.92     0.160 C 
ENDROOT
BRANCH  14  15
ATOM     15  CB  GLU D 570     -19.500  -6.345 -13.794  1.00 32.92     0.043 C 
BRANCH  15  16
ATOM     16  CG  GLU D 570     -20.436  -5.503 -13.005  1.00 32.92     0.100 C 
BRANCH  16  17
ATOM     17  CD  GLU D 570     -21.745  -5.252 -13.716  1.00 32.92     0.185 C 
ATOM     18  OE1 GLU D 570     -22.342  -4.176 -13.522  1.00 32.92    -0.647 OA
ATOM     19  OE2 GLU D 570     -22.187  -6.148 -14.461  1.00 32.92    -0.647 OA
ENDBRANCH  16  17
ENDBRANCH  15  16
ENDBRANCH  14  15
END_RES GLU D 570
ENDMDL
MODEL 5
REMARK VINA RESULT:      -0.9      5.916      5.989
REMARK  20 active torsions:
REMARK  status: ('A' for Active; 'I' for Inactive)
REMARK    1  A    between atoms: C_1  and  C_2 
REMARK    2  A    between atoms: C_1  and  O_13 
REMARK    3  A    between atoms: C_2  and  C_3 
REMARK    4  A    between atoms: C_2  and  O_12 
REMARK    5  A    between atoms: C_3  and  C_4 
REMARK    6  A    between atoms: C_3  and  O_11 
REMARK    7  A    between atoms: C_4  and  C_5 
REMARK    8  A    between atoms: C_4  and  O_10 
REMARK    9  A    between atoms: C_5  and  C_6 
REMARK   10  A    between atoms: C_5  and  O_9 
REMARK   11  A    between atoms: C_19  and  C_20 
REMARK   12  A    between atoms: C_19  and  O_31 
REMARK   13  A    between atoms: C_20  and  C_21 
REMARK   14  A    between atoms: C_20  and  O_30 
REMARK   15  A    between atoms: C_21  and  C_22 
REMARK   16  A    between atoms: C_21  and  O_29 
REMARK   17  A    between atoms: C_22  and  C_23 
REMARK   18  A    between atoms: C_22  and  O_28 
REMARK   19  A    between atoms: C_23  and  C_24 
REMARK   20  A    between atoms: C_23  and  O_27 
ROOT
HETATM    1 CA   UNL     3     -20.891  -9.805 -16.589  1.00  0.00     0.000 Ca
ENDROOT
TORSDOF 20
BEGIN_RES ARG D 557
REMARK  4 active torsions:
REMARK  status: ('A' for Active; 'I' for Inactive)
REMARK    1  A    between atoms: CA   and  CB  
REMARK    2  A    between atoms: CB   and  CG  
REMARK    3  A    between atoms: CG   and  CD  
REMARK    4  A    between atoms: CD   and  NE  
REMARK       I    between atoms: NE   and  CZ  
REMARK       I    between atoms: CZ   and  NH1 
REMARK       I    between atoms: CZ   and  NH2 
ROOT
ATOM      1  CA  ARG D 557     -26.217   2.705 -17.014  1.00 35.49     0.159 C 
ENDROOT
BRANCH   1   2
ATOM      2  CB  ARG D 557     -26.789   1.319 -17.183  1.00 35.49     0.034 C 
BRANCH   2   3
ATOM      3  CG  ARG D 557     -25.835   0.203 -17.160  1.00 35.49     0.027 C 
BRANCH   3   4
ATOM      4  CD  ARG D 557     -24.748   0.411 -16.177  1.00 35.49     0.116 C 
BRANCH   4   5
ATOM      5  NE  ARG D 557     -24.894  -0.432 -15.019  1.00 35.49    -0.212 N 
ATOM      6  CZ  ARG D 557     -24.082  -1.405 -14.670  1.00 35.49     0.666 C 
ATOM      7  NH1 ARG D 557     -23.018  -1.729 -15.381  1.00 35.49    -0.235 N 
ATOM      8  NH2 ARG D 557     -24.358  -2.053 -13.576  1.00 35.49    -0.235 N 
ATOM      9  HH  ARG D 557     -22.816  -1.315 -16.103  1.00 35.49     0.174 HD
ATOM     10  HH  ARG D 557     -22.523  -2.372 -15.102  1.00 35.49     0.174 HD
ATOM     11  HH  ARG D 557     -25.048  -1.816 -13.134  1.00 35.49     0.174 HD
ATOM     12  HH  ARG D 557     -23.855  -2.685 -13.316  1.00 35.49     0.174 HD
ATOM     13  HE  ARG D 557     -25.593  -0.340 -14.544  1.00 35.49     0.178 HD
ENDBRANCH   4   5
ENDBRANCH   3   4
ENDBRANCH   2   3
ENDBRANCH   1   2
END_RES ARG D 557
BEGIN_RES GLU D 570
REMARK  3 active torsions:
REMARK  status: ('A' for Active; 'I' for Inactive)
REMARK    5  A    between atoms: CA   and  CB  
REMARK    6  A    between atoms: CB   and  CG  
REMARK    7  A    between atoms: CG   and  CD  
ROOT
ATOM     14  CA  GLU D 570     -18.033  -6.348 -13.375  1.00 32.92     0.160 C 
ENDROOT
BRANCH  14  15
ATOM     15  CB  GLU D 570     -19.500  -6.345 -13.794  1.00 32.92     0.043 C 
BRANCH  15  16
ATOM     16  CG  GLU D 570     -20.444  -5.540 -12.976  1.00 32.92     0.100 C 
BRANCH  16  17
ATOM     17  CD  GLU D 570     -21.737  -5.238 -13.696  1.00 32.92     0.185 C 
ATOM     18  OE1 GLU D 570     -22.280  -4.129 -13.525  1.00 32.92    -0.647 OA
ATOM     19  OE2 GLU D 570     -22.222  -6.125 -14.426  1.00 32.92    -0.647 OA
ENDBRANCH  16  17
ENDBRANCH  15  16
ENDBRANCH  14  15
END_RES GLU D 570
ENDMDL
MODEL 6
REMARK VINA RESULT:      -0.9      9.117      9.165
REMARK  20 active torsions:
REMARK  status: ('A' for Active; 'I' for Inactive)
REMARK    1  A    between atoms: C_1  and  C_2 
REMARK    2  A    between atoms: C_1  and  O_13 
REMARK    3  A    between atoms: C_2  and  C_3 
REMARK    4  A    between atoms: C_2  and  O_12 
REMARK    5  A    between atoms: C_3  and  C_4 
REMARK    6  A    between atoms: C_3  and  O_11 
REMARK    7  A    between atoms: C_4  and  C_5 
REMARK    8  A    between atoms: C_4  and  O_10 
REMARK    9  A    between atoms: C_5  and  C_6 
REMARK   10  A    between atoms: C_5  and  O_9 
REMARK   11  A    between atoms: C_19  and  C_20 
REMARK   12  A    between atoms: C_19  and  O_31 
REMARK   13  A    between atoms: C_20  and  C_21 
REMARK   14  A    between atoms: C_20  and  O_30 
REMARK   15  A    between atoms: C_21  and  C_22 
REMARK   16  A    between atoms: C_21  and  O_29 
REMARK   17  A    between atoms: C_22  and  C_23 
REMARK   18  A    between atoms: C_22  and  O_28 
REMARK   19  A    between atoms: C_23  and  C_24 
REMARK   20  A    between atoms: C_23  and  O_27 
ROOT
HETATM    1 CA   UNL     3     -35.092  -8.564 -11.650  1.00  0.00     0.000 Ca
ENDROOT
TORSDOF 20
BEGIN_RES ARG D 557
REMARK  4 active torsions:
REMARK  status: ('A' for Active; 'I' for Inactive)
REMARK    1  A    between atoms: CA   and  CB  
REMARK    2  A    between atoms: CB   and  CG  
REMARK    3  A    between atoms: CG   and  CD  
REMARK    4  A    between atoms: CD   and  NE  
REMARK       I    between atoms: NE   and  CZ  
REMARK       I    between atoms: CZ   and  NH1 
REMARK       I    between atoms: CZ   and  NH2 
ROOT
ATOM      1  CA  ARG D 557     -26.217   2.705 -17.014  1.00 35.49     0.159 C 
ENDROOT
BRANCH   1   2
ATOM      2  CB  ARG D 557     -26.789   1.319 -17.183  1.00 35.49     0.034 C 
BRANCH   2   3
ATOM      3  CG  ARG D 557     -25.847   0.198 -17.076  1.00 35.49     0.027 C 
BRANCH   3   4
ATOM      4  CD  ARG D 557     -24.777   0.453 -16.085  1.00 35.49     0.116 C 
BRANCH   4   5
ATOM      5  NE  ARG D 557     -24.893  -0.400 -14.931  1.00 35.49    -0.212 N 
ATOM      6  CZ  ARG D 557     -24.086  -1.390 -14.624  1.00 35.49     0.666 C 
ATOM      7  NH1 ARG D 557     -23.056  -1.726 -15.379  1.00 35.49    -0.235 N 
ATOM      8  NH2 ARG D 557     -24.329  -2.045 -13.526  1.00 35.49    -0.235 N 
ATOM      9  HH  ARG D 557     -22.875  -1.308 -16.104  1.00 35.49     0.174 HD
ATOM     10  HH  ARG D 557     -22.562  -2.379 -15.126  1.00 35.49     0.174 HD
ATOM     11  HH  ARG D 557     -24.997  -1.801 -13.054  1.00 35.49     0.174 HD
ATOM     12  HH  ARG D 557     -23.828  -2.688 -13.292  1.00 35.49     0.174 HD
ATOM     13  HE  ARG D 557     -25.571  -0.301 -14.428  1.00 35.49     0.178 HD
ENDBRANCH   4   5
ENDBRANCH   3   4
ENDBRANCH   2   3
ENDBRANCH   1   2
END_RES ARG D 557
BEGIN_RES GLU D 570
REMARK  3 active torsions:
REMARK  status: ('A' for Active; 'I' for Inactive)
REMARK    5  A    between atoms: CA   and  CB  
REMARK    6  A    between atoms: CB   and  CG  
REMARK    7  A    between atoms: CG   and  CD  
ROOT
ATOM     14  CA  GLU D 570     -18.033  -6.348 -13.375  1.00 32.92     0.160 C 
ENDROOT
BRANCH  14  15
ATOM     15  CB  GLU D 570     -19.500  -6.345 -13.794  1.00 32.92     0.043 C 
BRANCH  15  16
ATOM     16  CG  GLU D 570     -20.445  -5.546 -12.972  1.00 32.92     0.100 C 
BRANCH  16  17
ATOM     17  CD  GLU D 570     -21.737  -5.236 -13.693  1.00 32.92     0.185 C 
ATOM     18  OE1 GLU D 570     -22.260  -4.115 -13.543  1.00 32.92    -0.647 OA
ATOM     19  OE2 GLU D 570     -22.239  -6.130 -14.401  1.00 32.92    -0.647 OA
ENDBRANCH  16  17
ENDBRANCH  15  16
ENDBRANCH  14  15
END_RES GLU D 570
ENDMDL
MODEL 7
REMARK VINA RESULT:      -0.9      6.177      6.177
REMARK  20 active torsions:
REMARK  status: ('A' for Active; 'I' for Inactive)
REMARK    1  A    between atoms: C_1  and  C_2 
REMARK    2  A    between atoms: C_1  and  O_13 
REMARK    3  A    between atoms: C_2  and  C_3 
REMARK    4  A    between atoms: C_2  and  O_12 
REMARK    5  A    between atoms: C_3  and  C_4 
REMARK    6  A    between atoms: C_3  and  O_11 
REMARK    7  A    between atoms: C_4  and  C_5 
REMARK    8  A    between atoms: C_4  and  O_10 
REMARK    9  A    between atoms: C_5  and  C_6 
REMARK   10  A    between atoms: C_5  and  O_9 
REMARK   11  A    between atoms: C_19  and  C_20 
REMARK   12  A    between atoms: C_19  and  O_31 
REMARK   13  A    between atoms: C_20  and  C_21 
REMARK   14  A    between atoms: C_20  and  O_30 
REMARK   15  A    between atoms: C_21  and  C_22 
REMARK   16  A    between atoms: C_21  and  O_29 
REMARK   17  A    between atoms: C_22  and  C_23 
REMARK   18  A    between atoms: C_22  and  O_28 
REMARK   19  A    between atoms: C_23  and  C_24 
REMARK   20  A    between atoms: C_23  and  O_27 
ROOT
HETATM    1 CA   UNL     3     -29.180   9.703 -18.762  1.00  0.00     0.000 Ca
ENDROOT
TORSDOF 20
BEGIN_RES ARG D 557
REMARK  4 active torsions:
REMARK  status: ('A' for Active; 'I' for Inactive)
REMARK    1  A    between atoms: CA   and  CB  
REMARK    2  A    between atoms: CB   and  CG  
REMARK    3  A    between atoms: CG   and  CD  
REMARK    4  A    between atoms: CD   and  NE  
REMARK       I    between atoms: NE   and  CZ  
REMARK       I    between atoms: CZ   and  NH1 
REMARK       I    between atoms: CZ   and  NH2 
ROOT
ATOM      1  CA  ARG D 557     -26.217   2.705 -17.014  1.00 35.49     0.159 C 
ENDROOT
BRANCH   1   2
ATOM      2  CB  ARG D 557     -26.789   1.319 -17.183  1.00 35.49     0.034 C 
BRANCH   2   3
ATOM      3  CG  ARG D 557     -25.835   0.203 -17.159  1.00 35.49     0.027 C 
BRANCH   3   4
ATOM      4  CD  ARG D 557     -24.746   0.413 -16.178  1.00 35.49     0.116 C 
BRANCH   4   5
ATOM      5  NE  ARG D 557     -24.888  -0.430 -15.021  1.00 35.49    -0.212 N 
ATOM      6  CZ  ARG D 557     -24.073  -1.401 -14.673  1.00 35.49     0.666 C 
ATOM      7  NH1 ARG D 557     -23.009  -1.723 -15.385  1.00 35.49    -0.235 N 
ATOM      8  NH2 ARG D 557     -24.345  -2.050 -13.578  1.00 35.49    -0.235 N 
ATOM      9  HH  ARG D 557     -22.810  -1.308 -16.108  1.00 35.49     0.174 HD
ATOM     10  HH  ARG D 557     -22.513  -2.364 -15.108  1.00 35.49     0.174 HD
ATOM     11  HH  ARG D 557     -25.035  -1.815 -13.135  1.00 35.49     0.174 HD
ATOM     12  HH  ARG D 557     -23.840  -2.680 -13.319  1.00 35.49     0.174 HD
ATOM     13  HE  ARG D 557     -25.586  -0.340 -14.544  1.00 35.49     0.178 HD
ENDBRANCH   4   5
ENDBRANCH   3   4
ENDBRANCH   2   3
ENDBRANCH   1   2
END_RES ARG D 557
BEGIN_RES GLU D 570
REMARK  3 active torsions:
REMARK  status: ('A' for Active; 'I' for Inactive)
REMARK    5  A    between atoms: CA   and  CB  
REMARK    6  A    between atoms: CB   and  CG  
REMARK    7  A    between atoms: CG   and  CD  
ROOT
ATOM     14  CA  GLU D 570     -18.033  -6.348 -13.375  1.00 32.92     0.160 C 
ENDROOT
BRANCH  14  15
ATOM     15  CB  GLU D 570     -19.500  -6.345 -13.794  1.00 32.92     0.043 C 
BRANCH  15  16
ATOM     16  CG  GLU D 570     -20.442  -5.529 -12.984  1.00 32.92     0.100 C 
BRANCH  16  17
ATOM     17  CD  GLU D 570     -21.747  -5.258 -13.694  1.00 32.92     0.185 C 
ATOM     18  OE1 GLU D 570     -22.251  -6.154 -14.398  1.00 32.92    -0.647 OA
ATOM     19  OE2 GLU D 570     -22.263  -4.131 -13.559  1.00 32.92    -0.647 OA
ENDBRANCH  16  17
ENDBRANCH  15  16
ENDBRANCH  14  15
END_RES GLU D 570
ENDMDL
MODEL 8
REMARK VINA RESULT:      -0.9      2.712      2.868
REMARK  20 active torsions:
REMARK  status: ('A' for Active; 'I' for Inactive)
REMARK    1  A    between atoms: C_1  and  C_2 
REMARK    2  A    between atoms: C_1  and  O_13 
REMARK    3  A    between atoms: C_2  and  C_3 
REMARK    4  A    between atoms: C_2  and  O_12 
REMARK    5  A    between atoms: C_3  and  C_4 
REMARK    6  A    between atoms: C_3  and  O_11 
REMARK    7  A    between atoms: C_4  and  C_5 
REMARK    8  A    between atoms: C_4  and  O_10 
REMARK    9  A    between atoms: C_5  and  C_6 
REMARK   10  A    between atoms: C_5  and  O_9 
REMARK   11  A    between atoms: C_19  and  C_20 
REMARK   12  A    between atoms: C_19  and  O_31 
REMARK   13  A    between atoms: C_20  and  C_21 
REMARK   14  A    between atoms: C_20  and  O_30 
REMARK   15  A    between atoms: C_21  and  C_22 
REMARK   16  A    between atoms: C_21  and  O_29 
REMARK   17  A    between atoms: C_22  and  C_23 
REMARK   18  A    between atoms: C_22  and  O_28 
REMARK   19  A    between atoms: C_23  and  C_24 
REMARK   20  A    between atoms: C_23  and  O_27 
ROOT
HETATM    1 CA   UNL     3     -14.908  11.672 -13.496  1.00  0.00     0.000 Ca
ENDROOT
TORSDOF 20
BEGIN_RES ARG D 557
REMARK  4 active torsions:
REMARK  status: ('A' for Active; 'I' for Inactive)
REMARK    1  A    between atoms: CA   and  CB  
REMARK    2  A    between atoms: CB   and  CG  
REMARK    3  A    between atoms: CG   and  CD  
REMARK    4  A    between atoms: CD   and  NE  
REMARK       I    between atoms: NE   and  CZ  
REMARK       I    between atoms: CZ   and  NH1 
REMARK       I    between atoms: CZ   and  NH2 
ROOT
ATOM      1  CA  ARG D 557     -26.217   2.705 -17.014  1.00 35.49     0.159 C 
ENDROOT
BRANCH   1   2
ATOM      2  CB  ARG D 557     -26.789   1.319 -17.183  1.00 35.49     0.034 C 
BRANCH   2   3
ATOM      3  CG  ARG D 557     -25.837   0.202 -17.142  1.00 35.49     0.027 C 
BRANCH   3   4
ATOM      4  CD  ARG D 557     -24.761   0.414 -16.147  1.00 35.49     0.116 C 
BRANCH   4   5
ATOM      5  NE  ARG D 557     -24.898  -0.454 -15.007  1.00 35.49    -0.212 N 
ATOM      6  CZ  ARG D 557     -24.072  -1.420 -14.673  1.00 35.49     0.666 C 
ATOM      7  NH1 ARG D 557     -23.000  -1.714 -15.385  1.00 35.49    -0.235 N 
ATOM      8  NH2 ARG D 557     -24.341  -2.093 -13.593  1.00 35.49    -0.235 N 
ATOM      9  HH  ARG D 557     -22.803  -1.282 -16.099  1.00 35.49     0.174 HD
ATOM     10  HH  ARG D 557     -22.497  -2.353 -15.118  1.00 35.49     0.174 HD
ATOM     11  HH  ARG D 557     -25.037  -1.877 -13.149  1.00 35.49     0.174 HD
ATOM     12  HH  ARG D 557     -23.830  -2.722 -13.343  1.00 35.49     0.174 HD
ATOM     13  HE  ARG D 557     -25.601  -0.382 -14.532  1.00 35.49     0.178 HD
ENDBRANCH   4   5
ENDBRANCH   3   4
ENDBRANCH   2   3
ENDBRANCH   1   2
END_RES ARG D 557
BEGIN_RES GLU D 570
REMARK  3 active torsions:
REMARK  status: ('A' for Active; 'I' for Inactive)
REMARK    5  A    between atoms: CA   and  CB  
REMARK    6  A    between atoms: CB   and  CG  
REMARK    7  A    between atoms: CG   and  CD  
ROOT
ATOM     14  CA  GLU D 570     -18.033  -6.348 -13.375  1.00 32.92     0.160 C 
ENDROOT
BRANCH  14  15
ATOM     15  CB  GLU D 570     -19.500  -6.345 -13.794  1.00 32.92     0.043 C 
BRANCH  15  16
ATOM     16  CG  GLU D 570     -20.453  -5.584 -12.945  1.00 32.92     0.100 C 
BRANCH  16  17
ATOM     17  CD  GLU D 570     -21.732  -5.230 -13.667  1.00 32.92     0.185 C 
ATOM     18  OE1 GLU D 570     -22.201  -4.083 -13.539  1.00 32.92    -0.647 OA
ATOM     19  OE2 GLU D 570     -22.280  -6.115 -14.353  1.00 32.92    -0.647 OA
ENDBRANCH  16  17
ENDBRANCH  15  16
ENDBRANCH  14  15
END_RES GLU D 570
ENDMDL
MODEL 9
REMARK VINA RESULT:      -0.8      9.125      9.179
REMARK  20 active torsions:
REMARK  status: ('A' for Active; 'I' for Inactive)
REMARK    1  A    between atoms: C_1  and  C_2 
REMARK    2  A    between atoms: C_1  and  O_13 
REMARK    3  A    between atoms: C_2  and  C_3 
REMARK    4  A    between atoms: C_2  and  O_12 
REMARK    5  A    between atoms: C_3  and  C_4 
REMARK    6  A    between atoms: C_3  and  O_11 
REMARK    7  A    between atoms: C_4  and  C_5 
REMARK    8  A    between atoms: C_4  and  O_10 
REMARK    9  A    between atoms: C_5  and  C_6 
REMARK   10  A    between atoms: C_5  and  O_9 
REMARK   11  A    between atoms: C_19  and  C_20 
REMARK   12  A    between atoms: C_19  and  O_31 
REMARK   13  A    between atoms: C_20  and  C_21 
REMARK   14  A    between atoms: C_20  and  O_30 
REMARK   15  A    between atoms: C_21  and  C_22 
REMARK   16  A    between atoms: C_21  and  O_29 
REMARK   17  A    between atoms: C_22  and  C_23 
REMARK   18  A    between atoms: C_22  and  O_28 
REMARK   19  A    between atoms: C_23  and  C_24 
REMARK   20  A    between atoms: C_23  and  O_27 
ROOT
HETATM    1 CA   UNL     3     -30.921   0.741   2.867  1.00  0.00     0.000 Ca
ENDROOT
TORSDOF 20
BEGIN_RES ARG D 557
REMARK  4 active torsions:
REMARK  status: ('A' for Active; 'I' for Inactive)
REMARK    1  A    between atoms: CA   and  CB  
REMARK    2  A    between atoms: CB   and  CG  
REMARK    3  A    between atoms: CG   and  CD  
REMARK    4  A    between atoms: CD   and  NE  
REMARK       I    between atoms: NE   and  CZ  
REMARK       I    between atoms: CZ   and  NH1 
REMARK       I    between atoms: CZ   and  NH2 
ROOT
ATOM      1  CA  ARG D 557     -26.217   2.705 -17.014  1.00 35.49     0.159 C 
ENDROOT
BRANCH   1   2
ATOM      2  CB  ARG D 557     -26.789   1.319 -17.183  1.00 35.49     0.034 C 
BRANCH   2   3
ATOM      3  CG  ARG D 557     -25.864   0.195 -16.992  1.00 35.49     0.027 C 
BRANCH   3   4
ATOM      4  CD  ARG D 557     -26.286  -0.701 -15.891  1.00 35.49     0.116 C 
BRANCH   4   5
ATOM      5  NE  ARG D 557     -25.230  -0.924 -14.939  1.00 35.49    -0.212 N 
ATOM      6  CZ  ARG D 557     -24.943  -2.071 -14.365  1.00 35.49     0.666 C 
ATOM      7  NH1 ARG D 557     -25.629  -3.174 -14.602  1.00 35.49    -0.235 N 
ATOM      8  NH2 ARG D 557     -23.935  -2.095 -13.541  1.00 35.49    -0.235 N 
ATOM      9  HH  ARG D 557     -26.294  -3.182 -15.142  1.00 35.49     0.174 HD
ATOM     10  HH  ARG D 557     -25.394  -3.894 -14.200  1.00 35.49     0.174 HD
ATOM     11  HH  ARG D 557     -23.506  -1.369 -13.414  1.00 35.49     0.174 HD
ATOM     12  HH  ARG D 557     -23.717  -2.817 -13.155  1.00 35.49     0.174 HD
ATOM     13  HE  ARG D 557     -24.783  -0.252 -14.674  1.00 35.49     0.178 HD
ENDBRANCH   4   5
ENDBRANCH   3   4
ENDBRANCH   2   3
ENDBRANCH   1   2
END_RES ARG D 557
BEGIN_RES GLU D 570
REMARK  3 active torsions:
REMARK  status: ('A' for Active; 'I' for Inactive)
REMARK    5  A    between atoms: CA   and  CB  
REMARK    6  A    between atoms: CB   and  CG  
REMARK    7  A    between atoms: CG   and  CD  
ROOT
ATOM     14  CA  GLU D 570     -18.033  -6.348 -13.375  1.00 32.92     0.160 C 
ENDROOT
BRANCH  14  15
ATOM     15  CB  GLU D 570     -19.500  -6.345 -13.794  1.00 32.92     0.043 C 
BRANCH  15  16
ATOM     16  CG  GLU D 570     -20.444  -5.542 -12.975  1.00 32.92     0.100 C 
BRANCH  16  17
ATOM     17  CD  GLU D 570     -21.687  -5.138 -13.734  1.00 32.92     0.185 C 
ATOM     18  OE1 GLU D 570     -22.749  -4.962 -13.106  1.00 32.92    -0.647 OA
ATOM     19  OE2 GLU D 570     -21.601  -5.013 -14.971  1.00 32.92    -0.647 OA
ENDBRANCH  16  17
ENDBRANCH  15  16
ENDBRANCH  14  15
END_RES GLU D 570
ENDMDL
